#      Rotatable Fragment
#      Build by yxyuan
#
# Name:          frag3-195-6/31924
# Creation time: Sat Jun  5 12:52:11 2010


@<TRIPOS>MOLECULE
frag3-195-6/31924
   20    19     1     1     1
SMALL
USER_CHARGES


@<TRIPOS>ATOM
      1 S1          2.6163   -2.1811   -7.1381 S.3        1 <1>        0.000
      2 S2          4.0912   -2.1944   -5.7441 S.3        1 <1>        0.000
      3 C1          5.2118   -0.9921   -6.4625 C.2        1 <1>        0.000
      4 C2          6.5309   -1.2246   -6.3946 C.2        1 <1>        0.000
      5 N1          7.5294   -0.4587   -6.9085 N.am       1 <1>        0.000
      6 C9          8.8599   -0.7083   -6.9239 C.2        1 <1>        0.000
      7 O1          9.7095    0.0085   -7.4255 O.2        1 <1>        0.000
      8 C20         1.2234   -1.6764   -6.1281 C.2        1 <1>        0.000
      9 C21         0.0370   -2.2633   -6.3413 C.2        1 <1>        0.000
     10 N5         -1.1199   -2.0423   -5.6663 N.am       1 <1>        0.000
     11 C28        -2.3383   -2.6020   -5.8632 C.2        1 <1>        0.000
     12 O4         -3.3367   -2.3752   -5.2007 O.2        1 <1>        0.000
     13 H           4.8290   -0.0921   -6.9438 H.spc      1 <1>        0.000
     14 H           6.8365   -2.1290   -5.8684 H.spc      1 <1>        0.000
     15 H           7.2381    0.4190   -7.3389 H.spc      1 <1>        0.000
     16 H           9.2006   -1.6277   -6.4477 H.spc      1 <1>        0.000
     17 H           1.3383   -0.9116   -5.3600 H.spc      1 <1>        0.000
     18 H          -0.0030   -2.9987   -7.1449 H.spc      1 <1>        0.000
     19 H          -1.0646   -1.3626   -4.9078 H.spc      1 <1>        0.000
     20 H          -2.4339   -3.3146   -6.6824 H.spc      1 <1>        0.000
@<TRIPOS>BOND
     1    6    7 2  
     2   10   11 am 
     3    9   10 1  
     4    8    9 2  
     5    5    6 am 
     6    4    5 1  
     7    1    2 1  
     8    1    8 1  
     9    2    3 1  
    10    3    4 2  
    11   11   12 2  
    12    3   13 1  
    13    4   14 1  
    14    5   15 1  
    15    6   16 1  
    16    8   17 1  
    17    9   18 1  
    18   10   19 1  
    19   11   20 1  
# Name:          frag3-195-6/31924
# Creation time: Sat Jun  5 12:52:11 2010


@<TRIPOS>MOLECULE
frag3-195-6/31924
   20    19     1     1     1
SMALL
USER_CHARGES


@<TRIPOS>ATOM
      1 S1          4.0817   -2.4807   -6.9642 S.3        1 <1>        0.000
      2 S2          2.7890   -2.3723   -5.4050 S.3        1 <1>        0.000
      3 C1          1.2465   -2.1487   -6.2887 C.2        1 <1>        0.000
      4 C2          0.0941   -2.2895   -5.6179 C.2        1 <1>        0.000
      5 N1         -1.1658   -2.1243   -6.0982 N.am       1 <1>        0.000
      6 C9         -2.3389   -2.1724   -5.4244 C.2        1 <1>        0.000
      7 O1         -3.4475   -2.0726   -5.9222 O.2        1 <1>        0.000
      8 C20         5.2588   -1.2135   -6.4985 C.2        1 <1>        0.000
      9 C21         6.4991   -1.2773   -7.0025 C.2        1 <1>        0.000
     10 N5          7.5159   -0.4034   -6.7957 N.am       1 <1>        0.000
     11 C28         8.8163   -0.5092   -7.1619 C.2        1 <1>        0.000
     12 O4          9.6655    0.3540   -7.0177 O.2        1 <1>        0.000
     13 H           1.2450   -1.9031   -7.3507 H.spc      1 <1>        0.000
     14 H           0.1778   -2.5683   -4.5675 H.spc      1 <1>        0.000
     15 H          -1.2373   -1.9396   -7.0988 H.spc      1 <1>        0.000
     16 H          -2.2881   -2.3123   -4.3446 H.spc      1 <1>        0.000
     17 H           4.9730   -0.4090   -5.8208 H.spc      1 <1>        0.000
     18 H           6.7149   -2.1263   -7.6511 H.spc      1 <1>        0.000
     19 H           7.2675    0.4504   -6.2960 H.spc      1 <1>        0.000
     20 H           9.1298   -1.4451   -7.6245 H.spc      1 <1>        0.000
@<TRIPOS>BOND
     1    6    7 2  
     2   10   11 am 
     3    9   10 1  
     4    8    9 2  
     5    5    6 am 
     6    4    5 1  
     7    1    2 1  
     8    1    8 1  
     9    2    3 1  
    10    3    4 2  
    11   11   12 2  
    12    3   13 1  
    13    4   14 1  
    14    5   15 1  
    15    6   16 1  
    16    8   17 1  
    17    9   18 1  
    18   10   19 1  
    19   11   20 1  
# Name:          frag3-195-6/31924
# Creation time: Sat Jun  5 12:52:11 2010


@<TRIPOS>MOLECULE
frag3-195-6/31924
   20    19     1     1     1
SMALL
USER_CHARGES


@<TRIPOS>ATOM
      1 S1          4.2909   -2.8098   -5.9624 S.3        1 <1>        0.000
      2 S2          2.6276   -2.9345   -7.1171 S.3        1 <1>        0.000
      3 C1          1.3686   -2.5609   -5.8977 C.2        1 <1>        0.000
      4 C2          0.1255   -2.2879   -6.3196 C.2        1 <1>        0.000
      5 N1         -0.9651   -2.0203   -5.5547 N.am       1 <1>        0.000
      6 C9         -2.2460   -1.8300   -5.9490 C.2        1 <1>        0.000
      7 O1         -3.1765   -1.5349   -5.2184 O.2        1 <1>        0.000
      8 C20         5.2571   -1.6373   -6.9118 C.2        1 <1>        0.000
      9 C21         6.4605   -1.2758   -6.4453 C.2        1 <1>        0.000
     10 N5          7.3479   -0.4317   -7.0291 N.am       1 <1>        0.000
     11 C28         8.5689   -0.0433   -6.5879 C.2        1 <1>        0.000
     12 O4          9.3551    0.6564   -7.2039 O.2        1 <1>        0.000
     13 H           1.6086   -2.5557   -4.8345 H.spc      1 <1>        0.000
     14 H          -0.0275   -2.2797   -7.3988 H.spc      1 <1>        0.000
     15 H          -0.7964   -1.9541   -4.5509 H.spc      1 <1>        0.000
     16 H          -2.4642   -1.9509   -7.0101 H.spc      1 <1>        0.000
     17 H           4.8753   -1.2275   -7.8469 H.spc      1 <1>        0.000
     18 H           6.7596   -1.7082   -5.4905 H.spc      1 <1>        0.000
     19 H           7.0560   -0.0352   -7.9224 H.spc      1 <1>        0.000
     20 H           8.8741   -0.3852   -5.5989 H.spc      1 <1>        0.000
@<TRIPOS>BOND
     1    6    7 2  
     2   10   11 am 
     3    9   10 1  
     4    8    9 2  
     5    5    6 am 
     6    4    5 1  
     7    1    2 1  
     8    1    8 1  
     9    2    3 1  
    10    3    4 2  
    11   11   12 2  
    12    3   13 1  
    13    4   14 1  
    14    5   15 1  
    15    6   16 1  
    16    8   17 1  
    17    9   18 1  
    18   10   19 1  
    19   11   20 1  
# Name:          frag3-195-6/31924
# Creation time: Sat Jun  5 12:52:11 2010


@<TRIPOS>MOLECULE
frag3-195-6/31924
   20    19     1     1     1
SMALL
USER_CHARGES


@<TRIPOS>ATOM
      1 S1          2.8082   -4.3970   -6.1085 S.3        1 <1>        0.000
      2 S2          4.6027   -4.0638   -6.9992 S.3        1 <1>        0.000
      3 C1          5.1025   -2.5676   -6.1418 C.2        1 <1>        0.000
      4 C2          5.7740   -1.6322   -6.8304 C.2        1 <1>        0.000
      5 N1          6.2021   -0.4248   -6.3723 N.am       1 <1>        0.000
      6 C9          6.9072    0.5233   -7.0333 C.2        1 <1>        0.000
      7 O1          7.2192    1.6138   -6.5851 O.2        1 <1>        0.000
      8 C20         1.8829   -2.9839   -6.7153 C.2        1 <1>        0.000
      9 C21         0.8892   -2.5037   -5.9534 C.2        1 <1>        0.000
     10 N5          0.0991   -1.4313   -6.2210 N.am       1 <1>        0.000
     11 C28        -0.9273   -0.9312   -5.4905 C.2        1 <1>        0.000
     12 O4         -1.5453    0.0886   -5.7462 O.2        1 <1>        0.000
     13 H           4.8662   -2.4227   -5.0876 H.spc      1 <1>        0.000
     14 H           6.0014   -1.8651   -7.8707 H.spc      1 <1>        0.000
     15 H           5.9606   -0.2055   -5.4059 H.spc      1 <1>        0.000
     16 H           7.2223    0.2928   -8.0510 H.spc      1 <1>        0.000
     17 H           2.1220   -2.5286   -7.6764 H.spc      1 <1>        0.000
     18 H           0.6945   -3.0303   -5.0191 H.spc      1 <1>        0.000
     19 H           0.3062   -0.9359   -7.0882 H.spc      1 <1>        0.000
     20 H          -1.2250   -1.4864   -4.6010 H.spc      1 <1>        0.000
@<TRIPOS>BOND
     1    6    7 2  
     2   10   11 am 
     3    9   10 1  
     4    8    9 2  
     5    5    6 am 
     6    4    5 1  
     7    1    2 1  
     8    1    8 1  
     9    2    3 1  
    10    3    4 2  
    11   11   12 2  
    12    3   13 1  
    13    4   14 1  
    14    5   15 1  
    15    6   16 1  
    16    8   17 1  
    17    9   18 1  
    18   10   19 1  
    19   11   20 1  
# Name:          frag3-195-6/31924
# Creation time: Sat Jun  5 12:52:11 2010


@<TRIPOS>MOLECULE
frag3-195-6/31924
   20    19     1     1     1
SMALL
USER_CHARGES


@<TRIPOS>ATOM
      1 S1          4.4175   -3.6704   -6.2165 S.3        1 <1>        0.000
      2 S2          2.5808   -3.8302   -7.0658 S.3        1 <1>        0.000
      3 C1          1.5659   -3.1676   -5.7431 C.2        1 <1>        0.000
      4 C2          0.5731   -2.3232   -6.0596 C.2        1 <1>        0.000
      5 N1         -0.3212   -1.7498   -5.2113 N.am       1 <1>        0.000
      6 C9         -1.3786   -0.9590   -5.5102 C.2        1 <1>        0.000
      7 O1         -1.7317   -0.6426   -6.6336 O.2        1 <1>        0.000
      8 C20         4.7705   -1.9416   -6.5376 C.2        1 <1>        0.000
      9 C21         6.0508   -1.5434   -6.5358 C.2        1 <1>        0.000
     10 N5          6.5204   -0.2941   -6.7853 N.am       1 <1>        0.000
     11 C28         7.8025    0.1454   -6.7915 C.2        1 <1>        0.000
     12 O4          8.1644    1.2666   -7.1066 O.2        1 <1>        0.000
     13 H           1.7520   -3.4450   -4.7055 H.spc      1 <1>        0.000
     14 H           0.4720   -2.0683   -7.1145 H.spc      1 <1>        0.000
     15 H          -0.1766   -1.9404   -4.2198 H.spc      1 <1>        0.000
     16 H          -1.9639   -0.5724   -4.6759 H.spc      1 <1>        0.000
     17 H           3.9649   -1.2328   -6.7293 H.spc      1 <1>        0.000
     18 H           6.7960   -2.3059   -6.3093 H.spc      1 <1>        0.000
     19 H           5.8123    0.4090   -6.9967 H.spc      1 <1>        0.000
     20 H           8.5746   -0.5623   -6.4897 H.spc      1 <1>        0.000
@<TRIPOS>BOND
     1    6    7 2  
     2   10   11 am 
     3    9   10 1  
     4    8    9 2  
     5    5    6 am 
     6    4    5 1  
     7    1    2 1  
     8    1    8 1  
     9    2    3 1  
    10    3    4 2  
    11   11   12 2  
    12    3   13 1  
    13    4   14 1  
    14    5   15 1  
    15    6   16 1  
    16    8   17 1  
    17    9   18 1  
    18   10   19 1  
    19   11   20 1  
# Name:          frag3-195-6/31924
# Creation time: Sat Jun  5 12:52:11 2010


@<TRIPOS>MOLECULE
frag3-195-6/31924
   20    19     1     1     1
SMALL
USER_CHARGES


@<TRIPOS>ATOM
      1 S1          4.8036   -4.3560   -6.3920 S.3        1 <1>        0.000
      2 S2          2.8253   -4.4822   -6.8316 S.3        1 <1>        0.000
      3 C1          2.1995   -3.1201   -5.8441 C.2        1 <1>        0.000
      4 C2          1.1702   -2.4049   -6.3225 C.2        1 <1>        0.000
      5 N1          0.5357   -1.3684   -5.7114 N.am       1 <1>        0.000
      6 C9         -0.4819   -0.6098   -6.1825 C.2        1 <1>        0.000
      7 O1         -0.9564    0.3642   -5.6227 O.2        1 <1>        0.000
      8 C20         5.2166   -2.8141   -7.2117 C.2        1 <1>        0.000
      9 C21         5.4958   -1.7464   -6.4504 C.2        1 <1>        0.000
     10 N5          5.8584   -0.5091   -6.8780 N.am       1 <1>        0.000
     11 C28         6.0695    0.6126   -6.1471 C.2        1 <1>        0.000
     12 O4          6.2782    1.7244   -6.6029 O.2        1 <1>        0.000
     13 H           2.6451   -2.8798   -4.8788 H.spc      1 <1>        0.000
     14 H           0.8019   -2.6852   -7.3093 H.spc      1 <1>        0.000
     15 H           0.8699   -1.1321   -4.7771 H.spc      1 <1>        0.000
     16 H          -0.9132   -0.8934   -7.1425 H.spc      1 <1>        0.000
     17 H           5.2399   -2.7473   -8.2994 H.spc      1 <1>        0.000
     18 H           5.4241   -1.8863   -5.3718 H.spc      1 <1>        0.000
     19 H           5.9895   -0.4110   -7.8848 H.spc      1 <1>        0.000
     20 H           6.0512    0.5127   -5.0618 H.spc      1 <1>        0.000
@<TRIPOS>BOND
     1    6    7 2  
     2   10   11 am 
     3    9   10 1  
     4    8    9 2  
     5    5    6 am 
     6    4    5 1  
     7    1    2 1  
     8    1    8 1  
     9    2    3 1  
    10    3    4 2  
    11   11   12 2  
    12    3   13 1  
    13    4   14 1  
    14    5   15 1  
    15    6   16 1  
    16    8   17 1  
    17    9   18 1  
    18   10   19 1  
    19   11   20 1  
# Name:          frag3-195-6/31924
# Creation time: Sat Jun  5 12:52:11 2010


@<TRIPOS>MOLECULE
frag3-195-6/31924
   20    19     1     1     1
SMALL
USER_CHARGES


@<TRIPOS>ATOM
      1 S1          2.8673   -3.7675   -5.7815 S.3        1 <1>        0.000
      2 S2          4.2024   -3.3058   -7.2386 S.3        1 <1>        0.000
      3 C1          4.9884   -1.8726   -6.5008 C.2        1 <1>        0.000
      4 C2          6.1529   -1.4460   -7.0115 C.2        1 <1>        0.000
      5 N1          6.8776   -0.3651   -6.6187 N.am       1 <1>        0.000
      6 C9          8.0444    0.0968   -7.1266 C.2        1 <1>        0.000
      7 O1          8.6804    1.0428   -6.6936 O.2        1 <1>        0.000
      8 C20         1.7867   -2.3398   -5.8705 C.2        1 <1>        0.000
      9 C21         0.4622   -2.5397   -5.8163 C.2        1 <1>        0.000
     10 N5         -0.5113   -1.5938   -5.8371 N.am       1 <1>        0.000
     11 C28        -1.8564   -1.7590   -5.8333 C.2        1 <1>        0.000
     12 O4         -2.6799   -0.8602   -5.8686 O.2        1 <1>        0.000
     13 H           4.5297   -1.3593   -5.6557 H.spc      1 <1>        0.000
     14 H           6.5643   -2.0316   -7.8336 H.spc      1 <1>        0.000
     15 H           6.4917    0.1677   -5.8392 H.spc      1 <1>        0.000
     16 H           8.4496   -0.4207   -7.9961 H.spc      1 <1>        0.000
     17 H           2.1964   -1.3343   -5.9663 H.spc      1 <1>        0.000
     18 H           0.1304   -3.5757   -5.7480 H.spc      1 <1>        0.000
     19 H          -0.1861   -0.6273   -5.8585 H.spc      1 <1>        0.000
     20 H          -2.2339   -2.7809   -5.7955 H.spc      1 <1>        0.000
@<TRIPOS>BOND
     1    6    7 2  
     2   10   11 am 
     3    9   10 1  
     4    8    9 2  
     5    5    6 am 
     6    4    5 1  
     7    1    2 1  
     8    1    8 1  
     9    2    3 1  
    10    3    4 2  
    11   11   12 2  
    12    3   13 1  
    13    4   14 1  
    14    5   15 1  
    15    6   16 1  
    16    8   17 1  
    17    9   18 1  
    18   10   19 1  
    19   11   20 1  
# Name:          frag3-195-6/31924
# Creation time: Sat Jun  5 12:52:11 2010


@<TRIPOS>MOLECULE
frag3-195-6/31924
   20    19     1     1     1
SMALL
USER_CHARGES


@<TRIPOS>ATOM
      1 S1          3.0665   -3.8219   -5.8377 S.3        1 <1>        0.000
      2 S2          4.4401   -3.6572   -7.3216 S.3        1 <1>        0.000
      3 C1          5.7455   -2.7944   -6.4474 C.2        1 <1>        0.000
      4 C2          6.0078   -1.5214   -6.7775 C.2        1 <1>        0.000
      5 N1          6.9245   -0.6944   -6.2098 N.am       1 <1>        0.000
      6 C9          7.1968    0.5967   -6.5122 C.2        1 <1>        0.000
      7 O1          6.6236    1.2628   -7.3577 O.2        1 <1>        0.000
      8 C20         2.0733   -2.3642   -6.1531 C.2        1 <1>        0.000
      9 C21         0.7760   -2.3912   -5.8171 C.2        1 <1>        0.000
     10 N5         -0.1266   -1.3863   -5.9464 N.am       1 <1>        0.000
     11 C28        -1.4715   -1.4254   -5.7845 C.2        1 <1>        0.000
     12 O4         -2.2415   -0.5127   -6.0320 O.2        1 <1>        0.000
     13 H           6.3145   -3.2942   -5.6635 H.spc      1 <1>        0.000
     14 H           5.4190   -1.1026   -7.5936 H.spc      1 <1>        0.000
     15 H           7.4805   -1.0997   -5.4568 H.spc      1 <1>        0.000
     16 H           7.9963    1.0821   -5.9524 H.spc      1 <1>        0.000
     17 H           2.5136   -1.4766   -6.6074 H.spc      1 <1>        0.000
     18 H           0.4048   -3.3241   -5.3928 H.spc      1 <1>        0.000
     19 H           0.2600   -0.4772   -6.2001 H.spc      1 <1>        0.000
     20 H          -1.9012   -2.3507   -5.4007 H.spc      1 <1>        0.000
@<TRIPOS>BOND
     1    6    7 2  
     2   10   11 am 
     3    9   10 1  
     4    8    9 2  
     5    5    6 am 
     6    4    5 1  
     7    1    2 1  
     8    1    8 1  
     9    2    3 1  
    10    3    4 2  
    11   11   12 2  
    12    3   13 1  
    13    4   14 1  
    14    5   15 1  
    15    6   16 1  
    16    8   17 1  
    17    9   18 1  
    18   10   19 1  
    19   11   20 1  
# Name:          frag3-195-6/31924
# Creation time: Sat Jun  5 12:52:11 2010


@<TRIPOS>MOLECULE
frag3-195-6/31924
   20    19     1     1     1
SMALL
USER_CHARGES


@<TRIPOS>ATOM
      1 S1          2.7744   -2.2762   -7.0495 S.3        1 <1>        0.000
      2 S2          4.1757   -2.3832   -5.5894 S.3        1 <1>        0.000
      3 C1          5.4753   -1.3955   -6.3202 C.2        1 <1>        0.000
      4 C2          6.7454   -1.6270   -5.9599 C.2        1 <1>        0.000
      5 N1          7.8624   -1.0148   -6.4277 N.am       1 <1>        0.000
      6 C9          7.9648   -0.0594   -7.3814 C.2        1 <1>        0.000
      7 O1          9.0060    0.3984   -7.8199 O.2        1 <1>        0.000
      8 C20         1.3689   -1.6884   -6.1135 C.2        1 <1>        0.000
      9 C21         0.1589   -2.1965   -6.3834 C.2        1 <1>        0.000
     10 N5         -1.0133   -1.9063   -5.7683 N.am       1 <1>        0.000
     11 C28        -2.2535   -2.3870   -6.0262 C.2        1 <1>        0.000
     12 O4         -3.2506   -2.1741   -5.3575 O.2        1 <1>        0.000
     13 H           5.2384   -0.6181   -7.0466 H.spc      1 <1>        0.000
     14 H           6.8988   -2.3964   -5.2032 H.spc      1 <1>        0.000
     15 H           8.7411   -1.3140   -6.0049 H.spc      1 <1>        0.000
     16 H           7.0356    0.3347   -7.7929 H.spc      1 <1>        0.000
     17 H           1.4940   -0.9319   -5.3388 H.spc      1 <1>        0.000
     18 H           0.1119   -2.9274   -7.1906 H.spc      1 <1>        0.000
     19 H          -0.9536   -1.2323   -5.0051 H.spc      1 <1>        0.000
     20 H          -2.3699   -3.0183   -6.9071 H.spc      1 <1>        0.000
@<TRIPOS>BOND
     1    6    7 2  
     2   10   11 am 
     3    9   10 1  
     4    8    9 2  
     5    5    6 am 
     6    4    5 1  
     7    1    2 1  
     8    1    8 1  
     9    2    3 1  
    10    3    4 2  
    11   11   12 2  
    12    3   13 1  
    13    4   14 1  
    14    5   15 1  
    15    6   16 1  
    16    8   17 1  
    17    9   18 1  
    18   10   19 1  
    19   11   20 1  
# Name:          frag3-195-6/31924
# Creation time: Sat Jun  5 12:52:11 2010


@<TRIPOS>MOLECULE
frag3-195-6/31924
   20    19     1     1     1
SMALL
USER_CHARGES


@<TRIPOS>ATOM
      1 S1          3.0531   -3.9116   -6.9711 S.3        1 <1>        0.000
      2 S2          4.6463   -3.9560   -5.7137 S.3        1 <1>        0.000
      3 C1          4.9873   -2.1990   -5.5792 C.2        1 <1>        0.000
      4 C2          5.8585   -1.6489   -6.4377 C.2        1 <1>        0.000
      5 N1          6.2169   -0.3394   -6.5190 N.am       1 <1>        0.000
      6 C9          7.0301    0.2558   -7.4231 C.2        1 <1>        0.000
      7 O1          7.4634    1.3930   -7.3444 O.2        1 <1>        0.000
      8 C20         1.8209   -3.1654   -5.9016 C.2        1 <1>        0.000
      9 C21         0.9247   -2.3331   -6.4511 C.2        1 <1>        0.000
     10 N5         -0.0971   -1.6985   -5.8201 N.am       1 <1>        0.000
     11 C28        -1.0005   -0.8279   -6.3327 C.2        1 <1>        0.000
     12 O4         -1.8892   -0.2790   -5.7032 O.2        1 <1>        0.000
     13 H           4.4975   -1.5929   -4.8171 H.spc      1 <1>        0.000
     14 H           6.3316   -2.3261   -7.1488 H.spc      1 <1>        0.000
     15 H           5.8217    0.2739   -5.8062 H.spc      1 <1>        0.000
     16 H           7.3220   -0.3306   -8.2943 H.spc      1 <1>        0.000
     17 H           1.8014   -3.3828   -4.8337 H.spc      1 <1>        0.000
     18 H           1.0272   -2.1454   -7.5199 H.spc      1 <1>        0.000
     19 H          -0.1982   -1.9050   -4.8264 H.spc      1 <1>        0.000
     20 H          -0.9266   -0.5993   -7.3959 H.spc      1 <1>        0.000
@<TRIPOS>BOND
     1    6    7 2  
     2   10   11 am 
     3    9   10 1  
     4    8    9 2  
     5    5    6 am 
     6    4    5 1  
     7    1    2 1  
     8    1    8 1  
     9    2    3 1  
    10    3    4 2  
    11   11   12 2  
    12    3   13 1  
    13    4   14 1  
    14    5   15 1  
    15    6   16 1  
    16    8   17 1  
    17    9   18 1  
    18   10   19 1  
    19   11   20 1  
# Name:          frag3-195-6/31924
# Creation time: Sat Jun  5 12:52:11 2010


@<TRIPOS>MOLECULE
frag3-195-6/31924
   20    19     1     1     1
SMALL
USER_CHARGES


@<TRIPOS>ATOM
      1 S1          3.7819   -3.5125   -7.4271 S.3        1 <1>        0.000
      2 S2          3.1522   -4.0536   -5.5760 S.3        1 <1>        0.000
      3 C1          2.1340   -2.6379   -5.1634 C.2        1 <1>        0.000
      4 C2          0.9902   -2.4502   -5.8380 C.2        1 <1>        0.000
      5 N1          0.0725   -1.4667   -5.6482 N.am       1 <1>        0.000
      6 C9         -1.0719   -1.2367   -6.3339 C.2        1 <1>        0.000
      7 O1         -1.8828   -0.3601   -6.0869 O.2        1 <1>        0.000
      8 C20         5.3640   -2.7735   -7.0275 C.2        1 <1>        0.000
      9 C21         5.4757   -1.4386   -7.0750 C.2        1 <1>        0.000
     10 N5          6.5713   -0.6949   -6.7799 N.am       1 <1>        0.000
     11 C28         6.7040    0.6536   -6.7605 C.2        1 <1>        0.000
     12 O4          7.7236    1.2612   -6.4805 O.2        1 <1>        0.000
     13 H           2.4381   -1.9435   -4.3802 H.spc      1 <1>        0.000
     14 H           0.7721   -3.1684   -6.6284 H.spc      1 <1>        0.000
     15 H           0.2720   -0.8156   -4.8888 H.spc      1 <1>        0.000
     16 H          -1.2868   -1.8909   -7.1789 H.spc      1 <1>        0.000
     17 H           6.2161   -3.3949   -6.7521 H.spc      1 <1>        0.000
     18 H           4.5869   -0.8892   -7.3854 H.spc      1 <1>        0.000
     19 H           7.4101   -1.2232   -6.5397 H.spc      1 <1>        0.000
     20 H           5.8251    1.2452   -7.0168 H.spc      1 <1>        0.000
@<TRIPOS>BOND
     1    6    7 2  
     2   10   11 am 
     3    9   10 1  
     4    8    9 2  
     5    5    6 am 
     6    4    5 1  
     7    1    2 1  
     8    1    8 1  
     9    2    3 1  
    10    3    4 2  
    11   11   12 2  
    12    3   13 1  
    13    4   14 1  
    14    5   15 1  
    15    6   16 1  
    16    8   17 1  
    17    9   18 1  
    18   10   19 1  
    19   11   20 1  
# Name:          frag3-195-6/31924
# Creation time: Sat Jun  5 12:52:11 2010


@<TRIPOS>MOLECULE
frag3-195-6/31924
   20    19     1     1     1
SMALL
USER_CHARGES


@<TRIPOS>ATOM
      1 S1          3.1547   -1.8490   -5.1587 S.3        1 <1>        0.000
      2 S2          4.0486   -3.2301   -6.3462 S.3        1 <1>        0.000
      3 C1          5.1276   -2.1682   -7.3060 C.2        1 <1>        0.000
      4 C2          6.1594   -1.5743   -6.6887 C.2        1 <1>        0.000
      5 N1          7.1025   -0.7710   -7.2469 N.am       1 <1>        0.000
      6 C9          8.0763   -0.0601   -6.6315 C.2        1 <1>        0.000
      7 O1          8.9008    0.6439   -7.1897 O.2        1 <1>        0.000
      8 C20         1.6545   -1.5445   -6.0902 C.2        1 <1>        0.000
      9 C21         0.4925   -1.9884   -5.5907 C.2        1 <1>        0.000
     10 N5         -0.7445   -1.8318   -6.1262 N.am       1 <1>        0.000
     11 C28        -1.9338   -2.2920   -5.6678 C.2        1 <1>        0.000
     12 O4         -3.0242   -2.0443   -6.1545 O.2        1 <1>        0.000
     13 H           4.9488   -2.0085   -8.3693 H.spc      1 <1>        0.000
     14 H           6.2520   -1.7566   -5.6180 H.spc      1 <1>        0.000
     15 H           7.0728   -0.6935   -8.2635 H.spc      1 <1>        0.000
     16 H           8.1278   -0.1222   -5.5445 H.spc      1 <1>        0.000
     17 H           1.6861   -1.0111   -7.0402 H.spc      1 <1>        0.000
     18 H           0.5473   -2.5360   -4.6498 H.spc      1 <1>        0.000
     19 H          -0.7846   -1.2942   -6.9921 H.spc      1 <1>        0.000
     20 H          -1.9142   -2.9380   -4.7901 H.spc      1 <1>        0.000
@<TRIPOS>BOND
     1    6    7 2  
     2   10   11 am 
     3    9   10 1  
     4    8    9 2  
     5    5    6 am 
     6    4    5 1  
     7    1    2 1  
     8    1    8 1  
     9    2    3 1  
    10    3    4 2  
    11   11   12 2  
    12    3   13 1  
    13    4   14 1  
    14    5   15 1  
    15    6   16 1  
    16    8   17 1  
    17    9   18 1  
    18   10   19 1  
    19   11   20 1  
# Name:          frag3-195-6/31924
# Creation time: Sat Jun  5 12:52:11 2010


@<TRIPOS>MOLECULE
frag3-195-6/31924
   20    19     1     1     1
SMALL
USER_CHARGES


@<TRIPOS>ATOM
      1 S1          2.7335   -4.2211   -6.7957 S.3        1 <1>        0.000
      2 S2          4.6956   -4.0204   -6.3218 S.3        1 <1>        0.000
      3 C1          5.1296   -2.6258   -7.3599 C.2        1 <1>        0.000
      4 C2          5.5903   -1.5090   -6.7780 C.2        1 <1>        0.000
      5 N1          6.0038   -0.3693   -7.3913 N.am       1 <1>        0.000
      6 C9          6.4757    0.7677   -6.8283 C.2        1 <1>        0.000
      7 O1          6.6387    0.9527   -5.6340 O.2        1 <1>        0.000
      8 C20         1.9939   -3.1306   -5.5822 C.2        1 <1>        0.000
      9 C21         1.0176   -2.3023   -5.9786 C.2        1 <1>        0.000
     10 N5          0.3178   -1.4301   -5.2100 N.am       1 <1>        0.000
     11 C28        -0.6388   -0.5459   -5.5837 C.2        1 <1>        0.000
     12 O4         -0.9432   -0.2759   -6.7334 O.2        1 <1>        0.000
     13 H           5.0213   -2.6841   -8.4429 H.spc      1 <1>        0.000
     14 H           5.6385   -1.5163   -5.6891 H.spc      1 <1>        0.000
     15 H           5.9518   -0.3706   -8.4100 H.spc      1 <1>        0.000
     16 H           6.7317    1.5875   -7.4995 H.spc      1 <1>        0.000
     17 H           2.3301   -3.1404   -4.5454 H.spc      1 <1>        0.000
     18 H           0.7566   -2.3327   -7.0365 H.spc      1 <1>        0.000
     19 H           0.5424   -1.4415   -4.2151 H.spc      1 <1>        0.000
     20 H          -1.1818   -0.0329   -4.7900 H.spc      1 <1>        0.000
@<TRIPOS>BOND
     1    6    7 2  
     2   10   11 am 
     3    9   10 1  
     4    8    9 2  
     5    5    6 am 
     6    4    5 1  
     7    1    2 1  
     8    1    8 1  
     9    2    3 1  
    10    3    4 2  
    11   11   12 2  
    12    3   13 1  
    13    4   14 1  
    14    5   15 1  
    15    6   16 1  
    16    8   17 1  
    17    9   18 1  
    18   10   19 1  
    19   11   20 1  
# Name:          frag3-195-6/31924
# Creation time: Sat Jun  5 12:52:11 2010


@<TRIPOS>MOLECULE
frag3-195-6/31924
   20    19     1     1     1
SMALL
USER_CHARGES


@<TRIPOS>ATOM
      1 S1          2.7750   -4.4263   -5.5348 S.3        1 <1>        0.000
      2 S2          4.4004   -4.2719   -6.7388 S.3        1 <1>        0.000
      3 C1          5.1936   -2.8372   -6.0150 C.2        1 <1>        0.000
      4 C2          5.2771   -1.7132   -6.7415 C.2        1 <1>        0.000
      5 N1          5.8025   -0.5204   -6.3583 N.am       1 <1>        0.000
      6 C9          5.9276    0.6176   -7.0807 C.2        1 <1>        0.000
      7 O1          6.3688    1.6761   -6.6662 O.2        1 <1>        0.000
      8 C20         1.5627   -3.5408   -6.5124 C.2        1 <1>        0.000
      9 C21         1.1970   -2.3133   -6.1172 C.2        1 <1>        0.000
     10 N5          0.3241   -1.4777   -6.7346 N.am       1 <1>        0.000
     11 C28        -0.0947   -0.2485   -6.3471 C.2        1 <1>        0.000
     12 O4          0.2804    0.3457   -5.3502 O.2        1 <1>        0.000
     13 H           5.6001   -2.8774   -5.0044 H.spc      1 <1>        0.000
     14 H           4.8781   -1.7621   -7.7547 H.spc      1 <1>        0.000
     15 H           6.1484   -0.4765   -5.3997 H.spc      1 <1>        0.000
     16 H           5.6065    0.5849   -8.1218 H.spc      1 <1>        0.000
     17 H           1.1325   -3.9897   -7.4077 H.spc      1 <1>        0.000
     18 H           1.6514   -1.9453   -5.1973 H.spc      1 <1>        0.000
     19 H          -0.0707   -1.8218   -7.6099 H.spc      1 <1>        0.000
     20 H          -0.8285    0.2512   -6.9795 H.spc      1 <1>        0.000
@<TRIPOS>BOND
     1    6    7 2  
     2   10   11 am 
     3    9   10 1  
     4    8    9 2  
     5    5    6 am 
     6    4    5 1  
     7    1    2 1  
     8    1    8 1  
     9    2    3 1  
    10    3    4 2  
    11   11   12 2  
    12    3   13 1  
    13    4   14 1  
    14    5   15 1  
    15    6   16 1  
    16    8   17 1  
    17    9   18 1  
    18   10   19 1  
    19   11   20 1  
# Name:          frag3-195-6/31924
# Creation time: Sat Jun  5 12:52:11 2010


@<TRIPOS>MOLECULE
frag3-195-6/31924
   20    19     1     1     1
SMALL
USER_CHARGES


@<TRIPOS>ATOM
      1 S1          2.9008   -4.3185   -7.4963 S.3        1 <1>        0.000
      2 S2          4.3464   -4.0110   -6.1102 S.3        1 <1>        0.000
      3 C1          4.9222   -2.3912   -6.5989 C.2        1 <1>        0.000
      4 C2          5.5780   -1.6365   -5.7067 C.2        1 <1>        0.000
      5 N1          6.1195   -0.4084   -5.8994 N.am       1 <1>        0.000
      6 C9          6.0641    0.3756   -7.0018 C.2        1 <1>        0.000
      7 O1          6.6212    1.4512   -7.1388 O.2        1 <1>        0.000
      8 C20         1.4769   -3.6699   -6.6334 C.2        1 <1>        0.000
      9 C21         1.3255   -2.3406   -6.5471 C.2        1 <1>        0.000
     10 N5          0.3090   -1.6611   -5.9650 N.am       1 <1>        0.000
     11 C28         0.1419   -0.3233   -5.8312 C.2        1 <1>        0.000
     12 O4         -0.7910    0.2238   -5.2680 O.2        1 <1>        0.000
     13 H           4.7424   -2.0223   -7.6087 H.spc      1 <1>        0.000
     14 H           5.6893   -2.0597   -4.7084 H.spc      1 <1>        0.000
     15 H           6.6373   -0.0243   -5.1090 H.spc      1 <1>        0.000
     16 H           5.4693    0.0133   -7.8403 H.spc      1 <1>        0.000
     17 H           0.7452   -4.3423   -6.1856 H.spc      1 <1>        0.000
     18 H           2.1125   -1.7362   -6.9981 H.spc      1 <1>        0.000
     19 H          -0.4353   -2.2374   -5.5721 H.spc      1 <1>        0.000
     20 H           0.9079    0.3198   -6.2646 H.spc      1 <1>        0.000
@<TRIPOS>BOND
     1    6    7 2  
     2   10   11 am 
     3    9   10 1  
     4    8    9 2  
     5    5    6 am 
     6    4    5 1  
     7    1    2 1  
     8    1    8 1  
     9    2    3 1  
    10    3    4 2  
    11   11   12 2  
    12    3   13 1  
    13    4   14 1  
    14    5   15 1  
    15    6   16 1  
    16    8   17 1  
    17    9   18 1  
    18   10   19 1  
    19   11   20 1  
# Name:          frag3-195-6/31924
# Creation time: Sat Jun  5 12:52:11 2010


@<TRIPOS>MOLECULE
frag3-195-6/31924
   20    19     1     1     1
SMALL
USER_CHARGES


@<TRIPOS>ATOM
      1 S1          2.8676   -3.3602   -7.3208 S.3        1 <1>        0.000
      2 S2          4.3811   -3.4333   -5.9747 S.3        1 <1>        0.000
      3 C1          5.4571   -2.1665   -6.6369 C.2        1 <1>        0.000
      4 C2          5.9562   -1.2407   -5.8057 C.2        1 <1>        0.000
      5 N1          6.8113   -0.2317   -6.1094 N.am       1 <1>        0.000
      6 C9          7.5784   -0.0794   -7.2144 C.2        1 <1>        0.000
      7 O1          8.3745    0.8235   -7.4079 O.2        1 <1>        0.000
      8 C20         1.8187   -2.1229   -6.5670 C.2        1 <1>        0.000
      9 C21         0.5112   -2.3837   -6.4340 C.2        1 <1>        0.000
     10 N5         -0.4333   -1.5952   -5.8657 N.am       1 <1>        0.000
     11 C28        -1.7484   -1.8507   -5.6632 C.2        1 <1>        0.000
     12 O4         -2.5599   -1.0690   -5.1972 O.2        1 <1>        0.000
     13 H           5.7028   -2.1478   -7.6987 H.spc      1 <1>        0.000
     14 H           5.6383   -1.3060   -4.7651 H.spc      1 <1>        0.000
     15 H           6.8859    0.5099   -5.4131 H.spc      1 <1>        0.000
     16 H           7.4754   -0.8289   -7.9991 H.spc      1 <1>        0.000
     17 H           2.2347   -1.1760   -6.2228 H.spc      1 <1>        0.000
     18 H           0.1676   -3.3401   -6.8282 H.spc      1 <1>        0.000
     19 H          -0.1090   -0.6825   -5.5460 H.spc      1 <1>        0.000
     20 H          -2.1122   -2.8400   -5.9407 H.spc      1 <1>        0.000
@<TRIPOS>BOND
     1    6    7 2  
     2   10   11 am 
     3    9   10 1  
     4    8    9 2  
     5    5    6 am 
     6    4    5 1  
     7    1    2 1  
     8    1    8 1  
     9    2    3 1  
    10    3    4 2  
    11   11   12 2  
    12    3   13 1  
    13    4   14 1  
    14    5   15 1  
    15    6   16 1  
    16    8   17 1  
    17    9   18 1  
    18   10   19 1  
    19   11   20 1  
# Name:          frag3-195-6/31924
# Creation time: Sat Jun  5 12:52:11 2010


@<TRIPOS>MOLECULE
frag3-195-6/31924
   20    19     1     1     1
SMALL
USER_CHARGES


@<TRIPOS>ATOM
      1 S1          2.7607   -2.9366   -5.0857 S.3        1 <1>        0.000
      2 S2          4.3486   -3.4402   -6.2420 S.3        1 <1>        0.000
      3 C1          5.4958   -2.1423   -5.7877 C.2        1 <1>        0.000
      4 C2          6.1892   -1.5261   -6.7556 C.2        1 <1>        0.000
      5 N1          7.0702   -0.5020   -6.6168 N.am       1 <1>        0.000
      6 C9          7.8050    0.1151   -7.5714 C.2        1 <1>        0.000
      7 O1          8.5438    1.0686   -7.3929 O.2        1 <1>        0.000
      8 C20         1.5450   -2.5637   -6.3458 C.2        1 <1>        0.000
      9 C21         0.3343   -2.1374   -5.9613 C.2        1 <1>        0.000
     10 N5         -0.7028   -1.7781   -6.7586 N.am       1 <1>        0.000
     11 C28        -1.9671   -1.4388   -6.4081 C.2        1 <1>        0.000
     12 O4         -2.4081   -1.4284   -5.2710 O.2        1 <1>        0.000
     13 H           5.6278   -1.8586   -4.7436 H.spc      1 <1>        0.000
     14 H           6.0272   -1.8888   -7.7706 H.spc      1 <1>        0.000
     15 H           7.1947   -0.1513   -5.6671 H.spc      1 <1>        0.000
     16 H           7.7299   -0.2737   -8.5869 H.spc      1 <1>        0.000
     17 H           1.7844   -2.6809   -7.4027 H.spc      1 <1>        0.000
     18 H           0.1634   -2.0719   -4.8868 H.spc      1 <1>        0.000
     19 H          -0.5037   -1.7610   -7.7588 H.spc      1 <1>        0.000
     20 H          -2.6471   -1.1510   -7.2099 H.spc      1 <1>        0.000
@<TRIPOS>BOND
     1    6    7 2  
     2   10   11 am 
     3    9   10 1  
     4    8    9 2  
     5    5    6 am 
     6    4    5 1  
     7    1    2 1  
     8    1    8 1  
     9    2    3 1  
    10    3    4 2  
    11   11   12 2  
    12    3   13 1  
    13    4   14 1  
    14    5   15 1  
    15    6   16 1  
    16    8   17 1  
    17    9   18 1  
    18   10   19 1  
    19   11   20 1  
# Name:          frag3-195-6/31924
# Creation time: Sat Jun  5 12:52:11 2010


@<TRIPOS>MOLECULE
frag3-195-6/31924
   20    19     1     1     1
SMALL
USER_CHARGES


@<TRIPOS>ATOM
      1 S1          4.2744   -3.5507   -5.4300 S.3        1 <1>        0.000
      2 S2          3.1207   -3.2429   -7.0680 S.3        1 <1>        0.000
      3 C1          1.6572   -2.5565   -6.3037 C.2        1 <1>        0.000
      4 C2          0.6154   -2.2233   -7.0780 C.2        1 <1>        0.000
      5 N1         -0.5848   -1.7294   -6.6834 N.am       1 <1>        0.000
      6 C9         -1.0237   -1.4810   -5.4270 C.2        1 <1>        0.000
      7 O1         -2.0659   -0.9196   -5.1357 O.2        1 <1>        0.000
      8 C20         5.1125   -1.9754   -5.3216 C.2        1 <1>        0.000
      9 C21         5.8839   -1.5867   -6.3473 C.2        1 <1>        0.000
     10 N5          6.5707   -0.4255   -6.4695 N.am       1 <1>        0.000
     11 C28         7.4091   -0.0297   -7.4574 C.2        1 <1>        0.000
     12 O4          8.0449    1.0107   -7.4753 O.2        1 <1>        0.000
     13 H           1.6131   -2.4113   -5.2243 H.spc      1 <1>        0.000
     14 H           0.7480   -2.3658   -8.1505 H.spc      1 <1>        0.000
     15 H          -1.2438   -1.5171   -7.4324 H.spc      1 <1>        0.000
     16 H          -0.3900   -1.8118   -4.6042 H.spc      1 <1>        0.000
     17 H           4.9989   -1.3441   -4.4403 H.spc      1 <1>        0.000
     18 H           5.9680   -2.2861   -7.1791 H.spc      1 <1>        0.000
     19 H           6.4381    0.2445   -5.7119 H.spc      1 <1>        0.000
     20 H           7.5253   -0.6990   -8.3098 H.spc      1 <1>        0.000
@<TRIPOS>BOND
     1    6    7 2  
     2   10   11 am 
     3    9   10 1  
     4    8    9 2  
     5    5    6 am 
     6    4    5 1  
     7    1    2 1  
     8    1    8 1  
     9    2    3 1  
    10    3    4 2  
    11   11   12 2  
    12    3   13 1  
    13    4   14 1  
    14    5   15 1  
    15    6   16 1  
    16    8   17 1  
    17    9   18 1  
    18   10   19 1  
    19   11   20 1  
# Name:          frag3-195-6/31924
# Creation time: Sat Jun  5 12:52:11 2010


@<TRIPOS>MOLECULE
frag3-195-6/31924
   20    19     1     1     1
SMALL
USER_CHARGES


@<TRIPOS>ATOM
      1 S1          2.8278   -3.9935   -5.8113 S.3        1 <1>        0.000
      2 S2          4.0229   -3.3761   -7.3264 S.3        1 <1>        0.000
      3 C1          5.2001   -2.3799   -6.4219 C.2        1 <1>        0.000
      4 C2          5.8268   -1.3791   -7.0553 C.2        1 <1>        0.000
      5 N1          6.7169   -0.4973   -6.5356 N.am       1 <1>        0.000
      6 C9          7.4555    0.4380   -7.1771 C.2        1 <1>        0.000
      7 O1          8.2489    1.2008   -6.6525 O.2        1 <1>        0.000
      8 C20         1.3455   -3.0578   -6.1587 C.2        1 <1>        0.000
      9 C21         0.7673   -2.3721   -5.1633 C.2        1 <1>        0.000
     10 N5         -0.3333   -1.5854   -5.2350 N.am       1 <1>        0.000
     11 C28        -1.0034   -1.1575   -6.3325 C.2        1 <1>        0.000
     12 O4         -2.0603   -0.5498   -6.3273 O.2        1 <1>        0.000
     13 H           5.4050   -2.5836   -5.3709 H.spc      1 <1>        0.000
     14 H           5.5937   -1.2594   -8.1133 H.spc      1 <1>        0.000
     15 H           6.8472   -0.5456   -5.5251 H.spc      1 <1>        0.000
     16 H           7.3301    0.5161   -8.2570 H.spc      1 <1>        0.000
     17 H           0.9195   -3.0451   -7.1619 H.spc      1 <1>        0.000
     18 H           1.2364   -2.4570   -4.1831 H.spc      1 <1>        0.000
     19 H          -0.7092   -1.2721   -4.3401 H.spc      1 <1>        0.000
     20 H          -0.5591   -1.3755   -7.3037 H.spc      1 <1>        0.000
@<TRIPOS>BOND
     1    6    7 2  
     2   10   11 am 
     3    9   10 1  
     4    8    9 2  
     5    5    6 am 
     6    4    5 1  
     7    1    2 1  
     8    1    8 1  
     9    2    3 1  
    10    3    4 2  
    11   11   12 2  
    12    3   13 1  
    13    4   14 1  
    14    5   15 1  
    15    6   16 1  
    16    8   17 1  
    17    9   18 1  
    18   10   19 1  
    19   11   20 1  
# Name:          frag3-195-6/31924
# Creation time: Sat Jun  5 12:52:11 2010


@<TRIPOS>MOLECULE
frag3-195-6/31924
   20    19     1     1     1
SMALL
USER_CHARGES


@<TRIPOS>ATOM
      1 S1          2.6492   -3.4360   -6.8804 S.3        1 <1>        0.000
      2 S2          4.4159   -3.4481   -5.8816 S.3        1 <1>        0.000
      3 C1          4.9521   -1.7615   -6.1729 C.2        1 <1>        0.000
      4 C2          6.2307   -1.5455   -6.5154 C.2        1 <1>        0.000
      5 N1          6.8135   -0.3536   -6.8117 N.am       1 <1>        0.000
      6 C9          8.1055   -0.1034   -7.1291 C.2        1 <1>        0.000
      7 O1          8.5713    0.9928   -7.3905 O.2        1 <1>        0.000
      8 C20         1.6942   -2.3388   -5.8321 C.2        1 <1>        0.000
      9 C21         0.3763   -2.2336   -6.0548 C.2        1 <1>        0.000
     10 N5         -0.5159   -1.4861   -5.3563 N.am       1 <1>        0.000
     11 C28        -1.8307   -1.2763   -5.6092 C.2        1 <1>        0.000
     12 O4         -2.4476   -1.7199   -6.5629 O.2        1 <1>        0.000
     13 H           4.2541   -0.9302   -6.0737 H.spc      1 <1>        0.000
     14 H           6.8745   -2.4238   -6.5613 H.spc      1 <1>        0.000
     15 H           6.1966    0.4584   -6.7923 H.spc      1 <1>        0.000
     16 H           8.7870   -0.9537   -7.1530 H.spc      1 <1>        0.000
     17 H           2.1730   -1.7716   -5.0339 H.spc      1 <1>        0.000
     18 H          -0.0225   -2.8118   -6.8883 H.spc      1 <1>        0.000
     19 H          -0.1464   -1.0187   -4.5284 H.spc      1 <1>        0.000
     20 H          -2.3831   -0.6592   -4.9006 H.spc      1 <1>        0.000
@<TRIPOS>BOND
     1    6    7 2  
     2   10   11 am 
     3    9   10 1  
     4    8    9 2  
     5    5    6 am 
     6    4    5 1  
     7    1    2 1  
     8    1    8 1  
     9    2    3 1  
    10    3    4 2  
    11   11   12 2  
    12    3   13 1  
    13    4   14 1  
    14    5   15 1  
    15    6   16 1  
    16    8   17 1  
    17    9   18 1  
    18   10   19 1  
    19   11   20 1  
# Name:          frag3-195-6/31924
# Creation time: Sat Jun  5 12:52:11 2010


@<TRIPOS>MOLECULE
frag3-195-6/31924
   20    19     1     1     1
SMALL
USER_CHARGES


@<TRIPOS>ATOM
      1 S1          2.8450   -3.3676   -7.3379 S.3        1 <1>        0.000
      2 S2          4.1974   -3.3003   -5.8334 S.3        1 <1>        0.000
      3 C1          5.1251   -1.8484   -6.2975 C.2        1 <1>        0.000
      4 C2          6.4528   -1.8352   -6.1173 C.2        1 <1>        0.000
      5 N1          7.3250   -0.8509   -6.4414 N.am       1 <1>        0.000
      6 C9          7.0654    0.3697   -6.9663 C.2        1 <1>        0.000
      7 O1          7.8927    1.2296   -7.2152 O.2        1 <1>        0.000
      8 C20         1.5396   -2.3617   -6.6549 C.2        1 <1>        0.000
      9 C21         0.2909   -2.8463   -6.6339 C.2        1 <1>        0.000
     10 N5         -0.8173   -2.2546   -6.1318 N.am       1 <1>        0.000
     11 C28        -0.9350   -1.0583   -5.5060 C.2        1 <1>        0.000
     12 O4         -1.9671   -0.5858   -5.0613 O.2        1 <1>        0.000
     13 H           4.6177   -0.9824   -6.7226 H.spc      1 <1>        0.000
     14 H           6.8827   -2.7234   -5.6542 H.spc      1 <1>        0.000
     15 H           8.3086   -1.0568   -6.2667 H.spc      1 <1>        0.000
     16 H           6.0239    0.6044   -7.1859 H.spc      1 <1>        0.000
     17 H           1.7546   -1.3684   -6.2609 H.spc      1 <1>        0.000
     18 H           0.1512   -3.8340   -7.0732 H.spc      1 <1>        0.000
     19 H          -1.6839   -2.7817   -6.2391 H.spc      1 <1>        0.000
     20 H          -0.0270   -0.4665   -5.3901 H.spc      1 <1>        0.000
@<TRIPOS>BOND
     1    6    7 2  
     2   10   11 am 
     3    9   10 1  
     4    8    9 2  
     5    5    6 am 
     6    4    5 1  
     7    1    2 1  
     8    1    8 1  
     9    2    3 1  
    10    3    4 2  
    11   11   12 2  
    12    3   13 1  
    13    4   14 1  
    14    5   15 1  
    15    6   16 1  
    16    8   17 1  
    17    9   18 1  
    18   10   19 1  
    19   11   20 1  
# Name:          frag3-195-6/31924
# Creation time: Sat Jun  5 12:52:11 2010


@<TRIPOS>MOLECULE
frag3-195-6/31924
   20    19     1     1     1
SMALL
USER_CHARGES


@<TRIPOS>ATOM
      1 S1          3.8310   -2.6125   -7.5402 S.3        1 <1>        0.000
      2 S2          2.9046   -3.4253   -5.9318 S.3        1 <1>        0.000
      3 C1          1.2407   -2.8203   -6.1813 C.2        1 <1>        0.000
      4 C2          0.5200   -2.4436   -5.1159 C.2        1 <1>        0.000
      5 N1         -0.7345   -1.9275   -5.1060 N.am       1 <1>        0.000
      6 C9         -1.5731   -1.7267   -6.1497 C.2        1 <1>        0.000
      7 O1         -2.6362   -1.1317   -6.1035 O.2        1 <1>        0.000
      8 C20         4.8433   -1.3722   -6.7451 C.2        1 <1>        0.000
      9 C21         6.1311   -1.2687   -7.0998 C.2        1 <1>        0.000
     10 N5          7.0455   -0.3817   -6.6383 N.am       1 <1>        0.000
     11 C28         8.3147   -0.1667   -7.0611 C.2        1 <1>        0.000
     12 O4          9.1274    0.5671   -6.5244 O.2        1 <1>        0.000
     13 H           0.8189   -2.7588   -7.1845 H.spc      1 <1>        0.000
     14 H           0.9977   -2.5663   -4.1439 H.spc      1 <1>        0.000
     15 H          -1.0935   -1.6546   -4.1911 H.spc      1 <1>        0.000
     16 H          -1.2715   -2.1323   -7.1154 H.spc      1 <1>        0.000
     17 H           4.4211   -0.7130   -5.9866 H.spc      1 <1>        0.000
     18 H           6.4841   -1.9805   -7.8460 H.spc      1 <1>        0.000
     19 H           6.7351    0.2062   -5.8647 H.spc      1 <1>        0.000
     20 H           8.6371   -0.6952   -7.9583 H.spc      1 <1>        0.000
@<TRIPOS>BOND
     1    6    7 2  
     2   10   11 am 
     3    9   10 1  
     4    8    9 2  
     5    5    6 am 
     6    4    5 1  
     7    1    2 1  
     8    1    8 1  
     9    2    3 1  
    10    3    4 2  
    11   11   12 2  
    12    3   13 1  
    13    4   14 1  
    14    5   15 1  
    15    6   16 1  
    16    8   17 1  
    17    9   18 1  
    18   10   19 1  
    19   11   20 1  
# Name:          frag3-195-6/31924
# Creation time: Sat Jun  5 12:52:11 2010


@<TRIPOS>MOLECULE
frag3-195-6/31924
   20    19     1     1     1
SMALL
USER_CHARGES


@<TRIPOS>ATOM
      1 S1          2.6619   -4.6673   -6.0239 S.3        1 <1>        0.000
      2 S2          4.2747   -4.1433   -7.1366 S.3        1 <1>        0.000
      3 C1          4.8380   -2.7102   -6.2210 C.2        1 <1>        0.000
      4 C2          5.3483   -1.6720   -6.8986 C.2        1 <1>        0.000
      5 N1          5.7897   -0.4918   -6.3919 N.am       1 <1>        0.000
      6 C9          6.3372    0.5573   -7.0492 C.2        1 <1>        0.000
      7 O1          6.6680    1.6167   -6.5443 O.2        1 <1>        0.000
      8 C20         1.5903   -3.2646   -6.3259 C.2        1 <1>        0.000
      9 C21         1.4265   -2.3625   -5.3480 C.2        1 <1>        0.000
     10 N5          0.6874   -1.2262   -5.3938 N.am       1 <1>        0.000
     11 C28         0.0565   -0.6644   -6.4536 C.2        1 <1>        0.000
     12 O4         -0.6641    0.3183   -6.4101 O.2        1 <1>        0.000
     13 H           4.7672   -2.6829   -5.1336 H.spc      1 <1>        0.000
     14 H           5.4168   -1.7885   -7.9802 H.spc      1 <1>        0.000
     15 H           5.6963   -0.3813   -5.3822 H.spc      1 <1>        0.000
     16 H           6.4959    0.4454   -8.1218 H.spc      1 <1>        0.000
     17 H           1.0827   -3.1470   -7.2833 H.spc      1 <1>        0.000
     18 H           1.9454   -2.5648   -4.4111 H.spc      1 <1>        0.000
     19 H           0.5935   -0.7261   -4.5098 H.spc      1 <1>        0.000
     20 H           0.2059   -1.1306   -7.4275 H.spc      1 <1>        0.000
@<TRIPOS>BOND
     1    6    7 2  
     2   10   11 am 
     3    9   10 1  
     4    8    9 2  
     5    5    6 am 
     6    4    5 1  
     7    1    2 1  
     8    1    8 1  
     9    2    3 1  
    10    3    4 2  
    11   11   12 2  
    12    3   13 1  
    13    4   14 1  
    14    5   15 1  
    15    6   16 1  
    16    8   17 1  
    17    9   18 1  
    18   10   19 1  
    19   11   20 1  
# Name:          frag3-195-6/31924
# Creation time: Sat Jun  5 12:52:11 2010


@<TRIPOS>MOLECULE
frag3-195-6/31924
   20    19     1     1     1
SMALL
USER_CHARGES


@<TRIPOS>ATOM
      1 S1          4.2416   -3.8276   -7.3890 S.3        1 <1>        0.000
      2 S2          3.1627   -4.0279   -5.6884 S.3        1 <1>        0.000
      3 C1          1.7495   -3.0120   -6.0754 C.2        1 <1>        0.000
      4 C2          1.2084   -2.2459   -5.1189 C.2        1 <1>        0.000
      5 N1          0.1672   -1.3879   -5.2308 N.am       1 <1>        0.000
      6 C9         -0.6117   -1.1393   -6.3099 C.2        1 <1>        0.000
      7 O1         -1.4875   -0.2944   -6.3787 O.2        1 <1>        0.000
      8 C20         5.3400   -2.5003   -6.9325 C.2        1 <1>        0.000
      9 C21         5.1278   -1.2762   -7.4353 C.2        1 <1>        0.000
     10 N5          5.8256   -0.1457   -7.1834 N.am       1 <1>        0.000
     11 C28         6.8488    0.0488   -6.3164 C.2        1 <1>        0.000
     12 O4          7.4421    1.0987   -6.1382 O.2        1 <1>        0.000
     13 H           1.3296   -3.0143   -7.0813 H.spc      1 <1>        0.000
     14 H           1.6615   -2.3227   -4.1305 H.spc      1 <1>        0.000
     15 H          -0.0609   -0.8579   -4.3897 H.spc      1 <1>        0.000
     16 H          -0.4402   -1.7495   -7.1967 H.spc      1 <1>        0.000
     17 H           6.1732   -2.6817   -6.2535 H.spc      1 <1>        0.000
     18 H           4.2933   -1.1806   -8.1300 H.spc      1 <1>        0.000
     19 H           5.5427    0.6741   -7.7203 H.spc      1 <1>        0.000
     20 H           7.1697   -0.8095   -5.7261 H.spc      1 <1>        0.000
@<TRIPOS>BOND
     1    6    7 2  
     2   10   11 am 
     3    9   10 1  
     4    8    9 2  
     5    5    6 am 
     6    4    5 1  
     7    1    2 1  
     8    1    8 1  
     9    2    3 1  
    10    3    4 2  
    11   11   12 2  
    12    3   13 1  
    13    4   14 1  
    14    5   15 1  
    15    6   16 1  
    16    8   17 1  
    17    9   18 1  
    18   10   19 1  
    19   11   20 1  
# Name:          frag3-195-6/31924
# Creation time: Sat Jun  5 12:52:11 2010


@<TRIPOS>MOLECULE
frag3-195-6/31924
   20    19     1     1     1
SMALL
USER_CHARGES


@<TRIPOS>ATOM
      1 S1          4.5541   -3.8151   -6.8303 S.3        1 <1>        0.000
      2 S2          2.7791   -3.9425   -5.8546 S.3        1 <1>        0.000
      3 C1          2.0731   -2.3494   -6.2793 C.2        1 <1>        0.000
      4 C2          0.7599   -2.1579   -6.0853 C.2        1 <1>        0.000
      5 N1          0.0523   -1.0189   -6.3075 N.am       1 <1>        0.000
      6 C9         -1.2671   -0.7933   -6.1050 C.2        1 <1>        0.000
      7 O1         -2.0612   -1.5970   -5.6464 O.2        1 <1>        0.000
      8 C20         5.3433   -2.5059   -5.8935 C.2        1 <1>        0.000
      9 C21         5.9059   -1.4921   -6.5666 C.2        1 <1>        0.000
     10 N5          6.5196   -0.4007   -6.0424 N.am       1 <1>        0.000
     11 C28         7.1256    0.6253   -6.6881 C.2        1 <1>        0.000
     12 O4          7.2298    0.7374   -7.8979 O.2        1 <1>        0.000
     13 H           2.6977   -1.5542   -6.6862 H.spc      1 <1>        0.000
     14 H           0.1971   -3.0113   -5.7071 H.spc      1 <1>        0.000
     15 H           0.5853   -0.2307   -6.6750 H.spc      1 <1>        0.000
     16 H          -1.6522    0.1901   -6.3748 H.spc      1 <1>        0.000
     17 H           5.3651   -2.5335   -4.8041 H.spc      1 <1>        0.000
     18 H           5.8661   -1.5507   -7.6543 H.spc      1 <1>        0.000
     19 H           6.5255   -0.3452   -5.0239 H.spc      1 <1>        0.000
     20 H           7.5560    1.4167   -6.0745 H.spc      1 <1>        0.000
@<TRIPOS>BOND
     1    6    7 2  
     2   10   11 am 
     3    9   10 1  
     4    8    9 2  
     5    5    6 am 
     6    4    5 1  
     7    1    2 1  
     8    1    8 1  
     9    2    3 1  
    10    3    4 2  
    11   11   12 2  
    12    3   13 1  
    13    4   14 1  
    14    5   15 1  
    15    6   16 1  
    16    8   17 1  
    17    9   18 1  
    18   10   19 1  
    19   11   20 1  
# Name:          frag3-195-6/31924
# Creation time: Sat Jun  5 12:52:12 2010


@<TRIPOS>MOLECULE
frag3-195-6/31924
   20    19     1     1     1
SMALL
USER_CHARGES


@<TRIPOS>ATOM
      1 S1          2.9144   -2.7413   -7.2094 S.3        1 <1>        0.000
      2 S2          4.4277   -2.9772   -5.8787 S.3        1 <1>        0.000
      3 C1          5.0993   -1.3152   -5.8684 C.2        1 <1>        0.000
      4 C2          6.3086   -1.1077   -6.4097 C.2        1 <1>        0.000
      5 N1          6.9652    0.0758   -6.5311 N.am       1 <1>        0.000
      6 C9          8.1762    0.3149   -7.0871 C.2        1 <1>        0.000
      7 O1          8.8914   -0.5203   -7.6144 O.2        1 <1>        0.000
      8 C20         1.4996   -2.8959   -6.1205 C.2        1 <1>        0.000
      9 C21         0.3735   -2.2434   -6.4413 C.2        1 <1>        0.000
     10 N5         -0.8043   -2.2586   -5.7675 N.am       1 <1>        0.000
     11 C28        -1.9016   -1.4860   -5.9560 C.2        1 <1>        0.000
     12 O4         -2.9354   -1.5551   -5.3129 O.2        1 <1>        0.000
     13 H           4.5365   -0.4904   -5.4313 H.spc      1 <1>        0.000
     14 H           6.8229   -1.9877   -6.7959 H.spc      1 <1>        0.000
     15 H           6.4822    0.8911   -6.1538 H.spc      1 <1>        0.000
     16 H           8.5431    1.3410   -7.0612 H.spc      1 <1>        0.000
     17 H           1.5535   -3.5060   -5.2188 H.spc      1 <1>        0.000
     18 H           0.4076   -1.6328   -7.3436 H.spc      1 <1>        0.000
     19 H          -0.8731   -2.9454   -5.0165 H.spc      1 <1>        0.000
     20 H          -1.8563   -0.7399   -6.7493 H.spc      1 <1>        0.000
@<TRIPOS>BOND
     1    6    7 2  
     2   10   11 am 
     3    9   10 1  
     4    8    9 2  
     5    5    6 am 
     6    4    5 1  
     7    1    2 1  
     8    1    8 1  
     9    2    3 1  
    10    3    4 2  
    11   11   12 2  
    12    3   13 1  
    13    4   14 1  
    14    5   15 1  
    15    6   16 1  
    16    8   17 1  
    17    9   18 1  
    18   10   19 1  
    19   11   20 1  
# Name:          frag3-195-6/31924
# Creation time: Sat Jun  5 12:52:12 2010


@<TRIPOS>MOLECULE
frag3-195-6/31924
   20    19     1     1     1
SMALL
USER_CHARGES


@<TRIPOS>ATOM
      1 S1          2.7861   -3.7667   -7.1854 S.3        1 <1>        0.000
      2 S2          4.5121   -3.8147   -6.1275 S.3        1 <1>        0.000
      3 C1          5.2873   -2.3128   -6.7048 C.2        1 <1>        0.000
      4 C2          5.9332   -1.5328   -5.8273 C.2        1 <1>        0.000
      5 N1          6.6084   -0.3846   -6.0790 N.am       1 <1>        0.000
      6 C9          6.7247    0.2881   -7.2481 C.2        1 <1>        0.000
      7 O1          7.3457    1.3237   -7.4151 O.2        1 <1>        0.000
      8 C20         1.6291   -3.2917   -5.9110 C.2        1 <1>        0.000
      9 C21         0.7476   -2.3166   -6.1673 C.2        1 <1>        0.000
     10 N5         -0.2204   -1.8397   -5.3475 N.am       1 <1>        0.000
     11 C28        -1.1240   -0.8571   -5.5784 C.2        1 <1>        0.000
     12 O4         -1.2152   -0.2048   -6.6056 O.2        1 <1>        0.000
     13 H           5.2357   -2.0343   -7.7573 H.spc      1 <1>        0.000
     14 H           5.9133   -1.8604   -4.7879 H.spc      1 <1>        0.000
     15 H           7.0932    0.0272   -5.2817 H.spc      1 <1>        0.000
     16 H           6.2185   -0.1334   -8.1165 H.spc      1 <1>        0.000
     17 H           1.6401   -3.7873   -4.9403 H.spc      1 <1>        0.000
     18 H           0.8169   -1.8519   -7.1509 H.spc      1 <1>        0.000
     19 H          -0.2764   -2.2816   -4.4299 H.spc      1 <1>        0.000
     20 H          -1.8292   -0.6300   -4.7789 H.spc      1 <1>        0.000
@<TRIPOS>BOND
     1    6    7 2  
     2   10   11 am 
     3    9   10 1  
     4    8    9 2  
     5    5    6 am 
     6    4    5 1  
     7    1    2 1  
     8    1    8 1  
     9    2    3 1  
    10    3    4 2  
    11   11   12 2  
    12    3   13 1  
    13    4   14 1  
    14    5   15 1  
    15    6   16 1  
    16    8   17 1  
    17    9   18 1  
    18   10   19 1  
    19   11   20 1  
# Name:          frag3-195-6/31924
# Creation time: Sat Jun  5 12:52:12 2010


@<TRIPOS>MOLECULE
frag3-195-6/31924
   20    19     1     1     1
SMALL
USER_CHARGES


@<TRIPOS>ATOM
      1 S1          3.3287   -4.1200   -7.0412 S.3        1 <1>        0.000
      2 S2          4.7461   -4.2992   -5.6003 S.3        1 <1>        0.000
      3 C1          5.1214   -2.5696   -5.3124 C.2        1 <1>        0.000
      4 C2          5.3961   -1.7883   -6.3671 C.2        1 <1>        0.000
      5 N1          5.6651   -0.4561   -6.3576 N.am       1 <1>        0.000
      6 C9          5.8672    0.3705   -7.4106 C.2        1 <1>        0.000
      7 O1          6.1899    1.5442   -7.3384 O.2        1 <1>        0.000
      8 C20         1.9940   -3.3917   -6.0919 C.2        1 <1>        0.000
      9 C21         1.4637   -2.2374   -6.5202 C.2        1 <1>        0.000
     10 N5          0.4350   -1.5502   -5.9618 N.am       1 <1>        0.000
     11 C28        -0.1055   -0.3685   -6.3466 C.2        1 <1>        0.000
     12 O4         -1.0873    0.1563   -5.8488 O.2        1 <1>        0.000
     13 H           5.1262   -2.1619   -4.3015 H.spc      1 <1>        0.000
     14 H           5.4046   -2.2766   -7.3416 H.spc      1 <1>        0.000
     15 H           5.7222   -0.0221   -5.4363 H.spc      1 <1>        0.000
     16 H           5.7298   -0.0487   -8.4074 H.spc      1 <1>        0.000
     17 H           1.6227   -3.8755   -5.1885 H.spc      1 <1>        0.000
     18 H           1.9076   -1.8027   -7.4158 H.spc      1 <1>        0.000
     19 H           0.0110   -1.9820   -5.1407 H.spc      1 <1>        0.000
     20 H           0.3779    0.1570   -7.1702 H.spc      1 <1>        0.000
@<TRIPOS>BOND
     1    6    7 2  
     2   10   11 am 
     3    9   10 1  
     4    8    9 2  
     5    5    6 am 
     6    4    5 1  
     7    1    2 1  
     8    1    8 1  
     9    2    3 1  
    10    3    4 2  
    11   11   12 2  
    12    3   13 1  
    13    4   14 1  
    14    5   15 1  
    15    6   16 1  
    16    8   17 1  
    17    9   18 1  
    18   10   19 1  
    19   11   20 1  
# Name:          frag3-195-6/31924
# Creation time: Sat Jun  5 12:52:12 2010


@<TRIPOS>MOLECULE
frag3-195-6/31924
   20    19     1     1     1
SMALL
USER_CHARGES


@<TRIPOS>ATOM
      1 S1          3.1561   -4.5212   -6.8903 S.3        1 <1>        0.000
      2 S2          5.0555   -4.3264   -6.2047 S.3        1 <1>        0.000
      3 C1          5.5582   -2.8492   -7.0863 C.2        1 <1>        0.000
      4 C2          5.1511   -1.6566   -6.6275 C.2        1 <1>        0.000
      5 N1          5.4554   -0.4317   -7.1307 N.am       1 <1>        0.000
      6 C9          5.1241    0.7866   -6.6421 C.2        1 <1>        0.000
      7 O1          4.4980    0.9926   -5.6161 O.2        1 <1>        0.000
      8 C20         2.3077   -3.3530   -5.8293 C.2        1 <1>        0.000
      9 C21         1.6883   -2.3084   -6.3966 C.2        1 <1>        0.000
     10 N5          0.9723   -1.3400   -5.7718 N.am       1 <1>        0.000
     11 C28         0.3749   -0.2465   -6.3046 C.2        1 <1>        0.000
     12 O4         -0.3271    0.5440   -5.6969 O.2        1 <1>        0.000
     13 H           6.1822   -2.9187   -7.9773 H.spc      1 <1>        0.000
     14 H           4.5025   -1.6716   -5.7516 H.spc      1 <1>        0.000
     15 H           6.0058   -0.4299   -7.9895 H.spc      1 <1>        0.000
     16 H           5.4442    1.6573   -7.2144 H.spc      1 <1>        0.000
     17 H           2.2955   -3.4886   -4.7478 H.spc      1 <1>        0.000
     18 H           1.7688   -2.2280   -7.4806 H.spc      1 <1>        0.000
     19 H           0.8696   -1.4501   -4.7630 H.spc      1 <1>        0.000
     20 H           0.5355   -0.0576   -7.3660 H.spc      1 <1>        0.000
@<TRIPOS>BOND
     1    6    7 2  
     2   10   11 am 
     3    9   10 1  
     4    8    9 2  
     5    5    6 am 
     6    4    5 1  
     7    1    2 1  
     8    1    8 1  
     9    2    3 1  
    10    3    4 2  
    11   11   12 2  
    12    3   13 1  
    13    4   14 1  
    14    5   15 1  
    15    6   16 1  
    16    8   17 1  
    17    9   18 1  
    18   10   19 1  
    19   11   20 1  
# Name:          frag3-195-6/31924
# Creation time: Sat Jun  5 12:52:12 2010


@<TRIPOS>MOLECULE
frag3-195-6/31924
   20    19     1     1     1
SMALL
USER_CHARGES


@<TRIPOS>ATOM
      1 S1          4.3484   -3.6848   -6.6430 S.3        1 <1>        0.000
      2 S2          2.8187   -3.5817   -5.3154 S.3        1 <1>        0.000
      3 C1          1.4685   -3.1728   -6.4190 C.2        1 <1>        0.000
      4 C2          0.5129   -2.3377   -5.9868 C.2        1 <1>        0.000
      5 N1         -0.5614   -1.8814   -6.6819 N.am       1 <1>        0.000
      6 C9         -1.4943   -0.9795   -6.2965 C.2        1 <1>        0.000
      7 O1         -1.5724   -0.4681   -5.1921 O.2        1 <1>        0.000
      8 C20         5.4362   -2.4245   -5.9842 C.2        1 <1>        0.000
      9 C21         5.9304   -1.5034   -6.8230 C.2        1 <1>        0.000
     10 N5          6.7389   -0.4592   -6.5139 N.am       1 <1>        0.000
     11 C28         7.3361    0.4297   -7.3442 C.2        1 <1>        0.000
     12 O4          8.0524    1.3535   -6.9968 O.2        1 <1>        0.000
     13 H           1.4246   -3.5949   -7.4230 H.spc      1 <1>        0.000
     14 H           0.6089   -1.9844   -4.9601 H.spc      1 <1>        0.000
     15 H          -0.6808   -2.2696   -7.6176 H.spc      1 <1>        0.000
     16 H          -2.2390   -0.6853   -7.0361 H.spc      1 <1>        0.000
     17 H           5.6909   -2.4068   -4.9245 H.spc      1 <1>        0.000
     18 H           5.6511   -1.6049   -7.8717 H.spc      1 <1>        0.000
     19 H           6.9227   -0.3245   -5.5197 H.spc      1 <1>        0.000
     20 H           7.1614    0.3088   -8.4133 H.spc      1 <1>        0.000
@<TRIPOS>BOND
     1    6    7 2  
     2   10   11 am 
     3    9   10 1  
     4    8    9 2  
     5    5    6 am 
     6    4    5 1  
     7    1    2 1  
     8    1    8 1  
     9    2    3 1  
    10    3    4 2  
    11   11   12 2  
    12    3   13 1  
    13    4   14 1  
    14    5   15 1  
    15    6   16 1  
    16    8   17 1  
    17    9   18 1  
    18   10   19 1  
    19   11   20 1  
# Name:          frag3-195-6/31924
# Creation time: Sat Jun  5 12:52:12 2010


@<TRIPOS>MOLECULE
frag3-195-6/31924
   20    19     1     1     1
SMALL
USER_CHARGES


@<TRIPOS>ATOM
      1 S1          2.8830   -3.3181   -7.1748 S.3        1 <1>        0.000
      2 S2          4.4109   -3.2827   -5.8452 S.3        1 <1>        0.000
      3 C1          5.4210   -1.9872   -6.5486 C.2        1 <1>        0.000
      4 C2          6.3827   -1.4323   -5.7983 C.2        1 <1>        0.000
      5 N1          7.2677   -0.4718   -6.1640 N.am       1 <1>        0.000
      6 C9          7.3331    0.2173   -7.3274 C.2        1 <1>        0.000
      7 O1          8.2025    1.0151   -7.6339 O.2        1 <1>        0.000
      8 C20         1.4864   -3.1168   -6.0790 C.2        1 <1>        0.000
      9 C21         0.5077   -2.2720   -6.4292 C.2        1 <1>        0.000
     10 N5         -0.6361   -2.0072   -5.7535 N.am       1 <1>        0.000
     11 C28        -1.6211   -1.1269   -6.0542 C.2        1 <1>        0.000
     12 O4         -2.6232   -0.9273   -5.3888 O.2        1 <1>        0.000
     13 H           5.2572   -1.6532   -7.5732 H.spc      1 <1>        0.000
     14 H           6.4632   -1.7955   -4.7738 H.spc      1 <1>        0.000
     15 H           7.9781   -0.2376   -5.4706 H.spc      1 <1>        0.000
     16 H           6.5390    0.0437   -8.0536 H.spc      1 <1>        0.000
     17 H           1.4317   -3.6715   -5.1423 H.spc      1 <1>        0.000
     18 H           0.6480   -1.7350   -7.3673 H.spc      1 <1>        0.000
     19 H          -0.7753   -2.5460   -4.8987 H.spc      1 <1>        0.000
     20 H          -1.5080   -0.5469   -6.9701 H.spc      1 <1>        0.000
@<TRIPOS>BOND
     1    6    7 2  
     2   10   11 am 
     3    9   10 1  
     4    8    9 2  
     5    5    6 am 
     6    4    5 1  
     7    1    2 1  
     8    1    8 1  
     9    2    3 1  
    10    3    4 2  
    11   11   12 2  
    12    3   13 1  
    13    4   14 1  
    14    5   15 1  
    15    6   16 1  
    16    8   17 1  
    17    9   18 1  
    18   10   19 1  
    19   11   20 1  
# Name:          frag3-195-6/31924
# Creation time: Sat Jun  5 12:52:12 2010


@<TRIPOS>MOLECULE
frag3-195-6/31924
   20    19     1     1     1
SMALL
USER_CHARGES


@<TRIPOS>ATOM
      1 S1          2.7951   -4.0478   -7.4219 S.3        1 <1>        0.000
      2 S2          4.2210   -3.8182   -6.0047 S.3        1 <1>        0.000
      3 C1          4.9960   -2.3120   -6.5566 C.2        1 <1>        0.000
      4 C2          5.7047   -1.5778   -5.6897 C.2        1 <1>        0.000
      5 N1          6.3896   -0.4361   -5.9304 N.am       1 <1>        0.000
      6 C9          6.5885    0.1988   -7.1095 C.2        1 <1>        0.000
      7 O1          7.2143    1.2325   -7.2679 O.2        1 <1>        0.000
      8 C20         1.4320   -3.1890   -6.6630 C.2        1 <1>        0.000
      9 C21         1.4278   -1.8477   -6.6565 C.2        1 <1>        0.000
     10 N5          0.4790   -1.0249   -6.1579 N.am       1 <1>        0.000
     11 C28        -0.7019   -1.3411   -5.5730 C.2        1 <1>        0.000
     12 O4         -1.5318   -0.5465   -5.1659 O.2        1 <1>        0.000
     13 H           4.8939   -1.9903   -7.5930 H.spc      1 <1>        0.000
     14 H           5.7334   -1.9451   -4.6639 H.spc      1 <1>        0.000
     15 H           6.8128    0.0055   -5.1141 H.spc      1 <1>        0.000
     16 H           6.1492   -0.2557   -7.9975 H.spc      1 <1>        0.000
     17 H           0.6120   -3.7460   -6.2098 H.spc      1 <1>        0.000
     18 H           2.2938   -1.3633   -7.1076 H.spc      1 <1>        0.000
     19 H           0.6794   -0.0275   -6.2320 H.spc      1 <1>        0.000
     20 H          -0.9300   -2.4006   -5.4562 H.spc      1 <1>        0.000
@<TRIPOS>BOND
     1    6    7 2  
     2   10   11 am 
     3    9   10 1  
     4    8    9 2  
     5    5    6 am 
     6    4    5 1  
     7    1    2 1  
     8    1    8 1  
     9    2    3 1  
    10    3    4 2  
    11   11   12 2  
    12    3   13 1  
    13    4   14 1  
    14    5   15 1  
    15    6   16 1  
    16    8   17 1  
    17    9   18 1  
    18   10   19 1  
    19   11   20 1  
# Name:          frag3-195-6/31924
# Creation time: Sat Jun  5 12:52:12 2010


@<TRIPOS>MOLECULE
frag3-195-6/31924
   20    19     1     1     1
SMALL
USER_CHARGES


@<TRIPOS>ATOM
      1 S1          2.6836   -3.9777   -5.0246 S.3        1 <1>        0.000
      2 S2          3.9556   -4.0941   -6.5976 S.3        1 <1>        0.000
      3 C1          5.1608   -2.8613   -6.1283 C.2        1 <1>        0.000
      4 C2          5.2757   -1.7485   -6.8663 C.2        1 <1>        0.000
      5 N1          6.0960   -0.6906   -6.6517 N.am       1 <1>        0.000
      6 C9          6.2521    0.4267   -7.3993 C.2        1 <1>        0.000
      7 O1          6.9769    1.3690   -7.1288 O.2        1 <1>        0.000
      8 C20         1.4607   -2.8487   -5.6725 C.2        1 <1>        0.000
      9 C21         1.4438   -1.5862   -5.2230 C.2        1 <1>        0.000
     10 N5          0.6217   -0.5813   -5.6120 N.am       1 <1>        0.000
     11 C28        -0.3179   -0.5841   -6.5886 C.2        1 <1>        0.000
     12 O4         -0.5944   -1.5331   -7.3041 O.2        1 <1>        0.000
     13 H           5.7938   -3.0122   -5.2539 H.spc      1 <1>        0.000
     14 H           4.6326   -1.6866   -7.7442 H.spc      1 <1>        0.000
     15 H           6.6740   -0.7440   -5.8129 H.spc      1 <1>        0.000
     16 H           5.6795    0.4897   -8.3246 H.spc      1 <1>        0.000
     17 H           0.7407   -3.1807   -6.4205 H.spc      1 <1>        0.000
     18 H           2.1767   -1.3387   -4.4550 H.spc      1 <1>        0.000
     19 H           0.7240    0.2954   -5.1007 H.spc      1 <1>        0.000
     20 H          -0.8738    0.3397   -6.7485 H.spc      1 <1>        0.000
@<TRIPOS>BOND
     1    6    7 2  
     2   10   11 am 
     3    9   10 1  
     4    8    9 2  
     5    5    6 am 
     6    4    5 1  
     7    1    2 1  
     8    1    8 1  
     9    2    3 1  
    10    3    4 2  
    11   11   12 2  
    12    3   13 1  
    13    4   14 1  
    14    5   15 1  
    15    6   16 1  
    16    8   17 1  
    17    9   18 1  
    18   10   19 1  
    19   11   20 1  
# Name:          frag3-195-6/31924
# Creation time: Sat Jun  5 12:52:12 2010


@<TRIPOS>MOLECULE
frag3-195-6/31924
   20    19     1     1     1
SMALL
USER_CHARGES


@<TRIPOS>ATOM
      1 S1          3.5755   -3.1463   -7.3914 S.3        1 <1>        0.000
      2 S2          2.8670   -4.0125   -5.6993 S.3        1 <1>        0.000
      3 C1          1.9141   -2.6532   -5.0248 C.2        1 <1>        0.000
      4 C2          0.8009   -2.2678   -5.6659 C.2        1 <1>        0.000
      5 N1         -0.0685   -1.2917   -5.2954 N.am       1 <1>        0.000
      6 C9         -1.2372   -0.9372   -5.8795 C.2        1 <1>        0.000
      7 O1         -1.6141   -1.2919   -6.9837 O.2        1 <1>        0.000
      8 C20         5.1827   -2.5950   -6.8245 C.2        1 <1>        0.000
      9 C21         5.5501   -1.3309   -7.0763 C.2        1 <1>        0.000
     10 N5          6.7040   -0.7213   -6.7057 N.am       1 <1>        0.000
     11 C28         7.1295    0.5350   -6.9830 C.2        1 <1>        0.000
     12 O4          8.2106    1.0028   -6.6674 O.2        1 <1>        0.000
     13 H           2.2327   -2.1498   -4.1120 H.spc      1 <1>        0.000
     14 H           0.5671   -2.7980   -6.5891 H.spc      1 <1>        0.000
     15 H           0.1939   -0.7554   -4.4684 H.spc      1 <1>        0.000
     16 H          -1.8974   -0.2788   -5.3149 H.spc      1 <1>        0.000
     17 H           5.8467   -3.2720   -6.2871 H.spc      1 <1>        0.000
     18 H           4.8426   -0.7248   -7.6422 H.spc      1 <1>        0.000
     19 H           7.3383   -1.2861   -6.1408 H.spc      1 <1>        0.000
     20 H           6.4478    1.1822   -7.5348 H.spc      1 <1>        0.000
@<TRIPOS>BOND
     1    6    7 2  
     2   10   11 am 
     3    9   10 1  
     4    8    9 2  
     5    5    6 am 
     6    4    5 1  
     7    1    2 1  
     8    1    8 1  
     9    2    3 1  
    10    3    4 2  
    11   11   12 2  
    12    3   13 1  
    13    4   14 1  
    14    5   15 1  
    15    6   16 1  
    16    8   17 1  
    17    9   18 1  
    18   10   19 1  
    19   11   20 1  
# Name:          frag3-195-6/31924
# Creation time: Sat Jun  5 12:52:12 2010


@<TRIPOS>MOLECULE
frag3-195-6/31924
   20    19     1     1     1
SMALL
USER_CHARGES


@<TRIPOS>ATOM
      1 S1          2.8031   -3.6684   -7.6832 S.3        1 <1>        0.000
      2 S2          4.0448   -3.5059   -6.0926 S.3        1 <1>        0.000
      3 C1          5.0877   -2.1649   -6.6264 C.2        1 <1>        0.000
      4 C2          5.7702   -1.4561   -5.7184 C.2        1 <1>        0.000
      5 N1          6.6329   -0.4367   -5.9341 N.am       1 <1>        0.000
      6 C9          6.9588    0.1632   -7.1032 C.2        1 <1>        0.000
      7 O1          7.7446    1.0847   -7.2391 O.2        1 <1>        0.000
      8 C20         1.4811   -2.5866   -7.1819 C.2        1 <1>        0.000
      9 C21         0.8891   -2.7922   -5.9946 C.2        1 <1>        0.000
     10 N5         -0.0998   -2.0689   -5.4259 N.am       1 <1>        0.000
     11 C28        -0.7126   -0.9517   -5.8872 C.2        1 <1>        0.000
     12 O4         -1.5853   -0.3263   -5.3102 O.2        1 <1>        0.000
     13 H           5.1700   -1.9225   -7.6859 H.spc      1 <1>        0.000
     14 H           5.6110   -1.7349   -4.6767 H.spc      1 <1>        0.000
     15 H           7.1006   -0.0710   -5.1047 H.spc      1 <1>        0.000
     16 H           6.4744   -0.2121   -8.0047 H.spc      1 <1>        0.000
     17 H           1.1576   -1.7707   -7.8283 H.spc      1 <1>        0.000
     18 H           1.2499   -3.6456   -5.4204 H.spc      1 <1>        0.000
     19 H          -0.4313   -2.4111   -4.5240 H.spc      1 <1>        0.000
     20 H          -0.3968   -0.5790   -6.8616 H.spc      1 <1>        0.000
@<TRIPOS>BOND
     1    6    7 2  
     2   10   11 am 
     3    9   10 1  
     4    8    9 2  
     5    5    6 am 
     6    4    5 1  
     7    1    2 1  
     8    1    8 1  
     9    2    3 1  
    10    3    4 2  
    11   11   12 2  
    12    3   13 1  
    13    4   14 1  
    14    5   15 1  
    15    6   16 1  
    16    8   17 1  
    17    9   18 1  
    18   10   19 1  
    19   11   20 1  
# Name:          frag3-195-6/31924
# Creation time: Sat Jun  5 12:52:12 2010


@<TRIPOS>MOLECULE
frag3-195-6/31924
   20    19     1     1     1
SMALL
USER_CHARGES


@<TRIPOS>ATOM
      1 S1          4.5000   -3.5249   -6.0100 S.3        1 <1>        0.000
      2 S2          3.0542   -2.8507   -4.7635 S.3        1 <1>        0.000
      3 C1          2.0839   -1.8692   -5.8986 C.2        1 <1>        0.000
      4 C2          0.7475   -1.9088   -5.8159 C.2        1 <1>        0.000
      5 N1         -0.1522   -1.2153   -6.5580 N.am       1 <1>        0.000
      6 C9         -1.5017   -1.3160   -6.5608 C.2        1 <1>        0.000
      7 O1         -2.1598   -2.0573   -5.8494 O.2        1 <1>        0.000
      8 C20         5.3949   -2.0118   -6.3258 C.2        1 <1>        0.000
      9 C21         6.4687   -2.0489   -7.1252 C.2        1 <1>        0.000
     10 N5          7.2535   -1.0115   -7.5053 N.am       1 <1>        0.000
     11 C28         7.1039    0.3082   -7.2359 C.2        1 <1>        0.000
     12 O4          6.2215    0.7963   -6.5486 O.2        1 <1>        0.000
     13 H           2.5728   -1.2468   -6.6480 H.spc      1 <1>        0.000
     14 H           0.3332   -2.5783   -5.0622 H.spc      1 <1>        0.000
     15 H           0.2410   -0.5263   -7.1991 H.spc      1 <1>        0.000
     16 H          -2.0474   -0.6805   -7.2582 H.spc      1 <1>        0.000
     17 H           5.0722   -1.0733   -5.8751 H.spc      1 <1>        0.000
     18 H           6.7438   -3.0285   -7.5160 H.spc      1 <1>        0.000
     19 H           8.0664   -1.2571   -8.0703 H.spc      1 <1>        0.000
     20 H           7.8337    0.9917   -7.6699 H.spc      1 <1>        0.000
@<TRIPOS>BOND
     1    6    7 2  
     2   10   11 am 
     3    9   10 1  
     4    8    9 2  
     5    5    6 am 
     6    4    5 1  
     7    1    2 1  
     8    1    8 1  
     9    2    3 1  
    10    3    4 2  
    11   11   12 2  
    12    3   13 1  
    13    4   14 1  
    14    5   15 1  
    15    6   16 1  
    16    8   17 1  
    17    9   18 1  
    18   10   19 1  
    19   11   20 1  
# Name:          frag3-195-6/31924
# Creation time: Sat Jun  5 12:52:12 2010


@<TRIPOS>MOLECULE
frag3-195-6/31924
   20    19     1     1     1
SMALL
USER_CHARGES


@<TRIPOS>ATOM
      1 S1          3.9447   -4.0110   -6.9319 S.3        1 <1>        0.000
      2 S2          3.0626   -3.6330   -5.1466 S.3        1 <1>        0.000
      3 C1          1.6217   -2.7235   -5.6901 C.2        1 <1>        0.000
      4 C2          1.1990   -1.6805   -4.9619 C.2        1 <1>        0.000
      5 N1          0.1578   -0.8512   -5.2284 N.am       1 <1>        0.000
      6 C9         -0.6759   -0.8628   -6.2950 C.2        1 <1>        0.000
      7 O1         -0.5441   -1.5541   -7.2915 O.2        1 <1>        0.000
      8 C20         4.3980   -2.3541   -7.4284 C.2        1 <1>        0.000
      9 C21         5.4642   -1.7802   -6.8532 C.2        1 <1>        0.000
     10 N5          5.9814   -0.5549   -7.1112 N.am       1 <1>        0.000
     11 C28         6.9926    0.0938   -6.4849 C.2        1 <1>        0.000
     12 O4          7.4126    1.2016   -6.7736 O.2        1 <1>        0.000
     13 H           1.0953   -3.0129   -6.5996 H.spc      1 <1>        0.000
     14 H           1.7568   -1.4740   -4.0485 H.spc      1 <1>        0.000
     15 H          -0.0195   -0.1247   -4.5347 H.spc      1 <1>        0.000
     16 H          -1.5387   -0.1976   -6.2604 H.spc      1 <1>        0.000
     17 H           3.8193   -1.8217   -8.1832 H.spc      1 <1>        0.000
     18 H           5.9741   -2.3674   -6.0895 H.spc      1 <1>        0.000
     19 H           5.5491   -0.0503   -7.8851 H.spc      1 <1>        0.000
     20 H           7.4721   -0.4188   -5.6510 H.spc      1 <1>        0.000
@<TRIPOS>BOND
     1    6    7 2  
     2   10   11 am 
     3    9   10 1  
     4    8    9 2  
     5    5    6 am 
     6    4    5 1  
     7    1    2 1  
     8    1    8 1  
     9    2    3 1  
    10    3    4 2  
    11   11   12 2  
    12    3   13 1  
    13    4   14 1  
    14    5   15 1  
    15    6   16 1  
    16    8   17 1  
    17    9   18 1  
    18   10   19 1  
    19   11   20 1  
# Name:          frag3-195-6/31924
# Creation time: Sat Jun  5 12:52:12 2010


@<TRIPOS>MOLECULE
frag3-195-6/31924
   20    19     1     1     1
SMALL
USER_CHARGES


@<TRIPOS>ATOM
      1 S1          2.9356   -4.5598   -5.8165 S.3        1 <1>        0.000
      2 S2          4.5507   -4.4428   -7.0372 S.3        1 <1>        0.000
      3 C1          5.3639   -3.0040   -6.3478 C.2        1 <1>        0.000
      4 C2          5.0720   -1.7952   -6.8496 C.2        1 <1>        0.000
      5 N1          5.5500   -0.5926   -6.4394 N.am       1 <1>        0.000
      6 C9          5.2399    0.6418   -6.9003 C.2        1 <1>        0.000
      7 O1          5.7473    1.6866   -6.5291 O.2        1 <1>        0.000
      8 C20         2.0691   -3.0631   -6.2788 C.2        1 <1>        0.000
      9 C21         1.2981   -2.4599   -5.3638 C.2        1 <1>        0.000
     10 N5          0.5928   -1.3112   -5.5109 N.am       1 <1>        0.000
     11 C28         0.6317   -0.4135   -6.5254 C.2        1 <1>        0.000
     12 O4         -0.0366    0.6039   -6.5981 O.2        1 <1>        0.000
     13 H           6.0829   -3.1088   -5.5353 H.spc      1 <1>        0.000
     14 H           4.3699   -1.7760   -7.6831 H.spc      1 <1>        0.000
     15 H           6.2339   -0.6233   -5.6832 H.spc      1 <1>        0.000
     16 H           4.4704    0.7075   -7.6695 H.spc      1 <1>        0.000
     17 H           2.1666   -2.6512   -7.2833 H.spc      1 <1>        0.000
     18 H           1.2302   -2.9477   -4.3914 H.spc      1 <1>        0.000
     19 H          -0.0558   -1.0929   -4.7545 H.spc      1 <1>        0.000
     20 H           1.3189   -0.6183   -7.3463 H.spc      1 <1>        0.000
@<TRIPOS>BOND
     1    6    7 2  
     2   10   11 am 
     3    9   10 1  
     4    8    9 2  
     5    5    6 am 
     6    4    5 1  
     7    1    2 1  
     8    1    8 1  
     9    2    3 1  
    10    3    4 2  
    11   11   12 2  
    12    3   13 1  
    13    4   14 1  
    14    5   15 1  
    15    6   16 1  
    16    8   17 1  
    17    9   18 1  
    18   10   19 1  
    19   11   20 1  
# Name:          frag3-195-6/31924
# Creation time: Sat Jun  5 12:52:12 2010


@<TRIPOS>MOLECULE
frag3-195-6/31924
   20    19     1     1     1
SMALL
USER_CHARGES


@<TRIPOS>ATOM
      1 S1          4.4199   -3.3284   -5.7105 S.3        1 <1>        0.000
      2 S2          3.0779   -3.3179   -7.2243 S.3        1 <1>        0.000
      3 C1          1.7449   -2.4046   -6.4714 C.2        1 <1>        0.000
      4 C2          0.4899   -2.6047   -6.8942 C.2        1 <1>        0.000
      5 N1         -0.6467   -2.0408   -6.4226 N.am       1 <1>        0.000
      6 C9         -0.7867   -1.0909   -5.4681 C.2        1 <1>        0.000
      7 O1         -1.8424   -0.6367   -5.0623 O.2        1 <1>        0.000
      8 C20         5.3123   -1.8232   -6.0470 C.2        1 <1>        0.000
      9 C21         6.6177   -1.8929   -6.3410 C.2        1 <1>        0.000
     10 N5          7.4535   -0.8754   -6.6568 N.am       1 <1>        0.000
     11 C28         7.1497    0.4170   -6.9289 C.2        1 <1>        0.000
     12 O4          6.0245    0.8886   -6.9699 O.2        1 <1>        0.000
     13 H           1.9493   -1.6899   -5.6742 H.spc      1 <1>        0.000
     14 H           0.3690   -3.3074   -7.7187 H.spc      1 <1>        0.000
     15 H          -1.5136   -2.3764   -6.8425 H.spc      1 <1>        0.000
     16 H           0.1268   -0.6970   -5.0225 H.spc      1 <1>        0.000
     17 H           4.8036   -0.8597   -6.0141 H.spc      1 <1>        0.000
     18 H           7.0603   -2.8889   -6.3239 H.spc      1 <1>        0.000
     19 H           8.4446   -1.1136   -6.6950 H.spc      1 <1>        0.000
     20 H           7.9811    1.0931   -7.1282 H.spc      1 <1>        0.000
@<TRIPOS>BOND
     1    6    7 2  
     2   10   11 am 
     3    9   10 1  
     4    8    9 2  
     5    5    6 am 
     6    4    5 1  
     7    1    2 1  
     8    1    8 1  
     9    2    3 1  
    10    3    4 2  
    11   11   12 2  
    12    3   13 1  
    13    4   14 1  
    14    5   15 1  
    15    6   16 1  
    16    8   17 1  
    17    9   18 1  
    18   10   19 1  
    19   11   20 1  
# Name:          frag3-195-6/31924
# Creation time: Sat Jun  5 12:52:12 2010


@<TRIPOS>MOLECULE
frag3-195-6/31924
   20    19     1     1     1
SMALL
USER_CHARGES


@<TRIPOS>ATOM
      1 S1          4.6234   -3.8390   -6.5282 S.3        1 <1>        0.000
      2 S2          2.6351   -4.1939   -6.7296 S.3        1 <1>        0.000
      3 C1          1.9809   -2.9537   -5.6108 C.2        1 <1>        0.000
      4 C2          0.8823   -2.2768   -5.9766 C.2        1 <1>        0.000
      5 N1          0.2190   -1.3336   -5.2567 N.am       1 <1>        0.000
      6 C9         -0.8988   -0.6482   -5.5935 C.2        1 <1>        0.000
      7 O1         -1.6676   -0.9441   -6.4925 O.2        1 <1>        0.000
      8 C20         4.7237   -2.1797   -7.2007 C.2        1 <1>        0.000
      9 C21         5.7552   -1.4061   -6.8331 C.2        1 <1>        0.000
     10 N5          6.0223   -0.1430   -7.2527 N.am       1 <1>        0.000
     11 C28         6.9609    0.7225   -6.7980 C.2        1 <1>        0.000
     12 O4          7.7781    0.4858   -5.9244 O.2        1 <1>        0.000
     13 H           2.4654   -2.7546   -4.6549 H.spc      1 <1>        0.000
     14 H           0.4760   -2.5089   -6.9610 H.spc      1 <1>        0.000
     15 H           0.6154   -1.1134   -4.3430 H.spc      1 <1>        0.000
     16 H          -1.1313    0.2438   -5.0117 H.spc      1 <1>        0.000
     17 H           3.9655   -1.8095   -7.8907 H.spc      1 <1>        0.000
     18 H           6.4561   -1.8387   -6.1192 H.spc      1 <1>        0.000
     19 H           5.4370    0.2015   -8.0137 H.spc      1 <1>        0.000
     20 H           6.9876    1.7134   -7.2513 H.spc      1 <1>        0.000
@<TRIPOS>BOND
     1    6    7 2  
     2   10   11 am 
     3    9   10 1  
     4    8    9 2  
     5    5    6 am 
     6    4    5 1  
     7    1    2 1  
     8    1    8 1  
     9    2    3 1  
    10    3    4 2  
    11   11   12 2  
    12    3   13 1  
    13    4   14 1  
    14    5   15 1  
    15    6   16 1  
    16    8   17 1  
    17    9   18 1  
    18   10   19 1  
    19   11   20 1  
# Name:          frag3-195-6/31924
# Creation time: Sat Jun  5 12:52:12 2010


@<TRIPOS>MOLECULE
frag3-195-6/31924
   20    19     1     1     1
SMALL
USER_CHARGES


@<TRIPOS>ATOM
      1 S1          4.6405   -3.4802   -5.7103 S.3        1 <1>        0.000
      2 S2          3.1295   -3.4203   -7.0592 S.3        1 <1>        0.000
      3 C1          2.0832   -2.1780   -6.3104 C.2        1 <1>        0.000
      4 C2          0.7527   -2.3125   -6.3962 C.2        1 <1>        0.000
      5 N1         -0.1985   -1.5046   -5.8648 N.am       1 <1>        0.000
      6 C9         -1.5443   -1.6438   -5.9004 C.2        1 <1>        0.000
      7 O1         -2.3556   -0.8107   -5.5339 O.2        1 <1>        0.000
      8 C20         5.4423   -1.9187   -6.0491 C.2        1 <1>        0.000
      9 C21         6.6543   -1.9284   -6.6210 C.2        1 <1>        0.000
     10 N5          7.4044   -0.8589   -6.9834 N.am       1 <1>        0.000
     11 C28         7.0523    0.4490   -7.0265 C.2        1 <1>        0.000
     12 O4          5.9539    0.8973   -6.7415 O.2        1 <1>        0.000
     13 H           2.5210   -1.3247   -5.7923 H.spc      1 <1>        0.000
     14 H           0.3921   -3.1730   -6.9598 H.spc      1 <1>        0.000
     15 H           0.1470   -0.6812   -5.3719 H.spc      1 <1>        0.000
     16 H          -1.9371   -2.5826   -6.2908 H.spc      1 <1>        0.000
     17 H           4.9550   -0.9772   -5.7955 H.spc      1 <1>        0.000
     18 H           7.0869   -2.9094   -6.8174 H.spc      1 <1>        0.000
     19 H           8.3636   -1.0668   -7.2612 H.spc      1 <1>        0.000
     20 H           7.8149    1.1608   -7.3425 H.spc      1 <1>        0.000
@<TRIPOS>BOND
     1    6    7 2  
     2   10   11 am 
     3    9   10 1  
     4    8    9 2  
     5    5    6 am 
     6    4    5 1  
     7    1    2 1  
     8    1    8 1  
     9    2    3 1  
    10    3    4 2  
    11   11   12 2  
    12    3   13 1  
    13    4   14 1  
    14    5   15 1  
    15    6   16 1  
    16    8   17 1  
    17    9   18 1  
    18   10   19 1  
    19   11   20 1  
# Name:          frag3-195-6/31924
# Creation time: Sat Jun  5 12:52:12 2010


@<TRIPOS>MOLECULE
frag3-195-6/31924
   20    19     1     1     1
SMALL
USER_CHARGES


@<TRIPOS>ATOM
      1 S1          3.1565   -2.5096   -5.2178 S.3        1 <1>        0.000
      2 S2          4.1647   -3.2520   -6.8112 S.3        1 <1>        0.000
      3 C1          5.3013   -1.9091   -7.1222 C.2        1 <1>        0.000
      4 C2          6.2732   -1.6627   -6.2306 C.2        1 <1>        0.000
      5 N1          7.2457   -0.7211   -6.3048 N.am       1 <1>        0.000
      6 C9          7.6514   -0.0090   -7.3823 C.2        1 <1>        0.000
      7 O1          8.5529    0.8115   -7.3950 O.2        1 <1>        0.000
      8 C20         1.7356   -1.7957   -6.0312 C.2        1 <1>        0.000
      9 C21         0.5111   -2.1749   -5.6418 C.2        1 <1>        0.000
     10 N5         -0.6797   -1.7327   -6.1109 N.am       1 <1>        0.000
     11 C28        -1.9309   -2.1275   -5.7733 C.2        1 <1>        0.000
     12 O4         -2.9674   -1.6271   -6.1759 O.2        1 <1>        0.000
     13 H           5.2068   -1.3001   -8.0213 H.spc      1 <1>        0.000
     14 H           6.2819   -2.2939   -5.3420 H.spc      1 <1>        0.000
     15 H           7.7369   -0.5229   -5.4331 H.spc      1 <1>        0.000
     16 H           7.1258   -0.1847   -8.3209 H.spc      1 <1>        0.000
     17 H           1.8624   -1.0648   -6.8299 H.spc      1 <1>        0.000
     18 H           0.4684   -2.9279   -4.8549 H.spc      1 <1>        0.000
     19 H          -0.6273   -0.9993   -6.8178 H.spc      1 <1>        0.000
     20 H          -2.0187   -2.9653   -5.0816 H.spc      1 <1>        0.000
@<TRIPOS>BOND
     1    6    7 2  
     2   10   11 am 
     3    9   10 1  
     4    8    9 2  
     5    5    6 am 
     6    4    5 1  
     7    1    2 1  
     8    1    8 1  
     9    2    3 1  
    10    3    4 2  
    11   11   12 2  
    12    3   13 1  
    13    4   14 1  
    14    5   15 1  
    15    6   16 1  
    16    8   17 1  
    17    9   18 1  
    18   10   19 1  
    19   11   20 1  
# Name:          frag3-195-6/31924
# Creation time: Sat Jun  5 12:52:12 2010


@<TRIPOS>MOLECULE
frag3-195-6/31924
   20    19     1     1     1
SMALL
USER_CHARGES


@<TRIPOS>ATOM
      1 S1          4.0893   -3.4003   -7.0110 S.3        1 <1>        0.000
      2 S2          3.1388   -3.1250   -5.2458 S.3        1 <1>        0.000
      3 C1          1.5049   -2.7022   -5.8166 C.2        1 <1>        0.000
      4 C2          0.7620   -1.8407   -5.1096 C.2        1 <1>        0.000
      5 N1         -0.4747   -1.3743   -5.4011 N.am       1 <1>        0.000
      6 C9         -1.3023   -1.7426   -6.4072 C.2        1 <1>        0.000
      7 O1         -2.3866   -1.2458   -6.6581 O.2        1 <1>        0.000
      8 C20         5.0694   -1.9156   -7.0978 C.2        1 <1>        0.000
      9 C21         6.3102   -1.9264   -6.5893 C.2        1 <1>        0.000
     10 N5          7.2109   -0.9185   -6.5831 N.am       1 <1>        0.000
     11 C28         7.0999    0.3271   -7.1051 C.2        1 <1>        0.000
     12 O4          7.9927    1.1544   -7.1722 O.2        1 <1>        0.000
     13 H           1.1129   -3.1412   -6.7340 H.spc      1 <1>        0.000
     14 H           1.2079   -1.4699   -4.1867 H.spc      1 <1>        0.000
     15 H          -0.8308   -0.6481   -4.7796 H.spc      1 <1>        0.000
     16 H          -0.9689   -2.5567   -7.0508 H.spc      1 <1>        0.000
     17 H           4.6670   -1.0126   -7.5569 H.spc      1 <1>        0.000
     18 H           6.6307   -2.8593   -6.1256 H.spc      1 <1>        0.000
     19 H           8.0970   -1.1240   -6.1215 H.spc      1 <1>        0.000
     20 H           6.1256    0.6149   -7.5001 H.spc      1 <1>        0.000
@<TRIPOS>BOND
     1    6    7 2  
     2   10   11 am 
     3    9   10 1  
     4    8    9 2  
     5    5    6 am 
     6    4    5 1  
     7    1    2 1  
     8    1    8 1  
     9    2    3 1  
    10    3    4 2  
    11   11   12 2  
    12    3   13 1  
    13    4   14 1  
    14    5   15 1  
    15    6   16 1  
    16    8   17 1  
    17    9   18 1  
    18   10   19 1  
    19   11   20 1  
# Name:          frag3-195-6/31924
# Creation time: Sat Jun  5 12:52:12 2010


@<TRIPOS>MOLECULE
frag3-195-6/31924
   20    19     1     1     1
SMALL
USER_CHARGES


@<TRIPOS>ATOM
      1 S1          3.1506   -3.9647   -7.5697 S.3        1 <1>        0.000
      2 S2          4.5603   -3.8042   -6.1237 S.3        1 <1>        0.000
      3 C1          4.9917   -2.0777   -6.2840 C.2        1 <1>        0.000
      4 C2          6.2132   -1.6742   -5.9091 C.2        1 <1>        0.000
      5 N1          6.7362   -0.4246   -5.9904 N.am       1 <1>        0.000
      6 C9          6.2869    0.6305   -6.7098 C.2        1 <1>        0.000
      7 O1          5.2275    0.6791   -7.3132 O.2        1 <1>        0.000
      8 C20         1.6821   -3.5445   -6.6434 C.2        1 <1>        0.000
      9 C21         1.3046   -2.2600   -6.5790 C.2        1 <1>        0.000
     10 N5          0.2164   -1.7485   -5.9564 N.am       1 <1>        0.000
     11 C28        -0.1770   -0.4567   -5.8470 C.2        1 <1>        0.000
     12 O4         -1.1778   -0.0645   -5.2712 O.2        1 <1>        0.000
     13 H           4.2712   -1.3627   -6.6812 H.spc      1 <1>        0.000
     14 H           6.8642   -2.4408   -5.4889 H.spc      1 <1>        0.000
     15 H           7.5772   -0.2588   -5.4376 H.spc      1 <1>        0.000
     16 H           6.9263    1.5122   -6.7538 H.spc      1 <1>        0.000
     17 H           1.1034   -4.3187   -6.1396 H.spc      1 <1>        0.000
     18 H           1.9492   -1.5431   -7.0875 H.spc      1 <1>        0.000
     19 H          -0.3928   -2.4318   -5.5065 H.spc      1 <1>        0.000
     20 H           0.4561    0.2976   -6.3143 H.spc      1 <1>        0.000
@<TRIPOS>BOND
     1    6    7 2  
     2   10   11 am 
     3    9   10 1  
     4    8    9 2  
     5    5    6 am 
     6    4    5 1  
     7    1    2 1  
     8    1    8 1  
     9    2    3 1  
    10    3    4 2  
    11   11   12 2  
    12    3   13 1  
    13    4   14 1  
    14    5   15 1  
    15    6   16 1  
    16    8   17 1  
    17    9   18 1  
    18   10   19 1  
    19   11   20 1  
# Name:          frag3-195-6/31924
# Creation time: Sat Jun  5 12:52:12 2010


@<TRIPOS>MOLECULE
frag3-195-6/31924
   20    19     1     1     1
SMALL
USER_CHARGES


@<TRIPOS>ATOM
      1 S1          4.4839   -3.6857   -6.9651 S.3        1 <1>        0.000
      2 S2          2.8408   -3.8680   -5.7918 S.3        1 <1>        0.000
      3 C1          1.6453   -2.9705   -6.7758 C.2        1 <1>        0.000
      4 C2          0.6809   -2.2803   -6.1514 C.2        1 <1>        0.000
      5 N1         -0.2861   -1.5129   -6.7172 N.am       1 <1>        0.000
      6 C9         -1.2197   -0.7459   -6.1069 C.2        1 <1>        0.000
      7 O1         -1.5000   -0.7795   -4.9203 O.2        1 <1>        0.000
      8 C20         5.4656   -2.5598   -5.9804 C.2        1 <1>        0.000
      9 C21         6.0031   -1.4869   -6.5765 C.2        1 <1>        0.000
     10 N5          6.7457   -0.5095   -5.9995 N.am       1 <1>        0.000
     11 C28         7.1931    0.6498   -6.5397 C.2        1 <1>        0.000
     12 O4          6.9619    1.0394   -7.6723 O.2        1 <1>        0.000
     13 H           1.7006   -2.9850   -7.8643 H.spc      1 <1>        0.000
     14 H           0.6717   -2.3421   -5.0632 H.spc      1 <1>        0.000
     15 H          -0.3124   -1.5147   -7.7369 H.spc      1 <1>        0.000
     16 H          -1.7676   -0.0380   -6.7288 H.spc      1 <1>        0.000
     17 H           5.6232   -2.7429   -4.9175 H.spc      1 <1>        0.000
     18 H           5.8231   -1.3884   -7.6470 H.spc      1 <1>        0.000
     19 H           7.0026   -0.6691   -5.0254 H.spc      1 <1>        0.000
     20 H           7.8118    1.2881   -5.9090 H.spc      1 <1>        0.000
@<TRIPOS>BOND
     1    6    7 2  
     2   10   11 am 
     3    9   10 1  
     4    8    9 2  
     5    5    6 am 
     6    4    5 1  
     7    1    2 1  
     8    1    8 1  
     9    2    3 1  
    10    3    4 2  
    11   11   12 2  
    12    3   13 1  
    13    4   14 1  
    14    5   15 1  
    15    6   16 1  
    16    8   17 1  
    17    9   18 1  
    18   10   19 1  
    19   11   20 1  
# Name:          frag3-195-6/31924
# Creation time: Sat Jun  5 12:52:12 2010


@<TRIPOS>MOLECULE
frag3-195-6/31924
   20    19     1     1     1
SMALL
USER_CHARGES


@<TRIPOS>ATOM
      1 S1          4.2656   -4.1621   -7.1067 S.3        1 <1>        0.000
      2 S2          3.1260   -4.2360   -5.4289 S.3        1 <1>        0.000
      3 C1          2.4433   -2.5773   -5.4407 C.2        1 <1>        0.000
      4 C2          1.1969   -2.4006   -5.9031 C.2        1 <1>        0.000
      5 N1          0.4963   -1.2367   -5.9570 N.am       1 <1>        0.000
      6 C9         -0.7748   -1.0374   -6.3783 C.2        1 <1>        0.000
      7 O1         -1.4236   -0.0179   -6.2147 O.2        1 <1>        0.000
      8 C20         5.5038   -2.9669   -6.6026 C.2        1 <1>        0.000
      9 C21         5.3057   -1.6775   -6.9109 C.2        1 <1>        0.000
     10 N5          6.1049   -0.6268   -6.5934 N.am       1 <1>        0.000
     11 C28         5.9915    0.6703   -6.9695 C.2        1 <1>        0.000
     12 O4          6.7788    1.5590   -6.6911 O.2        1 <1>        0.000
     13 H           3.0286   -1.7315   -5.0800 H.spc      1 <1>        0.000
     14 H           0.6889   -3.2893   -6.2775 H.spc      1 <1>        0.000
     15 H           0.9933   -0.4049   -5.6384 H.spc      1 <1>        0.000
     16 H          -1.2591   -1.8574   -6.9085 H.spc      1 <1>        0.000
     17 H           6.3950   -3.2810   -6.0592 H.spc      1 <1>        0.000
     18 H           4.4042   -1.4473   -7.4787 H.spc      1 <1>        0.000
     19 H           6.8983   -0.8430   -5.9899 H.spc      1 <1>        0.000
     20 H           5.1241    0.9419   -7.5711 H.spc      1 <1>        0.000
@<TRIPOS>BOND
     1    6    7 2  
     2   10   11 am 
     3    9   10 1  
     4    8    9 2  
     5    5    6 am 
     6    4    5 1  
     7    1    2 1  
     8    1    8 1  
     9    2    3 1  
    10    3    4 2  
    11   11   12 2  
    12    3   13 1  
    13    4   14 1  
    14    5   15 1  
    15    6   16 1  
    16    8   17 1  
    17    9   18 1  
    18   10   19 1  
    19   11   20 1  
# Name:          frag3-195-6/31924
# Creation time: Sat Jun  5 12:52:12 2010


@<TRIPOS>MOLECULE
frag3-195-6/31924
   20    19     1     1     1
SMALL
USER_CHARGES


@<TRIPOS>ATOM
      1 S1          2.6057   -4.0840   -5.7735 S.3        1 <1>        0.000
      2 S2          4.0242   -3.5752   -7.1267 S.3        1 <1>        0.000
      3 C1          4.6837   -2.1009   -6.3595 C.2        1 <1>        0.000
      4 C2          5.7404   -1.4946   -6.9165 C.2        1 <1>        0.000
      5 N1          6.3554   -0.3571   -6.5079 N.am       1 <1>        0.000
      6 C9          7.5186    0.1806   -6.9431 C.2        1 <1>        0.000
      7 O1          7.9400    1.2892   -6.6606 O.2        1 <1>        0.000
      8 C20         1.4685   -2.7179   -5.9612 C.2        1 <1>        0.000
      9 C21         0.1543   -2.9741   -6.0062 C.2        1 <1>        0.000
     10 N5         -0.8584   -2.0797   -6.1142 N.am       1 <1>        0.000
     11 C28        -0.8105   -0.7286   -6.0205 C.2        1 <1>        0.000
     12 O4          0.1927   -0.0677   -5.8070 O.2        1 <1>        0.000
     13 H           4.2323   -1.7012   -5.4515 H.spc      1 <1>        0.000
     14 H           6.1554   -1.9725   -7.8039 H.spc      1 <1>        0.000
     15 H           5.8765    0.1637   -5.7732 H.spc      1 <1>        0.000
     16 H           8.1325   -0.4311   -7.6042 H.spc      1 <1>        0.000
     17 H           1.8375   -1.6951   -6.0377 H.spc      1 <1>        0.000
     18 H          -0.1341   -4.0237   -5.9494 H.spc      1 <1>        0.000
     19 H          -1.7812   -2.4773   -6.2897 H.spc      1 <1>        0.000
     20 H          -1.7476   -0.1863   -6.1465 H.spc      1 <1>        0.000
@<TRIPOS>BOND
     1    6    7 2  
     2   10   11 am 
     3    9   10 1  
     4    8    9 2  
     5    5    6 am 
     6    4    5 1  
     7    1    2 1  
     8    1    8 1  
     9    2    3 1  
    10    3    4 2  
    11   11   12 2  
    12    3   13 1  
    13    4   14 1  
    14    5   15 1  
    15    6   16 1  
    16    8   17 1  
    17    9   18 1  
    18   10   19 1  
    19   11   20 1  
# Name:          frag3-195-6/31924
# Creation time: Sat Jun  5 12:52:12 2010


@<TRIPOS>MOLECULE
frag3-195-6/31924
   20    19     1     1     1
SMALL
USER_CHARGES


@<TRIPOS>ATOM
      1 S1          2.5669   -3.0485   -7.1327 S.3        1 <1>        0.000
      2 S2          4.3487   -2.8862   -6.1800 S.3        1 <1>        0.000
      3 C1          5.1193   -1.6030   -7.1610 C.2        1 <1>        0.000
      4 C2          6.3135   -1.1277   -6.7811 C.2        1 <1>        0.000
      5 N1          7.0686   -0.1899   -7.4093 N.am       1 <1>        0.000
      6 C9          8.2603    0.3273   -7.0290 C.2        1 <1>        0.000
      7 O1          8.8889    0.0042   -6.0350 O.2        1 <1>        0.000
      8 C20         1.4407   -2.8561   -5.7560 C.2        1 <1>        0.000
      9 C21         0.2239   -2.3458   -5.9883 C.2        1 <1>        0.000
     10 N5         -0.7734   -2.1520   -5.0897 N.am       1 <1>        0.000
     11 C28        -1.9941   -1.5959   -5.2807 C.2        1 <1>        0.000
     12 O4         -2.4488   -1.2364   -6.3540 O.2        1 <1>        0.000
     13 H           4.6260   -1.2147   -8.0520 H.spc      1 <1>        0.000
     14 H           6.7265   -1.5419   -5.8613 H.spc      1 <1>        0.000
     15 H           6.6874    0.1726   -8.2832 H.spc      1 <1>        0.000
     16 H           8.6952    1.0981   -7.6652 H.spc      1 <1>        0.000
     17 H           1.7384   -3.1481   -4.7489 H.spc      1 <1>        0.000
     18 H           0.0112   -2.0531   -7.0165 H.spc      1 <1>        0.000
     19 H          -0.5776   -2.4682   -4.1399 H.spc      1 <1>        0.000
     20 H          -2.6229   -1.4582   -4.4011 H.spc      1 <1>        0.000
@<TRIPOS>BOND
     1    6    7 2  
     2   10   11 am 
     3    9   10 1  
     4    8    9 2  
     5    5    6 am 
     6    4    5 1  
     7    1    2 1  
     8    1    8 1  
     9    2    3 1  
    10    3    4 2  
    11   11   12 2  
    12    3   13 1  
    13    4   14 1  
    14    5   15 1  
    15    6   16 1  
    16    8   17 1  
    17    9   18 1  
    18   10   19 1  
    19   11   20 1  
# Name:          frag3-195-6/31924
# Creation time: Sat Jun  5 12:52:12 2010


@<TRIPOS>MOLECULE
frag3-195-6/31924
   20    19     1     1     1
SMALL
USER_CHARGES


@<TRIPOS>ATOM
      1 S1          2.9491   -2.3811   -7.0834 S.3        1 <1>        0.000
      2 S2          4.3441   -2.5606   -5.6251 S.3        1 <1>        0.000
      3 C1          5.6243   -1.4943   -6.2725 C.2        1 <1>        0.000
      4 C2          6.8977   -1.7213   -5.9210 C.2        1 <1>        0.000
      5 N1          8.0037   -1.0519   -6.3349 N.am       1 <1>        0.000
      6 C9          8.0874   -0.0287   -7.2175 C.2        1 <1>        0.000
      7 O1          7.1625    0.4183   -7.8757 O.2        1 <1>        0.000
      8 C20         1.5748   -1.7280   -6.1460 C.2        1 <1>        0.000
      9 C21         0.3410   -2.1747   -6.4159 C.2        1 <1>        0.000
     10 N5         -0.8152   -1.8295   -5.8000 N.am       1 <1>        0.000
     11 C28        -2.0779   -2.2466   -6.0593 C.2        1 <1>        0.000
     12 O4         -3.0769   -1.9115   -5.4456 O.2        1 <1>        0.000
     13 H           5.3733   -0.6722   -6.9428 H.spc      1 <1>        0.000
     14 H           7.0648   -2.5395   -5.2205 H.spc      1 <1>        0.000
     15 H           8.8868   -1.3599   -5.9279 H.spc      1 <1>        0.000
     16 H           9.0645    0.4353   -7.3515 H.spc      1 <1>        0.000
     17 H           1.7374   -0.9805   -5.3695 H.spc      1 <1>        0.000
     18 H           0.2577   -2.9002   -7.2251 H.spc      1 <1>        0.000
     19 H          -0.7221   -1.1624   -5.0341 H.spc      1 <1>        0.000
     20 H          -2.2124   -2.9417   -6.8880 H.spc      1 <1>        0.000
@<TRIPOS>BOND
     1    6    7 2  
     2   10   11 am 
     3    9   10 1  
     4    8    9 2  
     5    5    6 am 
     6    4    5 1  
     7    1    2 1  
     8    1    8 1  
     9    2    3 1  
    10    3    4 2  
    11   11   12 2  
    12    3   13 1  
    13    4   14 1  
    14    5   15 1  
    15    6   16 1  
    16    8   17 1  
    17    9   18 1  
    18   10   19 1  
    19   11   20 1  
# Name:          frag3-195-6/31924
# Creation time: Sat Jun  5 12:52:12 2010


@<TRIPOS>MOLECULE
frag3-195-6/31924
   20    19     1     1     1
SMALL
USER_CHARGES


@<TRIPOS>ATOM
      1 S1          4.2388   -3.1202   -5.6796 S.3        1 <1>        0.000
      2 S2          3.0488   -2.7062   -7.2659 S.3        1 <1>        0.000
      3 C1          1.4623   -2.5838   -6.4558 C.2        1 <1>        0.000
      4 C2          0.5491   -1.7276   -6.9336 C.2        1 <1>        0.000
      5 N1         -0.7120   -1.5225   -6.4813 N.am       1 <1>        0.000
      6 C9         -1.3211   -2.0658   -5.4012 C.2        1 <1>        0.000
      7 O1         -2.4629   -1.8402   -5.0388 O.2        1 <1>        0.000
      8 C20         5.0558   -1.5480   -5.4616 C.2        1 <1>        0.000
      9 C21         6.0855   -1.2403   -6.2631 C.2        1 <1>        0.000
     10 N5          6.8088   -0.0946   -6.2778 N.am       1 <1>        0.000
     11 C28         7.8745    0.2298   -7.0486 C.2        1 <1>        0.000
     12 O4          8.3869   -0.4906   -7.8897 O.2        1 <1>        0.000
     13 H           1.2395   -3.1980   -5.5833 H.spc      1 <1>        0.000
     14 H           0.8570   -1.1243   -7.7876 H.spc      1 <1>        0.000
     15 H          -1.2773   -0.8724   -7.0273 H.spc      1 <1>        0.000
     16 H          -0.7392   -2.7668   -4.8028 H.spc      1 <1>        0.000
     17 H           4.7238   -0.8516   -4.6916 H.spc      1 <1>        0.000
     18 H           6.3748   -2.0011   -6.9881 H.spc      1 <1>        0.000
     19 H           6.5095    0.6227   -5.6172 H.spc      1 <1>        0.000
     20 H           8.3113    1.2181   -6.9053 H.spc      1 <1>        0.000
@<TRIPOS>BOND
     1    6    7 2  
     2   10   11 am 
     3    9   10 1  
     4    8    9 2  
     5    5    6 am 
     6    4    5 1  
     7    1    2 1  
     8    1    8 1  
     9    2    3 1  
    10    3    4 2  
    11   11   12 2  
    12    3   13 1  
    13    4   14 1  
    14    5   15 1  
    15    6   16 1  
    16    8   17 1  
    17    9   18 1  
    18   10   19 1  
    19   11   20 1  
# Name:          frag3-195-6/31924
# Creation time: Sat Jun  5 12:52:12 2010


@<TRIPOS>MOLECULE
frag3-195-6/31924
   20    19     1     1     1
SMALL
USER_CHARGES


@<TRIPOS>ATOM
      1 S1          3.2377   -4.2715   -5.7446 S.3        1 <1>        0.000
      2 S2          4.4505   -4.0675   -7.3587 S.3        1 <1>        0.000
      3 C1          5.6837   -2.9533   -6.6858 C.2        1 <1>        0.000
      4 C2          5.5029   -1.6325   -6.8313 C.2        1 <1>        0.000
      5 N1          6.2986   -0.6354   -6.3624 N.am       1 <1>        0.000
      6 C9          6.0997    0.7021   -6.4259 C.2        1 <1>        0.000
      7 O1          5.1235    1.2514   -6.9078 O.2        1 <1>        0.000
      8 C20         2.5831   -2.6074   -5.6207 C.2        1 <1>        0.000
      9 C21         1.2951   -2.4047   -5.9318 C.2        1 <1>        0.000
     10 N5          0.6114   -1.2337   -5.8726 N.am       1 <1>        0.000
     11 C28        -0.6567   -0.9691   -6.2707 C.2        1 <1>        0.000
     12 O4         -1.2147    0.1118   -6.1846 O.2        1 <1>        0.000
     13 H           6.5617   -3.3413   -6.1694 H.spc      1 <1>        0.000
     14 H           4.6182   -1.3239   -7.3883 H.spc      1 <1>        0.000
     15 H           7.1585   -0.9341   -5.9022 H.spc      1 <1>        0.000
     16 H           6.8782    1.3424   -6.0111 H.spc      1 <1>        0.000
     17 H           3.2169   -1.7805   -5.3002 H.spc      1 <1>        0.000
     18 H           0.7349   -3.2766   -6.2696 H.spc      1 <1>        0.000
     19 H           1.1216   -0.4454   -5.4742 H.spc      1 <1>        0.000
     20 H          -1.2257   -1.7915   -6.7043 H.spc      1 <1>        0.000
@<TRIPOS>BOND
     1    6    7 2  
     2   10   11 am 
     3    9   10 1  
     4    8    9 2  
     5    5    6 am 
     6    4    5 1  
     7    1    2 1  
     8    1    8 1  
     9    2    3 1  
    10    3    4 2  
    11   11   12 2  
    12    3   13 1  
    13    4   14 1  
    14    5   15 1  
    15    6   16 1  
    16    8   17 1  
    17    9   18 1  
    18   10   19 1  
    19   11   20 1  
# Name:          frag3-195-6/31924
# Creation time: Sat Jun  5 12:52:12 2010


@<TRIPOS>MOLECULE
frag3-195-6/31924
   20    19     1     1     1
SMALL
USER_CHARGES


@<TRIPOS>ATOM
      1 S1          2.7751   -2.6906   -7.3029 S.3        1 <1>        0.000
      2 S2          4.0583   -2.6577   -5.7383 S.3        1 <1>        0.000
      3 C1          5.2979   -1.5342   -6.3565 C.2        1 <1>        0.000
      4 C2          6.5531   -1.6274   -5.8975 C.2        1 <1>        0.000
      5 N1          7.6307   -0.8971   -6.2722 N.am       1 <1>        0.000
      6 C9          7.7091    0.0714   -7.2149 C.2        1 <1>        0.000
      7 O1          8.7051    0.7166   -7.4933 O.2        1 <1>        0.000
      8 C20         1.2842   -2.0982   -6.5252 C.2        1 <1>        0.000
      9 C21         0.1136   -2.6610   -6.8524 C.2        1 <1>        0.000
     10 N5         -1.1101   -2.3752   -6.3512 N.am       1 <1>        0.000
     11 C28        -1.4357   -1.5974   -5.2902 C.2        1 <1>        0.000
     12 O4         -2.5667   -1.3591   -4.9025 O.2        1 <1>        0.000
     13 H           5.0372   -0.7803   -7.0993 H.spc      1 <1>        0.000
     14 H           6.7283   -2.3816   -5.1303 H.spc      1 <1>        0.000
     15 H           8.4987   -1.1045   -5.7783 H.spc      1 <1>        0.000
     16 H           6.8008    0.2940   -7.7748 H.spc      1 <1>        0.000
     17 H           1.3247   -1.2903   -5.7946 H.spc      1 <1>        0.000
     18 H           0.1514   -3.4415   -7.6123 H.spc      1 <1>        0.000
     19 H          -1.8962   -2.8044   -6.8393 H.spc      1 <1>        0.000
     20 H          -0.6141   -1.1451   -4.7347 H.spc      1 <1>        0.000
@<TRIPOS>BOND
     1    6    7 2  
     2   10   11 am 
     3    9   10 1  
     4    8    9 2  
     5    5    6 am 
     6    4    5 1  
     7    1    2 1  
     8    1    8 1  
     9    2    3 1  
    10    3    4 2  
    11   11   12 2  
    12    3   13 1  
    13    4   14 1  
    14    5   15 1  
    15    6   16 1  
    16    8   17 1  
    17    9   18 1  
    18   10   19 1  
    19   11   20 1  
# Name:          frag3-195-6/31924
# Creation time: Sat Jun  5 12:52:12 2010


@<TRIPOS>MOLECULE
frag3-195-6/31924
   20    19     1     1     1
SMALL
USER_CHARGES


@<TRIPOS>ATOM
      1 S1          3.2062   -2.9395   -7.5031 S.3        1 <1>        0.000
      2 S2          3.7798   -3.1247   -5.5659 S.3        1 <1>        0.000
      3 C1          4.8527   -1.6998   -5.4171 C.2        1 <1>        0.000
      4 C2          5.8193   -1.5222   -6.3301 C.2        1 <1>        0.000
      5 N1          6.7017   -0.4941   -6.4110 N.am       1 <1>        0.000
      6 C9          7.6732   -0.2839   -7.3297 C.2        1 <1>        0.000
      7 O1          8.4763    0.6335   -7.3174 O.2        1 <1>        0.000
      8 C20         1.7548   -1.9104   -7.3144 C.2        1 <1>        0.000
      9 C21         0.7866   -2.3158   -6.4800 C.2        1 <1>        0.000
     10 N5         -0.3656   -1.6684   -6.1790 N.am       1 <1>        0.000
     11 C28        -1.3221   -2.0043   -5.2800 C.2        1 <1>        0.000
     12 O4         -2.3483   -1.3802   -5.0692 O.2        1 <1>        0.000
     13 H           4.7231   -0.9899   -4.6002 H.spc      1 <1>        0.000
     14 H           5.9062   -2.2930   -7.0959 H.spc      1 <1>        0.000
     15 H           6.6221    0.2149   -5.6820 H.spc      1 <1>        0.000
     16 H           7.7437   -0.9963   -8.1516 H.spc      1 <1>        0.000
     17 H           1.6598   -0.9748   -7.8654 H.spc      1 <1>        0.000
     18 H           0.9441   -3.2754   -5.9876 H.spc      1 <1>        0.000
     19 H          -0.5362   -0.8093   -6.7017 H.spc      1 <1>        0.000
     20 H          -1.1605   -2.9098   -4.6952 H.spc      1 <1>        0.000
@<TRIPOS>BOND
     1    6    7 2  
     2   10   11 am 
     3    9   10 1  
     4    8    9 2  
     5    5    6 am 
     6    4    5 1  
     7    1    2 1  
     8    1    8 1  
     9    2    3 1  
    10    3    4 2  
    11   11   12 2  
    12    3   13 1  
    13    4   14 1  
    14    5   15 1  
    15    6   16 1  
    16    8   17 1  
    17    9   18 1  
    18   10   19 1  
    19   11   20 1  
# Name:          frag3-195-6/31924
# Creation time: Sat Jun  5 12:52:12 2010


@<TRIPOS>MOLECULE
frag3-195-6/31924
   20    19     1     1     1
SMALL
USER_CHARGES


@<TRIPOS>ATOM
      1 S1          4.1618   -2.5758   -5.4126 S.3        1 <1>        0.000
      2 S2          2.6660   -1.2593   -5.0539 S.3        1 <1>        0.000
      3 C1          1.4911   -1.7564   -6.3039 C.2        1 <1>        0.000
      4 C2          0.1881   -1.7942   -5.9945 C.2        1 <1>        0.000
      5 N1         -0.8507   -2.1086   -6.8088 N.am       1 <1>        0.000
      6 C9         -2.1468   -2.3199   -6.4817 C.2        1 <1>        0.000
      7 O1         -2.5764   -2.4808   -5.3511 O.2        1 <1>        0.000
      8 C20         5.4003   -1.4911   -6.1030 C.2        1 <1>        0.000
      9 C21         6.5588   -2.0153   -6.5235 C.2        1 <1>        0.000
     10 N5          7.5989   -1.3658   -7.0972 N.am       1 <1>        0.000
     11 C28         7.7634   -0.0365   -7.3030 C.2        1 <1>        0.000
     12 O4          8.7600    0.4939   -7.7635 O.2        1 <1>        0.000
     13 H           1.8295   -2.0253   -7.3046 H.spc      1 <1>        0.000
     14 H          -0.0682   -1.5422   -4.9655 H.spc      1 <1>        0.000
     15 H          -0.6246   -2.1975   -7.7994 H.spc      1 <1>        0.000
     16 H          -2.8686   -2.3488   -7.2980 H.spc      1 <1>        0.000
     17 H           5.2166   -0.4195   -6.1810 H.spc      1 <1>        0.000
     18 H           6.6782   -3.0902   -6.3880 H.spc      1 <1>        0.000
     19 H           8.3641   -1.9586   -7.4188 H.spc      1 <1>        0.000
     20 H           6.9324    0.6153   -7.0334 H.spc      1 <1>        0.000
@<TRIPOS>BOND
     1    6    7 2  
     2   10   11 am 
     3    9   10 1  
     4    8    9 2  
     5    5    6 am 
     6    4    5 1  
     7    1    2 1  
     8    1    8 1  
     9    2    3 1  
    10    3    4 2  
    11   11   12 2  
    12    3   13 1  
    13    4   14 1  
    14    5   15 1  
    15    6   16 1  
    16    8   17 1  
    17    9   18 1  
    18   10   19 1  
    19   11   20 1  
# Name:          frag3-195-6/31924
# Creation time: Sat Jun  5 12:52:12 2010


@<TRIPOS>MOLECULE
frag3-195-6/31924
   20    19     1     1     1
SMALL
USER_CHARGES


@<TRIPOS>ATOM
      1 S1          3.9564   -3.5288   -6.9049 S.3        1 <1>        0.000
      2 S2          3.0096   -3.1535   -5.1573 S.3        1 <1>        0.000
      3 C1          1.4578   -2.5165   -5.7548 C.2        1 <1>        0.000
      4 C2          0.5457   -2.0715   -4.8814 C.2        1 <1>        0.000
      5 N1         -0.6659   -1.5241   -5.1440 N.am       1 <1>        0.000
      6 C9         -1.1991   -1.2008   -6.3457 C.2        1 <1>        0.000
      7 O1         -0.6242   -1.2693   -7.4205 O.2        1 <1>        0.000
      8 C20         4.9020   -2.0330   -7.0996 C.2        1 <1>        0.000
      9 C21         6.1386   -1.9738   -6.5845 C.2        1 <1>        0.000
     10 N5          7.0150   -0.9474   -6.6495 N.am       1 <1>        0.000
     11 C28         6.8213    0.3111   -7.1130 C.2        1 <1>        0.000
     12 O4          7.6574    1.1977   -7.1417 O.2        1 <1>        0.000
     13 H           1.2517   -2.4890   -6.8248 H.spc      1 <1>        0.000
     14 H           0.8107   -2.1606   -3.8279 H.spc      1 <1>        0.000
     15 H          -1.2516   -1.3308   -4.3316 H.spc      1 <1>        0.000
     16 H          -2.2307   -0.8490   -6.3543 H.spc      1 <1>        0.000
     17 H           4.4820   -1.1781   -7.6296 H.spc      1 <1>        0.000
     18 H           6.4777   -2.8605   -6.0488 H.spc      1 <1>        0.000
     19 H           7.9526   -1.1477   -6.3013 H.spc      1 <1>        0.000
     20 H           5.8290    0.5522   -7.4943 H.spc      1 <1>        0.000
@<TRIPOS>BOND
     1    6    7 2  
     2   10   11 am 
     3    9   10 1  
     4    8    9 2  
     5    5    6 am 
     6    4    5 1  
     7    1    2 1  
     8    1    8 1  
     9    2    3 1  
    10    3    4 2  
    11   11   12 2  
    12    3   13 1  
    13    4   14 1  
    14    5   15 1  
    15    6   16 1  
    16    8   17 1  
    17    9   18 1  
    18   10   19 1  
    19   11   20 1  
# Name:          frag3-195-6/31924
# Creation time: Sat Jun  5 12:52:12 2010


@<TRIPOS>MOLECULE
frag3-195-6/31924
   20    19     1     1     1
SMALL
USER_CHARGES


@<TRIPOS>ATOM
      1 S1          4.9713   -4.3071   -5.9536 S.3        1 <1>        0.000
      2 S2          3.0732   -4.1597   -6.6504 S.3        1 <1>        0.000
      3 C1          2.4627   -2.8206   -5.6324 C.2        1 <1>        0.000
      4 C2          1.4597   -2.0611   -6.0939 C.2        1 <1>        0.000
      5 N1          0.8407   -1.0322   -5.4599 N.am       1 <1>        0.000
      6 C9         -0.2235   -0.3046   -5.8723 C.2        1 <1>        0.000
      7 O1         -0.8735   -0.5089   -6.8841 O.2        1 <1>        0.000
      8 C20         5.7559   -2.9829   -6.8653 C.2        1 <1>        0.000
      9 C21         5.4112   -1.7181   -6.5846 C.2        1 <1>        0.000
     10 N5          5.9091   -0.5856   -7.1398 N.am       1 <1>        0.000
     11 C28         5.5505    0.7014   -6.9143 C.2        1 <1>        0.000
     12 O4          4.6772    1.0694   -6.1461 O.2        1 <1>        0.000
     13 H           2.8995   -2.6259   -4.6529 H.spc      1 <1>        0.000
     14 H           1.0987   -2.2968   -7.0950 H.spc      1 <1>        0.000
     15 H           1.2290   -0.7734   -4.5529 H.spc      1 <1>        0.000
     16 H          -0.5254    0.5356   -5.2470 H.spc      1 <1>        0.000
     17 H           6.4987   -3.1999   -7.6330 H.spc      1 <1>        0.000
     18 H           4.6429   -1.5849   -5.8230 H.spc      1 <1>        0.000
     19 H           6.6563   -0.7212   -7.8208 H.spc      1 <1>        0.000
     20 H           6.0876    1.4730   -7.4658 H.spc      1 <1>        0.000
@<TRIPOS>BOND
     1    6    7 2  
     2   10   11 am 
     3    9   10 1  
     4    8    9 2  
     5    5    6 am 
     6    4    5 1  
     7    1    2 1  
     8    1    8 1  
     9    2    3 1  
    10    3    4 2  
    11   11   12 2  
    12    3   13 1  
    13    4   14 1  
    14    5   15 1  
    15    6   16 1  
    16    8   17 1  
    17    9   18 1  
    18   10   19 1  
    19   11   20 1  
# Name:          frag3-195-6/31924
# Creation time: Sat Jun  5 12:52:12 2010


@<TRIPOS>MOLECULE
frag3-195-6/31924
   20    19     1     1     1
SMALL
USER_CHARGES


@<TRIPOS>ATOM
      1 S1          3.9226   -2.8273   -5.2301 S.3        1 <1>        0.000
      2 S2          2.7454   -1.2319   -4.8141 S.3        1 <1>        0.000
      3 C1          1.1814   -1.8104   -5.4541 C.2        1 <1>        0.000
      4 C2          0.3258   -0.9255   -5.9839 C.2        1 <1>        0.000
      5 N1         -0.8823   -1.1746   -6.5494 N.am       1 <1>        0.000
      6 C9         -1.5604   -2.3450   -6.6043 C.2        1 <1>        0.000
      7 O1         -1.1448   -3.4253   -6.2182 O.2        1 <1>        0.000
      8 C20         4.8523   -2.1976   -6.6187 C.2        1 <1>        0.000
      9 C21         6.0074   -1.5592   -6.3842 C.2        1 <1>        0.000
     10 N5          6.8639   -1.0386   -7.2944 N.am       1 <1>        0.000
     11 C28         8.0190   -0.3606   -7.0910 C.2        1 <1>        0.000
     12 O4          8.6844    0.1858   -7.9544 O.2        1 <1>        0.000
     13 H           0.9262   -2.8694   -5.4142 H.spc      1 <1>        0.000
     14 H           0.6374    0.1187   -5.9574 H.spc      1 <1>        0.000
     15 H          -1.3388   -0.3762   -6.9905 H.spc      1 <1>        0.000
     16 H          -2.5636   -2.3202   -7.0299 H.spc      1 <1>        0.000
     17 H           4.4875   -2.3298   -7.6373 H.spc      1 <1>        0.000
     18 H           6.2904   -1.4459   -5.3377 H.spc      1 <1>        0.000
     19 H           6.6027   -1.1763   -8.2707 H.spc      1 <1>        0.000
     20 H           8.3854   -0.2981   -6.0663 H.spc      1 <1>        0.000
@<TRIPOS>BOND
     1    6    7 2  
     2   10   11 am 
     3    9   10 1  
     4    8    9 2  
     5    5    6 am 
     6    4    5 1  
     7    1    2 1  
     8    1    8 1  
     9    2    3 1  
    10    3    4 2  
    11   11   12 2  
    12    3   13 1  
    13    4   14 1  
    14    5   15 1  
    15    6   16 1  
    16    8   17 1  
    17    9   18 1  
    18   10   19 1  
    19   11   20 1  
# Name:          frag3-195-6/31924
# Creation time: Sat Jun  5 12:52:12 2010


@<TRIPOS>MOLECULE
frag3-195-6/31924
   20    19     1     1     1
SMALL
USER_CHARGES


@<TRIPOS>ATOM
      1 S1          4.4837   -3.3659   -6.7170 S.3        1 <1>        0.000
      2 S2          3.0726   -2.7669   -5.3949 S.3        1 <1>        0.000
      3 C1          1.7698   -2.2761   -6.5105 C.2        1 <1>        0.000
      4 C2          0.5304   -2.1023   -6.0348 C.2        1 <1>        0.000
      5 N1         -0.5739   -1.7012   -6.7122 N.am       1 <1>        0.000
      6 C9         -1.8219   -1.4789   -6.2386 C.2        1 <1>        0.000
      7 O1         -2.1677   -1.5804   -5.0726 O.2        1 <1>        0.000
      8 C20         5.4638   -1.8822   -6.8491 C.2        1 <1>        0.000
      9 C21         6.4721   -1.6938   -5.9855 C.2        1 <1>        0.000
     10 N5          7.3410   -0.6558   -5.9396 N.am       1 <1>        0.000
     11 C28         7.5201    0.3399   -6.8413 C.2        1 <1>        0.000
     12 O4          6.9246    0.4538   -7.9007 O.2        1 <1>        0.000
     13 H           1.9806   -2.1194   -7.5684 H.spc      1 <1>        0.000
     14 H           0.3920   -2.3084   -4.9734 H.spc      1 <1>        0.000
     15 H          -0.4468   -1.5464   -7.7123 H.spc      1 <1>        0.000
     16 H          -2.5836   -1.1839   -6.9604 H.spc      1 <1>        0.000
     17 H           5.2470   -1.1412   -7.6185 H.spc      1 <1>        0.000
     18 H           6.6088   -2.4681   -5.2306 H.spc      1 <1>        0.000
     19 H           7.9412   -0.6185   -5.1157 H.spc      1 <1>        0.000
     20 H           8.2589    1.1042   -6.6000 H.spc      1 <1>        0.000
@<TRIPOS>BOND
     1    6    7 2  
     2   10   11 am 
     3    9   10 1  
     4    8    9 2  
     5    5    6 am 
     6    4    5 1  
     7    1    2 1  
     8    1    8 1  
     9    2    3 1  
    10    3    4 2  
    11   11   12 2  
    12    3   13 1  
    13    4   14 1  
    14    5   15 1  
    15    6   16 1  
    16    8   17 1  
    17    9   18 1  
    18   10   19 1  
    19   11   20 1  
# Name:          frag3-195-6/31924
# Creation time: Sat Jun  5 12:52:12 2010


@<TRIPOS>MOLECULE
frag3-195-6/31924
   20    19     1     1     1
SMALL
USER_CHARGES


@<TRIPOS>ATOM
      1 S1          4.5075   -4.1891   -7.3073 S.3        1 <1>        0.000
      2 S2          3.1120   -4.4149   -5.8572 S.3        1 <1>        0.000
      3 C1          2.0414   -3.0324   -6.2214 C.2        1 <1>        0.000
      4 C2          1.3153   -2.4898   -5.2348 C.2        1 <1>        0.000
      5 N1          0.4831   -1.4229   -5.3072 N.am       1 <1>        0.000
      6 C9          0.2113   -0.6340   -6.3733 C.2        1 <1>        0.000
      7 O1         -0.5302    0.3334   -6.3733 O.2        1 <1>        0.000
      8 C20         5.2512   -2.6442   -6.8091 C.2        1 <1>        0.000
      9 C21         4.8802   -1.5160   -7.4309 C.2        1 <1>        0.000
     10 N5          5.3015   -0.2556   -7.1757 N.am       1 <1>        0.000
     11 C28         6.0448    0.2004   -6.1384 C.2        1 <1>        0.000
     12 O4          6.3964    1.3552   -5.9682 O.2        1 <1>        0.000
     13 H           1.9795   -2.6348   -7.2344 H.spc      1 <1>        0.000
     14 H           1.4047   -2.9632   -4.2570 H.spc      1 <1>        0.000
     15 H          -0.0033   -1.1821   -4.4436 H.spc      1 <1>        0.000
     16 H           0.6987   -0.8863   -7.3150 H.spc      1 <1>        0.000
     17 H           5.9947   -2.6188   -6.0124 H.spc      1 <1>        0.000
     18 H           4.1542   -1.6269   -8.2363 H.spc      1 <1>        0.000
     19 H           5.0208    0.4484   -7.8584 H.spc      1 <1>        0.000
     20 H           6.3555   -0.5293   -5.3907 H.spc      1 <1>        0.000
@<TRIPOS>BOND
     1    6    7 2  
     2   10   11 am 
     3    9   10 1  
     4    8    9 2  
     5    5    6 am 
     6    4    5 1  
     7    1    2 1  
     8    1    8 1  
     9    2    3 1  
    10    3    4 2  
    11   11   12 2  
    12    3   13 1  
    13    4   14 1  
    14    5   15 1  
    15    6   16 1  
    16    8   17 1  
    17    9   18 1  
    18   10   19 1  
    19   11   20 1  
# Name:          frag3-195-6/31924
# Creation time: Sat Jun  5 12:52:12 2010


@<TRIPOS>MOLECULE
frag3-195-6/31924
   20    19     1     1     1
SMALL
USER_CHARGES


@<TRIPOS>ATOM
      1 S1          4.0800   -3.6386   -7.6366 S.3        1 <1>        0.000
      2 S2          2.8095   -4.5171   -6.3256 S.3        1 <1>        0.000
      3 C1          1.4937   -3.3113   -6.2974 C.2        1 <1>        0.000
      4 C2          1.6952   -2.1402   -5.6744 C.2        1 <1>        0.000
      5 N1          0.8409   -1.0930   -5.5808 N.am       1 <1>        0.000
      6 C9         -0.3960   -0.9610   -6.1153 C.2        1 <1>        0.000
      7 O1         -1.1417   -0.0093   -5.9601 O.2        1 <1>        0.000
      8 C20         5.1768   -2.7857   -6.5166 C.2        1 <1>        0.000
      9 C21         5.4523   -1.4936   -6.7353 C.2        1 <1>        0.000
     10 N5          6.2287   -0.6735   -5.9870 N.am       1 <1>        0.000
     11 C28         6.5262    0.6331   -6.1855 C.2        1 <1>        0.000
     12 O4          6.2488    1.2803   -7.1822 O.2        1 <1>        0.000
     13 H           0.5395   -3.5235   -6.7797 H.spc      1 <1>        0.000
     14 H           2.6614   -2.0167   -5.1853 H.spc      1 <1>        0.000
     15 H           1.1738   -0.2982   -5.0350 H.spc      1 <1>        0.000
     16 H          -0.7570   -1.7782   -6.7398 H.spc      1 <1>        0.000
     17 H           5.6160   -3.3087   -5.6671 H.spc      1 <1>        0.000
     18 H           4.9979   -1.0489   -7.6206 H.spc      1 <1>        0.000
     19 H           6.6472   -1.0987   -5.1596 H.spc      1 <1>        0.000
     20 H           7.0585    1.1503   -5.3872 H.spc      1 <1>        0.000
@<TRIPOS>BOND
     1    6    7 2  
     2   10   11 am 
     3    9   10 1  
     4    8    9 2  
     5    5    6 am 
     6    4    5 1  
     7    1    2 1  
     8    1    8 1  
     9    2    3 1  
    10    3    4 2  
    11   11   12 2  
    12    3   13 1  
    13    4   14 1  
    14    5   15 1  
    15    6   16 1  
    16    8   17 1  
    17    9   18 1  
    18   10   19 1  
    19   11   20 1  
# Name:          frag3-195-6/31924
# Creation time: Sat Jun  5 12:52:12 2010


@<TRIPOS>MOLECULE
frag3-195-6/31924
   20    19     1     1     1
SMALL
USER_CHARGES


@<TRIPOS>ATOM
      1 S1          4.0985   -3.2246   -5.5256 S.3        1 <1>        0.000
      2 S2          3.0029   -2.8848   -7.1949 S.3        1 <1>        0.000
      3 C1          1.4660   -2.3416   -6.4679 C.2        1 <1>        0.000
      4 C2          0.4075   -2.1256   -7.2600 C.2        1 <1>        0.000
      5 N1         -0.8438   -1.7517   -6.8933 N.am       1 <1>        0.000
      6 C9         -1.3271   -1.5412   -5.6463 C.2        1 <1>        0.000
      7 O1         -0.6861   -1.6295   -4.6116 O.2        1 <1>        0.000
      8 C20         4.8825   -1.6349   -5.3186 C.2        1 <1>        0.000
      9 C21         5.8533   -1.2782   -6.1719 C.2        1 <1>        0.000
     10 N5          6.5422   -0.1121   -6.2023 N.am       1 <1>        0.000
     11 C28         7.5572    0.2565   -7.0201 C.2        1 <1>        0.000
     12 O4          8.0614   -0.4422   -7.8843 O.2        1 <1>        0.000
     13 H           1.3896   -2.1874   -5.3916 H.spc      1 <1>        0.000
     14 H           0.5715   -2.2674   -8.3282 H.spc      1 <1>        0.000
     15 H          -1.5064   -1.6109   -7.6559 H.spc      1 <1>        0.000
     16 H          -2.3791   -1.2695   -5.5590 H.spc      1 <1>        0.000
     17 H           4.5778   -0.9663   -4.5134 H.spc      1 <1>        0.000
     18 H           6.1198   -2.0136   -6.9311 H.spc      1 <1>        0.000
     19 H           6.2571    0.5848   -5.5142 H.spc      1 <1>        0.000
     20 H           7.9576    1.2626   -6.8957 H.spc      1 <1>        0.000
@<TRIPOS>BOND
     1    6    7 2  
     2   10   11 am 
     3    9   10 1  
     4    8    9 2  
     5    5    6 am 
     6    4    5 1  
     7    1    2 1  
     8    1    8 1  
     9    2    3 1  
    10    3    4 2  
    11   11   12 2  
    12    3   13 1  
    13    4   14 1  
    14    5   15 1  
    15    6   16 1  
    16    8   17 1  
    17    9   18 1  
    18   10   19 1  
    19   11   20 1  
# Name:          frag3-195-6/31924
# Creation time: Sat Jun  5 12:52:12 2010


@<TRIPOS>MOLECULE
frag3-195-6/31924
   20    19     1     1     1
SMALL
USER_CHARGES


@<TRIPOS>ATOM
      1 S1          4.1934   -2.6231   -5.3677 S.3        1 <1>        0.000
      2 S2          2.7927   -2.4383   -6.8204 S.3        1 <1>        0.000
      3 C1          1.4930   -1.6159   -5.9092 C.2        1 <1>        0.000
      4 C2          0.2222   -1.9913   -6.1098 C.2        1 <1>        0.000
      5 N1         -0.8897   -1.5189   -5.4909 N.am       1 <1>        0.000
      6 C9         -2.1824   -1.8604   -5.7008 C.2        1 <1>        0.000
      7 O1         -2.5742   -2.7057   -6.4884 O.2        1 <1>        0.000
      8 C20         5.4281   -1.4722   -5.9544 C.2        1 <1>        0.000
      9 C21         6.5700   -1.9572   -6.4619 C.2        1 <1>        0.000
     10 N5          7.6042   -1.2543   -6.9829 N.am       1 <1>        0.000
     11 C28         7.6947    0.0769   -7.2201 C.2        1 <1>        0.000
     12 O4          8.6624    0.6505   -7.6903 O.2        1 <1>        0.000
     13 H           1.7304   -0.8216   -5.2015 H.spc      1 <1>        0.000
     14 H           0.0627   -2.7675   -6.8582 H.spc      1 <1>        0.000
     15 H          -0.7298   -0.8129   -4.7723 H.spc      1 <1>        0.000
     16 H          -2.9379   -1.3354   -5.1163 H.spc      1 <1>        0.000
     17 H           5.2561   -0.3972   -5.9007 H.spc      1 <1>        0.000
     18 H           6.6789   -3.0417   -6.4545 H.spc      1 <1>        0.000
     19 H           8.4280   -1.8023   -7.2307 H.spc      1 <1>        0.000
     20 H           6.8275    0.6875   -6.9688 H.spc      1 <1>        0.000
@<TRIPOS>BOND
     1    6    7 2  
     2   10   11 am 
     3    9   10 1  
     4    8    9 2  
     5    5    6 am 
     6    4    5 1  
     7    1    2 1  
     8    1    8 1  
     9    2    3 1  
    10    3    4 2  
    11   11   12 2  
    12    3   13 1  
    13    4   14 1  
    14    5   15 1  
    15    6   16 1  
    16    8   17 1  
    17    9   18 1  
    18   10   19 1  
    19   11   20 1  
# Name:          frag3-195-6/31924
# Creation time: Sat Jun  5 12:52:12 2010


@<TRIPOS>MOLECULE
frag3-195-6/31924
   20    19     1     1     1
SMALL
USER_CHARGES


@<TRIPOS>ATOM
      1 S1          4.1003   -2.6461   -5.9970 S.3        1 <1>        0.000
      2 S2          2.9283   -2.5129   -7.6444 S.3        1 <1>        0.000
      3 C1          1.5503   -1.5876   -6.9827 C.2        1 <1>        0.000
      4 C2          0.5070   -2.2562   -6.4701 C.2        1 <1>        0.000
      5 N1         -0.6053   -1.7404   -5.8908 N.am       1 <1>        0.000
      6 C9         -1.7264   -2.3826   -5.4877 C.2        1 <1>        0.000
      7 O1         -2.7218   -1.8535   -5.0233 O.2        1 <1>        0.000
      8 C20         5.4537   -1.5796   -6.4673 C.2        1 <1>        0.000
      9 C21         6.4213   -1.3315   -5.5749 C.2        1 <1>        0.000
     10 N5          7.5359   -0.5806   -5.7520 N.am       1 <1>        0.000
     11 C28         8.0315   -0.0554   -6.8987 C.2        1 <1>        0.000
     12 O4          7.5398   -0.1835   -8.0080 O.2        1 <1>        0.000
     13 H           1.5576   -0.4977   -6.9955 H.spc      1 <1>        0.000
     14 H           0.5593   -3.3435   -6.5257 H.spc      1 <1>        0.000
     15 H          -0.5958   -0.7319   -5.7382 H.spc      1 <1>        0.000
     16 H          -1.7406   -3.4680   -5.5869 H.spc      1 <1>        0.000
     17 H           5.4916   -1.1383   -7.4633 H.spc      1 <1>        0.000
     18 H           6.2981   -1.7863   -4.5920 H.spc      1 <1>        0.000
     19 H           8.0743   -0.3844   -4.9082 H.spc      1 <1>        0.000
     20 H           8.9471    0.5313   -6.8237 H.spc      1 <1>        0.000
@<TRIPOS>BOND
     1    6    7 2  
     2   10   11 am 
     3    9   10 1  
     4    8    9 2  
     5    5    6 am 
     6    4    5 1  
     7    1    2 1  
     8    1    8 1  
     9    2    3 1  
    10    3    4 2  
    11   11   12 2  
    12    3   13 1  
    13    4   14 1  
    14    5   15 1  
    15    6   16 1  
    16    8   17 1  
    17    9   18 1  
    18   10   19 1  
    19   11   20 1  
# Name:          frag3-195-6/31924
# Creation time: Sat Jun  5 12:52:12 2010


@<TRIPOS>MOLECULE
frag3-195-6/31924
   20    19     1     1     1
SMALL
USER_CHARGES


@<TRIPOS>ATOM
      1 S1          3.8767   -3.6547   -6.8694 S.3        1 <1>        0.000
      2 S2          2.6989   -3.8946   -5.2385 S.3        1 <1>        0.000
      3 C1          1.4959   -2.6055   -5.5199 C.2        1 <1>        0.000
      4 C2          0.6346   -2.7327   -6.5410 C.2        1 <1>        0.000
      5 N1         -0.3659   -1.8873   -6.8937 N.am       1 <1>        0.000
      6 C9         -0.7150   -0.7115   -6.3207 C.2        1 <1>        0.000
      7 O1         -0.3237   -0.3047   -5.2388 O.2        1 <1>        0.000
      8 C20         5.1626   -2.6145   -6.1980 C.2        1 <1>        0.000
      9 C21         5.5171   -1.5087   -6.8652 C.2        1 <1>        0.000
     10 N5          6.4394   -0.5851   -6.5070 N.am       1 <1>        0.000
     11 C28         6.8554    0.5142   -7.1805 C.2        1 <1>        0.000
     12 O4          7.7387    1.2754   -6.8240 O.2        1 <1>        0.000
     13 H           1.4617   -1.7292   -4.8726 H.spc      1 <1>        0.000
     14 H           0.7530   -3.6213   -7.1610 H.spc      1 <1>        0.000
     15 H          -0.9282   -2.1749   -7.6946 H.spc      1 <1>        0.000
     16 H          -1.4048   -0.0734   -6.8731 H.spc      1 <1>        0.000
     17 H           5.6517   -2.8753   -5.2595 H.spc      1 <1>        0.000
     18 H           5.0015   -1.3314   -7.8090 H.spc      1 <1>        0.000
     19 H           6.8841   -0.7385   -5.6020 H.spc      1 <1>        0.000
     20 H           6.3569    0.7378   -8.1237 H.spc      1 <1>        0.000
@<TRIPOS>BOND
     1    6    7 2  
     2   10   11 am 
     3    9   10 1  
     4    8    9 2  
     5    5    6 am 
     6    4    5 1  
     7    1    2 1  
     8    1    8 1  
     9    2    3 1  
    10    3    4 2  
    11   11   12 2  
    12    3   13 1  
    13    4   14 1  
    14    5   15 1  
    15    6   16 1  
    16    8   17 1  
    17    9   18 1  
    18   10   19 1  
    19   11   20 1  
# Name:          frag3-195-6/31924
# Creation time: Sat Jun  5 12:52:12 2010


@<TRIPOS>MOLECULE
frag3-195-6/31924
   20    19     1     1     1
SMALL
USER_CHARGES


@<TRIPOS>ATOM
      1 S1          4.3018   -2.3485   -5.7792 S.3        1 <1>        0.000
      2 S2          2.7386   -1.9898   -7.0203 S.3        1 <1>        0.000
      3 C1          1.3741   -2.1940   -5.8785 C.2        1 <1>        0.000
      4 C2          0.1221   -2.1552   -6.3562 C.2        1 <1>        0.000
      5 N1         -1.0325   -2.3260   -5.6620 N.am       1 <1>        0.000
      6 C9         -2.3071   -2.2562   -6.1127 C.2        1 <1>        0.000
      7 O1         -3.3093   -2.3396   -5.4232 O.2        1 <1>        0.000
      8 C20         5.2749   -0.8697   -6.0458 C.2        1 <1>        0.000
      9 C21         6.5722   -1.0045   -6.3542 C.2        1 <1>        0.000
     10 N5          7.4610   -0.0152   -6.6218 N.am       1 <1>        0.000
     11 C28         8.6554   -0.0942   -7.2572 C.2        1 <1>        0.000
     12 O4          9.1633   -1.1169   -7.6856 O.2        1 <1>        0.000
     13 H           1.5581   -2.3470   -4.8151 H.spc      1 <1>        0.000
     14 H           0.0190   -1.9647   -7.4245 H.spc      1 <1>        0.000
     15 H          -0.9251   -2.5345   -4.6693 H.spc      1 <1>        0.000
     16 H          -2.4497   -2.1132   -7.1838 H.spc      1 <1>        0.000
     17 H           4.8225    0.1182   -5.9592 H.spc      1 <1>        0.000
     18 H           6.9564   -2.0238   -6.3945 H.spc      1 <1>        0.000
     19 H           7.1938    0.9154   -6.3009 H.spc      1 <1>        0.000
     20 H           9.2087    0.8344   -7.3972 H.spc      1 <1>        0.000
@<TRIPOS>BOND
     1    6    7 2  
     2   10   11 am 
     3    9   10 1  
     4    8    9 2  
     5    5    6 am 
     6    4    5 1  
     7    1    2 1  
     8    1    8 1  
     9    2    3 1  
    10    3    4 2  
    11   11   12 2  
    12    3   13 1  
    13    4   14 1  
    14    5   15 1  
    15    6   16 1  
    16    8   17 1  
    17    9   18 1  
    18   10   19 1  
    19   11   20 1  
# Name:          frag3-195-6/31924
# Creation time: Sat Jun  5 12:52:12 2010


@<TRIPOS>MOLECULE
frag3-195-6/31924
   20    19     1     1     1
SMALL
USER_CHARGES


@<TRIPOS>ATOM
      1 S1          2.8633   -4.1523   -6.4141 S.3        1 <1>        0.000
      2 S2          4.8472   -4.1514   -5.9902 S.3        1 <1>        0.000
      3 C1          5.4139   -2.8992   -7.1405 C.2        1 <1>        0.000
      4 C2          5.5878   -1.6469   -6.6935 C.2        1 <1>        0.000
      5 N1          6.0426   -0.5762   -7.3957 N.am       1 <1>        0.000
      6 C9          6.2431    0.6913   -6.9647 C.2        1 <1>        0.000
      7 O1          6.0673    1.0889   -5.8253 O.2        1 <1>        0.000
      8 C20         2.4222   -2.4930   -5.9019 C.2        1 <1>        0.000
      9 C21         1.1498   -2.0974   -6.0460 C.2        1 <1>        0.000
     10 N5          0.6167   -0.9007   -5.6923 N.am       1 <1>        0.000
     11 C28        -0.6604   -0.4670   -5.8237 C.2        1 <1>        0.000
     12 O4         -1.5789   -1.1059   -6.3091 O.2        1 <1>        0.000
     13 H           5.6132   -3.1505   -8.1823 H.spc      1 <1>        0.000
     14 H           5.3357   -1.4676   -5.6483 H.spc      1 <1>        0.000
     15 H           6.2617   -0.7504   -8.3765 H.spc      1 <1>        0.000
     16 H           6.5913    1.4183   -7.6984 H.spc      1 <1>        0.000
     17 H           3.1712   -1.8210   -5.4829 H.spc      1 <1>        0.000
     18 H           0.4671   -2.8171   -6.4976 H.spc      1 <1>        0.000
     19 H           1.2659   -0.2370   -5.2699 H.spc      1 <1>        0.000
     20 H          -0.8857    0.5375   -5.4654 H.spc      1 <1>        0.000
@<TRIPOS>BOND
     1    6    7 2  
     2   10   11 am 
     3    9   10 1  
     4    8    9 2  
     5    5    6 am 
     6    4    5 1  
     7    1    2 1  
     8    1    8 1  
     9    2    3 1  
    10    3    4 2  
    11   11   12 2  
    12    3   13 1  
    13    4   14 1  
    14    5   15 1  
    15    6   16 1  
    16    8   17 1  
    17    9   18 1  
    18   10   19 1  
    19   11   20 1  
# Name:          frag3-195-6/31924
# Creation time: Sat Jun  5 12:52:12 2010


@<TRIPOS>MOLECULE
frag3-195-6/31924
   20    19     1     1     1
SMALL
USER_CHARGES


@<TRIPOS>ATOM
      1 S1          2.9954   -3.8340   -7.6484 S.3        1 <1>        0.000
      2 S2          4.3791   -3.7592   -6.1749 S.3        1 <1>        0.000
      3 C1          5.1487   -2.1920   -6.5203 C.2        1 <1>        0.000
      4 C2          5.8237   -1.5575   -5.5537 C.2        1 <1>        0.000
      5 N1          6.5014   -0.3872   -5.6360 N.am       1 <1>        0.000
      6 C9          6.5590    0.4789   -6.6749 C.2        1 <1>        0.000
      7 O1          5.8449    0.4508   -7.6649 O.2        1 <1>        0.000
      8 C20         1.6019   -3.0844   -6.8346 C.2        1 <1>        0.000
      9 C21         1.5785   -1.7534   -6.6686 C.2        1 <1>        0.000
     10 N5          0.6061   -1.0052   -6.1043 N.am       1 <1>        0.000
     11 C28        -0.5863   -1.3994   -5.5952 C.2        1 <1>        0.000
     12 O4         -1.4377   -0.6672   -5.1212 O.2        1 <1>        0.000
     13 H           5.0709   -1.7509   -7.5140 H.spc      1 <1>        0.000
     14 H           5.8286   -2.0435   -4.5780 H.spc      1 <1>        0.000
     15 H           7.0372   -0.1249   -4.8087 H.spc      1 <1>        0.000
     16 H           7.3075    1.2696   -6.6231 H.spc      1 <1>        0.000
     17 H           0.7769   -3.6995   -6.4752 H.spc      1 <1>        0.000
     18 H           2.4501   -1.2099   -7.0334 H.spc      1 <1>        0.000
     19 H           0.7955   -0.0042   -6.0543 H.spc      1 <1>        0.000
     20 H          -0.8036   -2.4674   -5.6110 H.spc      1 <1>        0.000
@<TRIPOS>BOND
     1    6    7 2  
     2   10   11 am 
     3    9   10 1  
     4    8    9 2  
     5    5    6 am 
     6    4    5 1  
     7    1    2 1  
     8    1    8 1  
     9    2    3 1  
    10    3    4 2  
    11   11   12 2  
    12    3   13 1  
    13    4   14 1  
    14    5   15 1  
    15    6   16 1  
    16    8   17 1  
    17    9   18 1  
    18   10   19 1  
    19   11   20 1  
# Name:          frag3-195-6/31924
# Creation time: Sat Jun  5 12:52:12 2010


@<TRIPOS>MOLECULE
frag3-195-6/31924
   20    19     1     1     1
SMALL
USER_CHARGES


@<TRIPOS>ATOM
      1 S1          2.7428   -1.2852   -6.7922 S.3        1 <1>        0.000
      2 S2          4.0385   -1.6131   -5.2681 S.3        1 <1>        0.000
      3 C1          5.5426   -0.9595   -5.9813 C.2        1 <1>        0.000
      4 C2          6.5266   -1.8099   -6.3078 C.2        1 <1>        0.000
      5 N1          7.7160   -1.5137   -6.8901 N.am       1 <1>        0.000
      6 C9          8.1783   -0.3091   -7.3000 C.2        1 <1>        0.000
      7 O1          9.2366   -0.1111   -7.8717 O.2        1 <1>        0.000
      8 C20         1.1945   -1.2257   -5.9000 C.2        1 <1>        0.000
      9 C21         0.1827   -1.9990   -6.3168 C.2        1 <1>        0.000
     10 N5         -1.0473   -2.1181   -5.7603 N.am       1 <1>        0.000
     11 C28        -2.1066   -2.8502   -6.1818 C.2        1 <1>        0.000
     12 O4         -3.1903   -2.9152   -5.6268 O.2        1 <1>        0.000
     13 H           5.6575    0.1116   -6.1477 H.spc      1 <1>        0.000
     14 H           6.3507   -2.8610   -6.0789 H.spc      1 <1>        0.000
     15 H           8.3448   -2.3030   -7.0386 H.spc      1 <1>        0.000
     16 H           7.5497    0.5590   -7.1016 H.spc      1 <1>        0.000
     17 H           1.0761   -0.5736   -5.0346 H.spc      1 <1>        0.000
     18 H           0.3705   -2.6015   -7.2055 H.spc      1 <1>        0.000
     19 H          -1.1962   -1.5821   -4.9054 H.spc      1 <1>        0.000
     20 H          -1.9791   -3.4309   -7.0954 H.spc      1 <1>        0.000
@<TRIPOS>BOND
     1    6    7 2  
     2   10   11 am 
     3    9   10 1  
     4    8    9 2  
     5    5    6 am 
     6    4    5 1  
     7    1    2 1  
     8    1    8 1  
     9    2    3 1  
    10    3    4 2  
    11   11   12 2  
    12    3   13 1  
    13    4   14 1  
    14    5   15 1  
    15    6   16 1  
    16    8   17 1  
    17    9   18 1  
    18   10   19 1  
    19   11   20 1  
# Name:          frag3-195-6/31924
# Creation time: Sat Jun  5 12:52:12 2010


@<TRIPOS>MOLECULE
frag3-195-6/31924
   20    19     1     1     1
SMALL
USER_CHARGES


@<TRIPOS>ATOM
      1 S1          3.0471   -3.1754   -7.0970 S.3        1 <1>        0.000
      2 S2          4.0199   -3.5021   -5.3495 S.3        1 <1>        0.000
      3 C1          4.9626   -1.9910   -5.2236 C.2        1 <1>        0.000
      4 C2          5.6938   -1.5923   -6.2759 C.2        1 <1>        0.000
      5 N1          6.4398   -0.4674   -6.3915 N.am       1 <1>        0.000
      6 C9          7.1708   -0.0379   -7.4462 C.2        1 <1>        0.000
      7 O1          7.8705    0.9602   -7.4695 O.2        1 <1>        0.000
      8 C20         1.6001   -2.3100   -6.5128 C.2        1 <1>        0.000
      9 C21         0.3980   -2.6655   -6.9853 C.2        1 <1>        0.000
     10 N5         -0.8101   -2.1564   -6.6431 N.am       1 <1>        0.000
     11 C28        -1.0982   -1.1985   -5.7289 C.2        1 <1>        0.000
     12 O4         -0.2797   -0.5736   -5.0737 O.2        1 <1>        0.000
     13 H           4.9445   -1.4018   -4.3068 H.spc      1 <1>        0.000
     14 H           5.6866   -2.2535   -7.1424 H.spc      1 <1>        0.000
     15 H           6.4522    0.1388   -5.5713 H.spc      1 <1>        0.000
     16 H           7.1305   -0.6375   -8.3556 H.spc      1 <1>        0.000
     17 H           1.6928   -1.5053   -5.7834 H.spc      1 <1>        0.000
     18 H           0.3910   -3.4581   -7.7336 H.spc      1 <1>        0.000
     19 H          -1.6105   -2.5467   -7.1406 H.spc      1 <1>        0.000
     20 H          -2.1504   -0.9663   -5.5647 H.spc      1 <1>        0.000
@<TRIPOS>BOND
     1    6    7 2  
     2   10   11 am 
     3    9   10 1  
     4    8    9 2  
     5    5    6 am 
     6    4    5 1  
     7    1    2 1  
     8    1    8 1  
     9    2    3 1  
    10    3    4 2  
    11   11   12 2  
    12    3   13 1  
    13    4   14 1  
    14    5   15 1  
    15    6   16 1  
    16    8   17 1  
    17    9   18 1  
    18   10   19 1  
    19   11   20 1  
# Name:          frag3-195-6/31924
# Creation time: Sat Jun  5 12:52:12 2010


@<TRIPOS>MOLECULE
frag3-195-6/31924
   20    19     1     1     1
SMALL
USER_CHARGES


@<TRIPOS>ATOM
      1 S1          2.8961   -3.4488   -5.0831 S.3        1 <1>        0.000
      2 S2          3.9163   -3.5180   -6.8274 S.3        1 <1>        0.000
      3 C1          5.1240   -2.2381   -6.5566 C.2        1 <1>        0.000
      4 C2          5.6452   -1.5885   -7.6052 C.2        1 <1>        0.000
      5 N1          6.5378   -0.5719   -7.5954 N.am       1 <1>        0.000
      6 C9          7.0938    0.0558   -6.5325 C.2        1 <1>        0.000
      7 O1          7.8911    0.9762   -6.5828 O.2        1 <1>        0.000
      8 C20         1.3527   -2.7447   -5.6211 C.2        1 <1>        0.000
      9 C21         0.8366   -1.7061   -4.9517 C.2        1 <1>        0.000
     10 N5         -0.2988   -1.0214   -5.2245 N.am       1 <1>        0.000
     11 C28        -1.0876   -1.0936   -6.3241 C.2        1 <1>        0.000
     12 O4         -0.8926   -1.8109   -7.2925 O.2        1 <1>        0.000
     13 H           5.4371   -1.9849   -5.5437 H.spc      1 <1>        0.000
     14 H           5.3088   -1.9196   -8.5877 H.spc      1 <1>        0.000
     15 H           6.8312   -0.2329   -8.5116 H.spc      1 <1>        0.000
     16 H           6.8020   -0.2936   -5.5421 H.spc      1 <1>        0.000
     17 H           0.8327   -3.1548   -6.4869 H.spc      1 <1>        0.000
     18 H           1.3996   -1.3710   -4.0806 H.spc      1 <1>        0.000
     19 H          -0.6011   -0.3631   -4.5064 H.spc      1 <1>        0.000
     20 H          -1.9719   -0.4567   -6.3457 H.spc      1 <1>        0.000
@<TRIPOS>BOND
     1    6    7 2  
     2   10   11 am 
     3    9   10 1  
     4    8    9 2  
     5    5    6 am 
     6    4    5 1  
     7    1    2 1  
     8    1    8 1  
     9    2    3 1  
    10    3    4 2  
    11   11   12 2  
    12    3   13 1  
    13    4   14 1  
    14    5   15 1  
    15    6   16 1  
    16    8   17 1  
    17    9   18 1  
    18   10   19 1  
    19   11   20 1  
# Name:          frag3-195-6/31924
# Creation time: Sat Jun  5 12:52:12 2010


@<TRIPOS>MOLECULE
frag3-195-6/31924
   20    19     1     1     1
SMALL
USER_CHARGES


@<TRIPOS>ATOM
      1 S1          3.1050   -4.4265   -7.5272 S.3        1 <1>        0.000
      2 S2          4.8713   -4.0873   -6.5931 S.3        1 <1>        0.000
      3 C1          4.9388   -2.3017   -6.6766 C.2        1 <1>        0.000
      4 C2          5.6447   -1.6347   -5.7530 C.2        1 <1>        0.000
      5 N1          5.8443   -0.2944   -5.6711 N.am       1 <1>        0.000
      6 C9          5.2688    0.6887   -6.4025 C.2        1 <1>        0.000
      7 O1          4.3886    0.5330   -7.2328 O.2        1 <1>        0.000
      8 C20         1.9807   -3.6031   -6.4063 C.2        1 <1>        0.000
      9 C21         1.7200   -2.3020   -6.5970 C.2        1 <1>        0.000
     10 N5          0.8819   -1.5149   -5.8803 N.am       1 <1>        0.000
     11 C28         0.6129   -0.1956   -6.0310 C.2        1 <1>        0.000
     12 O4         -0.2426    0.4284   -5.4261 O.2        1 <1>        0.000
     13 H           4.4139   -1.7644   -7.4665 H.spc      1 <1>        0.000
     14 H           6.1135   -2.2393   -4.9766 H.spc      1 <1>        0.000
     15 H           6.5154    0.0118   -4.9666 H.spc      1 <1>        0.000
     16 H           5.6220    1.7062   -6.2353 H.spc      1 <1>        0.000
     17 H           1.5167   -4.1483   -5.5844 H.spc      1 <1>        0.000
     18 H           2.2427   -1.8219   -7.4243 H.spc      1 <1>        0.000
     19 H           0.3840   -1.9805   -5.1215 H.spc      1 <1>        0.000
     20 H           1.2128    0.3555   -6.7553 H.spc      1 <1>        0.000
@<TRIPOS>BOND
     1    6    7 2  
     2   10   11 am 
     3    9   10 1  
     4    8    9 2  
     5    5    6 am 
     6    4    5 1  
     7    1    2 1  
     8    1    8 1  
     9    2    3 1  
    10    3    4 2  
    11   11   12 2  
    12    3   13 1  
    13    4   14 1  
    14    5   15 1  
    15    6   16 1  
    16    8   17 1  
    17    9   18 1  
    18   10   19 1  
    19   11   20 1  
# Name:          frag3-195-6/31924
# Creation time: Sat Jun  5 12:52:12 2010


@<TRIPOS>MOLECULE
frag3-195-6/31924
   20    19     1     1     1
SMALL
USER_CHARGES


@<TRIPOS>ATOM
      1 S1          4.5246   -3.9534   -6.7421 S.3        1 <1>        0.000
      2 S2          3.1670   -3.4283   -5.3337 S.3        1 <1>        0.000
      3 C1          1.7303   -3.1540   -6.3537 C.2        1 <1>        0.000
      4 C2          0.8438   -2.2144   -6.0016 C.2        1 <1>        0.000
      5 N1         -0.2793   -1.8379   -6.6614 N.am       1 <1>        0.000
      6 C9         -1.2382   -0.9669   -6.2701 C.2        1 <1>        0.000
      7 O1         -1.2117   -0.2903   -5.2548 O.2        1 <1>        0.000
      8 C20         5.2789   -2.3735   -7.0780 C.2        1 <1>        0.000
      9 C21         5.7575   -1.6541   -6.0510 C.2        1 <1>        0.000
     10 N5          6.3848   -0.4575   -6.1012 N.am       1 <1>        0.000
     11 C28         6.7473    0.2696   -7.1858 C.2        1 <1>        0.000
     12 O4          7.3096    1.3509   -7.1634 O.2        1 <1>        0.000
     13 H           1.5752   -3.7459   -7.2557 H.spc      1 <1>        0.000
     14 H           1.0503   -1.6874   -5.0701 H.spc      1 <1>        0.000
     15 H          -0.4203   -2.2689   -7.5750 H.spc      1 <1>        0.000
     16 H          -2.1089   -0.8605   -6.9172 H.spc      1 <1>        0.000
     17 H           5.3501   -1.9985   -8.0990 H.spc      1 <1>        0.000
     18 H           5.6247   -2.0857   -5.0589 H.spc      1 <1>        0.000
     19 H           6.6174   -0.0450   -5.1978 H.spc      1 <1>        0.000
     20 H           6.5155   -0.1496   -8.1649 H.spc      1 <1>        0.000
@<TRIPOS>BOND
     1    6    7 2  
     2   10   11 am 
     3    9   10 1  
     4    8    9 2  
     5    5    6 am 
     6    4    5 1  
     7    1    2 1  
     8    1    8 1  
     9    2    3 1  
    10    3    4 2  
    11   11   12 2  
    12    3   13 1  
    13    4   14 1  
    14    5   15 1  
    15    6   16 1  
    16    8   17 1  
    17    9   18 1  
    18   10   19 1  
    19   11   20 1  
# Name:          frag3-195-6/31924
# Creation time: Sat Jun  5 12:52:12 2010


@<TRIPOS>MOLECULE
frag3-195-6/31924
   20    19     1     1     1
SMALL
USER_CHARGES


@<TRIPOS>ATOM
      1 S1          4.3908   -3.1169   -5.7081 S.3        1 <1>        0.000
      2 S2          2.7772   -2.8378   -6.9007 S.3        1 <1>        0.000
      3 C1          1.5070   -2.5843   -5.6691 C.2        1 <1>        0.000
      4 C2          0.2695   -2.2615   -6.0681 C.2        1 <1>        0.000
      5 N1         -0.8282   -2.0682   -5.2934 N.am       1 <1>        0.000
      6 C9         -2.0521   -1.6210   -5.6595 C.2        1 <1>        0.000
      7 O1         -2.3260   -1.0961   -6.7261 O.2        1 <1>        0.000
      8 C20         5.3876   -1.7069   -6.1666 C.2        1 <1>        0.000
      9 C21         6.6791   -1.9010   -6.4663 C.2        1 <1>        0.000
     10 N5          7.5816   -0.9727   -6.8645 N.am       1 <1>        0.000
     11 C28         7.3831    0.3345   -7.1619 C.2        1 <1>        0.000
     12 O4          8.2451    1.1222   -7.5126 O.2        1 <1>        0.000
     13 H           1.7359   -2.6908   -4.6087 H.spc      1 <1>        0.000
     14 H           0.1273   -2.1397   -7.1419 H.spc      1 <1>        0.000
     15 H          -0.7158   -2.2893   -4.3040 H.spc      1 <1>        0.000
     16 H          -2.8621   -1.7400   -4.9399 H.spc      1 <1>        0.000
     17 H           4.9534   -0.7077   -6.2019 H.spc      1 <1>        0.000
     18 H           7.0457   -2.9238   -6.3797 H.spc      1 <1>        0.000
     19 H           8.5426   -1.3029   -6.9526 H.spc      1 <1>        0.000
     20 H           6.3647    0.7145   -7.0805 H.spc      1 <1>        0.000
@<TRIPOS>BOND
     1    6    7 2  
     2   10   11 am 
     3    9   10 1  
     4    8    9 2  
     5    5    6 am 
     6    4    5 1  
     7    1    2 1  
     8    1    8 1  
     9    2    3 1  
    10    3    4 2  
    11   11   12 2  
    12    3   13 1  
    13    4   14 1  
    14    5   15 1  
    15    6   16 1  
    16    8   17 1  
    17    9   18 1  
    18   10   19 1  
    19   11   20 1  
# Name:          frag3-195-6/31924
# Creation time: Sat Jun  5 12:52:12 2010


@<TRIPOS>MOLECULE
frag3-195-6/31924
   20    19     1     1     1
SMALL
USER_CHARGES


@<TRIPOS>ATOM
      1 S1          4.2784   -2.8833   -5.8709 S.3        1 <1>        0.000
      2 S2          2.6030   -2.6885   -6.9984 S.3        1 <1>        0.000
      3 C1          1.3594   -2.6416   -5.7083 C.2        1 <1>        0.000
      4 C2          0.1148   -2.2590   -6.0291 C.2        1 <1>        0.000
      5 N1         -0.9657   -2.1957   -5.2075 N.am       1 <1>        0.000
      6 C9         -2.2466   -1.8900   -5.5213 C.2        1 <1>        0.000
      7 O1         -2.6209   -1.3979   -6.5724 O.2        1 <1>        0.000
      8 C20         5.1156   -1.3496   -6.2685 C.2        1 <1>        0.000
      9 C21         6.4088   -1.4009   -6.6175 C.2        1 <1>        0.000
     10 N5          7.2027   -0.3620   -6.9810 N.am       1 <1>        0.000
     11 C28         8.5554   -0.3062   -7.0404 C.2        1 <1>        0.000
     12 O4          9.2097    0.6647   -7.3817 O.2        1 <1>        0.000
     13 H           1.6097   -2.9184   -4.6842 H.spc      1 <1>        0.000
     14 H          -0.0486   -1.9656   -7.0661 H.spc      1 <1>        0.000
     15 H          -0.7883   -2.4062   -4.2253 H.spc      1 <1>        0.000
     16 H          -3.0081   -2.1017   -4.7707 H.spc      1 <1>        0.000
     17 H           4.5860   -0.3978   -6.2275 H.spc      1 <1>        0.000
     18 H           6.8744   -2.3864   -6.6083 H.spc      1 <1>        0.000
     19 H           6.7146    0.4937   -7.2456 H.spc      1 <1>        0.000
     20 H           9.1048   -1.2047   -6.7595 H.spc      1 <1>        0.000
@<TRIPOS>BOND
     1    6    7 2  
     2   10   11 am 
     3    9   10 1  
     4    8    9 2  
     5    5    6 am 
     6    4    5 1  
     7    1    2 1  
     8    1    8 1  
     9    2    3 1  
    10    3    4 2  
    11   11   12 2  
    12    3   13 1  
    13    4   14 1  
    14    5   15 1  
    15    6   16 1  
    16    8   17 1  
    17    9   18 1  
    18   10   19 1  
    19   11   20 1  
# Name:          frag3-195-6/31924
# Creation time: Sat Jun  5 12:52:12 2010


@<TRIPOS>MOLECULE
frag3-195-6/31924
   20    19     1     1     1
SMALL
USER_CHARGES


@<TRIPOS>ATOM
      1 S1          4.1467   -3.1235   -5.7604 S.3        1 <1>        0.000
      2 S2          3.0969   -2.5857   -7.4084 S.3        1 <1>        0.000
      3 C1          1.5871   -2.0062   -6.6512 C.2        1 <1>        0.000
      4 C2          0.4674   -2.7293   -6.7960 C.2        1 <1>        0.000
      5 N1         -0.7556   -2.4784   -6.2687 N.am       1 <1>        0.000
      6 C9         -1.1542   -1.4196   -5.5252 C.2        1 <1>        0.000
      7 O1         -2.2614   -1.2672   -5.0386 O.2        1 <1>        0.000
      8 C20         5.0264   -1.6068   -5.4239 C.2        1 <1>        0.000
      9 C21         6.0287   -1.2487   -6.2394 C.2        1 <1>        0.000
     10 N5          6.7899   -0.1297   -6.1729 N.am       1 <1>        0.000
     11 C28         7.8181    0.2493   -6.9693 C.2        1 <1>        0.000
     12 O4          8.2244   -0.3638   -7.9429 O.2        1 <1>        0.000
     13 H           1.5760   -1.0781   -6.0796 H.spc      1 <1>        0.000
     14 H           0.5506   -3.6255   -7.4109 H.spc      1 <1>        0.000
     15 H          -1.4709   -3.1807   -6.4571 H.spc      1 <1>        0.000
     16 H          -0.4202   -0.6340   -5.3458 H.spc      1 <1>        0.000
     17 H           4.7539   -0.9839   -4.5719 H.spc      1 <1>        0.000
     18 H           6.2581   -1.9389   -7.0513 H.spc      1 <1>        0.000
     19 H           6.5565    0.5165   -5.4191 H.spc      1 <1>        0.000
     20 H           8.3255    1.1810   -6.7192 H.spc      1 <1>        0.000
@<TRIPOS>BOND
     1    6    7 2  
     2   10   11 am 
     3    9   10 1  
     4    8    9 2  
     5    5    6 am 
     6    4    5 1  
     7    1    2 1  
     8    1    8 1  
     9    2    3 1  
    10    3    4 2  
    11   11   12 2  
    12    3   13 1  
    13    4   14 1  
    14    5   15 1  
    15    6   16 1  
    16    8   17 1  
    17    9   18 1  
    18   10   19 1  
    19   11   20 1  
# Name:          frag3-195-6/31924
# Creation time: Sat Jun  5 12:52:12 2010


@<TRIPOS>MOLECULE
frag3-195-6/31924
   20    19     1     1     1
SMALL
USER_CHARGES


@<TRIPOS>ATOM
      1 S1          3.2183   -3.0724   -5.3068 S.3        1 <1>        0.000
      2 S2          3.9938   -3.2990   -7.1628 S.3        1 <1>        0.000
      3 C1          5.0561   -1.8725   -7.2441 C.2        1 <1>        0.000
      4 C2          6.2098   -1.8754   -6.5583 C.2        1 <1>        0.000
      5 N1          7.1572   -0.9110   -6.5198 N.am       1 <1>        0.000
      6 C9          7.1233    0.3307   -7.0582 C.2        1 <1>        0.000
      7 O1          7.9872    1.1829   -6.9452 O.2        1 <1>        0.000
      8 C20         1.7131   -2.1986   -5.6790 C.2        1 <1>        0.000
      9 C21         0.5456   -2.8531   -5.6112 C.2        1 <1>        0.000
     10 N5         -0.6941   -2.3622   -5.8291 N.am       1 <1>        0.000
     11 C28        -1.0743   -1.0852   -6.0764 C.2        1 <1>        0.000
     12 O4         -2.2215   -0.6943   -6.2060 O.2        1 <1>        0.000
     13 H           4.7729   -1.0073   -7.8436 H.spc      1 <1>        0.000
     14 H           6.4075   -2.7640   -5.9588 H.spc      1 <1>        0.000
     15 H           8.0119   -1.1514   -6.0178 H.spc      1 <1>        0.000
     16 H           6.2434    0.5920   -7.6461 H.spc      1 <1>        0.000
     17 H           1.7405   -1.1454   -5.9583 H.spc      1 <1>        0.000
     18 H           0.6032   -3.9094   -5.3484 H.spc      1 <1>        0.000
     19 H          -1.4487   -3.0480   -5.8040 H.spc      1 <1>        0.000
     20 H          -0.2833   -0.3409   -6.1676 H.spc      1 <1>        0.000
@<TRIPOS>BOND
     1    6    7 2  
     2   10   11 am 
     3    9   10 1  
     4    8    9 2  
     5    5    6 am 
     6    4    5 1  
     7    1    2 1  
     8    1    8 1  
     9    2    3 1  
    10    3    4 2  
    11   11   12 2  
    12    3   13 1  
    13    4   14 1  
    14    5   15 1  
    15    6   16 1  
    16    8   17 1  
    17    9   18 1  
    18   10   19 1  
    19   11   20 1  
# Name:          frag3-195-6/31924
# Creation time: Sat Jun  5 12:52:12 2010


@<TRIPOS>MOLECULE
frag3-195-6/31924
   20    19     1     1     1
SMALL
USER_CHARGES


@<TRIPOS>ATOM
      1 S1          4.3176   -3.0135   -5.9940 S.3        1 <1>        0.000
      2 S2          2.7786   -2.0207   -5.1317 S.3        1 <1>        0.000
      3 C1          1.4168   -2.6013   -6.1293 C.2        1 <1>        0.000
      4 C2          0.1966   -2.0855   -5.9325 C.2        1 <1>        0.000
      5 N1         -0.9451   -2.3690   -6.6085 N.am       1 <1>        0.000
      6 C9         -2.2078   -1.9610   -6.3429 C.2        1 <1>        0.000
      7 O1         -2.5370   -1.2170   -5.4336 O.2        1 <1>        0.000
      8 C20         5.4674   -1.6764   -6.2660 C.2        1 <1>        0.000
      9 C21         6.6815   -1.9553   -6.7575 C.2        1 <1>        0.000
     10 N5          7.6718   -1.0824   -7.0571 N.am       1 <1>        0.000
     11 C28         7.6277    0.2712   -7.1065 C.2        1 <1>        0.000
     12 O4          8.5464    1.0012   -7.4372 O.2        1 <1>        0.000
     13 H           1.5764   -3.3662   -6.8893 H.spc      1 <1>        0.000
     14 H           0.1104   -1.3495   -5.1332 H.spc      1 <1>        0.000
     15 H          -0.8373   -2.9697   -7.4258 H.spc      1 <1>        0.000
     16 H          -2.9983   -2.3284   -6.9972 H.spc      1 <1>        0.000
     17 H           5.1860   -0.6488   -6.0357 H.spc      1 <1>        0.000
     18 H           6.8976   -3.0084   -6.9374 H.spc      1 <1>        0.000
     19 H           8.5758   -1.5012   -7.2758 H.spc      1 <1>        0.000
     20 H           6.6889    0.7489   -6.8261 H.spc      1 <1>        0.000
@<TRIPOS>BOND
     1    6    7 2  
     2   10   11 am 
     3    9   10 1  
     4    8    9 2  
     5    5    6 am 
     6    4    5 1  
     7    1    2 1  
     8    1    8 1  
     9    2    3 1  
    10    3    4 2  
    11   11   12 2  
    12    3   13 1  
    13    4   14 1  
    14    5   15 1  
    15    6   16 1  
    16    8   17 1  
    17    9   18 1  
    18   10   19 1  
    19   11   20 1  
# Name:          frag3-195-6/31924
# Creation time: Sat Jun  5 12:52:12 2010


@<TRIPOS>MOLECULE
frag3-195-6/31924
   20    19     1     1     1
SMALL
USER_CHARGES


@<TRIPOS>ATOM
      1 S1          3.0531   -2.9861   -6.7209 S.3        1 <1>        0.000
      2 S2          4.4088   -2.9249   -5.2167 S.3        1 <1>        0.000
      3 C1          5.5396   -1.7013   -5.8566 C.2        1 <1>        0.000
      4 C2          6.3472   -2.0320   -6.8759 C.2        1 <1>        0.000
      5 N1          7.2387   -1.2392   -7.5212 N.am       1 <1>        0.000
      6 C9          7.4503    0.0888   -7.3650 C.2        1 <1>        0.000
      7 O1          6.8722    0.8116   -6.5695 O.2        1 <1>        0.000
      8 C20         1.9166   -1.7154   -6.1935 C.2        1 <1>        0.000
      9 C21         0.6047   -1.9835   -6.1825 C.2        1 <1>        0.000
     10 N5         -0.4045   -1.1702   -5.7880 N.am       1 <1>        0.000
     11 C28        -1.7385   -1.4055   -5.7899 C.2        1 <1>        0.000
     12 O4         -2.2737   -2.4521   -6.1174 O.2        1 <1>        0.000
     13 H           5.5737   -0.7006   -5.4259 H.spc      1 <1>        0.000
     14 H           6.2785   -3.0614   -7.2276 H.spc      1 <1>        0.000
     15 H           7.8258   -1.7038   -8.2139 H.spc      1 <1>        0.000
     16 H           8.2014    0.5523   -8.0046 H.spc      1 <1>        0.000
     17 H           2.2844   -0.7367   -5.8853 H.spc      1 <1>        0.000
     18 H           0.3141   -2.9740   -6.5326 H.spc      1 <1>        0.000
     19 H          -0.1205   -0.2538   -5.4416 H.spc      1 <1>        0.000
     20 H          -2.3891   -0.5908   -5.4719 H.spc      1 <1>        0.000
@<TRIPOS>BOND
     1    6    7 2  
     2   10   11 am 
     3    9   10 1  
     4    8    9 2  
     5    5    6 am 
     6    4    5 1  
     7    1    2 1  
     8    1    8 1  
     9    2    3 1  
    10    3    4 2  
    11   11   12 2  
    12    3   13 1  
    13    4   14 1  
    14    5   15 1  
    15    6   16 1  
    16    8   17 1  
    17    9   18 1  
    18   10   19 1  
    19   11   20 1  
# Name:          frag3-195-6/31924
# Creation time: Sat Jun  5 12:52:12 2010


@<TRIPOS>MOLECULE
frag3-195-6/31924
   20    19     1     1     1
SMALL
USER_CHARGES


@<TRIPOS>ATOM
      1 S1          2.8112   -4.3881   -5.7902 S.3        1 <1>        0.000
      2 S2          4.2389   -3.9430   -7.1584 S.3        1 <1>        0.000
      3 C1          5.1394   -2.6730   -6.2758 C.2        1 <1>        0.000
      4 C2          5.6401   -1.6372   -6.9634 C.2        1 <1>        0.000
      5 N1          6.3130   -0.5656   -6.4731 N.am       1 <1>        0.000
      6 C9          6.4915    0.6517   -7.0375 C.2        1 <1>        0.000
      7 O1          7.0639    1.5970   -6.5223 O.2        1 <1>        0.000
      8 C20         1.8858   -2.8571   -5.7749 C.2        1 <1>        0.000
      9 C21         0.6108   -2.8734   -6.1874 C.2        1 <1>        0.000
     10 N5         -0.2565   -1.8325   -6.2221 N.am       1 <1>        0.000
     11 C28        -0.0629   -0.5504   -5.8282 C.2        1 <1>        0.000
     12 O4         -0.8606    0.3618   -5.9635 O.2        1 <1>        0.000
     13 H           5.2784   -2.7407   -5.1968 H.spc      1 <1>        0.000
     14 H           5.4891   -1.6580   -8.0427 H.spc      1 <1>        0.000
     15 H           6.7416   -0.6947   -5.5566 H.spc      1 <1>        0.000
     16 H           6.0886    0.7997   -8.0394 H.spc      1 <1>        0.000
     17 H           2.3494   -1.9302   -5.4371 H.spc      1 <1>        0.000
     18 H           0.2277   -3.8330   -6.5345 H.spc      1 <1>        0.000
     19 H          -1.1819   -2.0430   -6.5960 H.spc      1 <1>        0.000
     20 H           0.8874   -0.3144   -5.3494 H.spc      1 <1>        0.000
@<TRIPOS>BOND
     1    6    7 2  
     2   10   11 am 
     3    9   10 1  
     4    8    9 2  
     5    5    6 am 
     6    4    5 1  
     7    1    2 1  
     8    1    8 1  
     9    2    3 1  
    10    3    4 2  
    11   11   12 2  
    12    3   13 1  
    13    4   14 1  
    14    5   15 1  
    15    6   16 1  
    16    8   17 1  
    17    9   18 1  
    18   10   19 1  
    19   11   20 1  
# Name:          frag3-195-6/31924
# Creation time: Sat Jun  5 12:52:12 2010


@<TRIPOS>MOLECULE
frag3-195-6/31924
   20    19     1     1     1
SMALL
USER_CHARGES


@<TRIPOS>ATOM
      1 S1          4.0883   -2.8796   -5.2477 S.3        1 <1>        0.000
      2 S2          3.0615   -2.3789   -6.9216 S.3        1 <1>        0.000
      3 C1          1.4396   -2.0924   -6.2325 C.2        1 <1>        0.000
      4 C2          0.3620   -2.2559   -7.0120 C.2        1 <1>        0.000
      5 N1         -0.9413   -2.1254   -6.6630 N.am       1 <1>        0.000
      6 C9         -1.4657   -1.8344   -5.4493 C.2        1 <1>        0.000
      7 O1         -2.6515   -1.7035   -5.1987 O.2        1 <1>        0.000
      8 C20         5.3431   -1.6099   -5.2404 C.2        1 <1>        0.000
      9 C21         6.1040   -1.4508   -6.3336 C.2        1 <1>        0.000
     10 N5          7.0783   -0.5333   -6.5364 N.am       1 <1>        0.000
     11 C28         7.8748   -0.3569   -7.6180 C.2        1 <1>        0.000
     12 O4          8.7216    0.5113   -7.7438 O.2        1 <1>        0.000
     13 H           1.3275   -1.7886   -5.1917 H.spc      1 <1>        0.000
     14 H           0.5566   -2.5259   -8.0500 H.spc      1 <1>        0.000
     15 H          -1.6166   -2.2650   -7.4146 H.spc      1 <1>        0.000
     16 H          -0.7660   -1.7058   -4.6234 H.spc      1 <1>        0.000
     17 H           5.4881   -0.9766   -4.3652 H.spc      1 <1>        0.000
     18 H           5.9155   -2.1417   -7.1553 H.spc      1 <1>        0.000
     19 H           7.2349    0.1170   -5.7663 H.spc      1 <1>        0.000
     20 H           7.7475   -1.0517   -8.4482 H.spc      1 <1>        0.000
@<TRIPOS>BOND
     1    6    7 2  
     2   10   11 am 
     3    9   10 1  
     4    8    9 2  
     5    5    6 am 
     6    4    5 1  
     7    1    2 1  
     8    1    8 1  
     9    2    3 1  
    10    3    4 2  
    11   11   12 2  
    12    3   13 1  
    13    4   14 1  
    14    5   15 1  
    15    6   16 1  
    16    8   17 1  
    17    9   18 1  
    18   10   19 1  
    19   11   20 1  
# Name:          frag3-195-6/31924
# Creation time: Sat Jun  5 12:52:12 2010


@<TRIPOS>MOLECULE
frag3-195-6/31924
   20    19     1     1     1
SMALL
USER_CHARGES


@<TRIPOS>ATOM
      1 S1          2.7545   -3.2353   -7.2954 S.3        1 <1>        0.000
      2 S2          4.4872   -3.3665   -6.2476 S.3        1 <1>        0.000
      3 C1          4.8962   -1.6271   -6.0982 C.2        1 <1>        0.000
      4 C2          6.0175   -1.1790   -6.6816 C.2        1 <1>        0.000
      5 N1          6.4753    0.1002   -6.7130 N.am       1 <1>        0.000
      6 C9          7.7355    0.5392   -6.9405 C.2        1 <1>        0.000
      7 O1          8.7183   -0.1691   -7.0807 O.2        1 <1>        0.000
      8 C20         1.5742   -3.1085   -5.9525 C.2        1 <1>        0.000
      9 C21         0.4859   -2.3463   -6.1306 C.2        1 <1>        0.000
     10 N5         -0.5302   -2.1491   -5.2526 N.am       1 <1>        0.000
     11 C28        -1.6574   -1.4132   -5.4088 C.2        1 <1>        0.000
     12 O4         -1.9423   -0.7553   -6.3953 O.2        1 <1>        0.000
     13 H           4.2472   -0.9483   -5.5449 H.spc      1 <1>        0.000
     14 H           6.6307   -1.9247   -7.1875 H.spc      1 <1>        0.000
     15 H           5.7778    0.8247   -6.5428 H.spc      1 <1>        0.000
     16 H           7.8844    1.6171   -7.0037 H.spc      1 <1>        0.000
     17 H           1.7373   -3.6382   -5.0139 H.spc      1 <1>        0.000
     18 H           0.4084   -1.8276   -7.0861 H.spc      1 <1>        0.000
     19 H          -0.4320   -2.6188   -4.3525 H.spc      1 <1>        0.000
     20 H          -2.3692   -1.4090   -4.5833 H.spc      1 <1>        0.000
@<TRIPOS>BOND
     1    6    7 2  
     2   10   11 am 
     3    9   10 1  
     4    8    9 2  
     5    5    6 am 
     6    4    5 1  
     7    1    2 1  
     8    1    8 1  
     9    2    3 1  
    10    3    4 2  
    11   11   12 2  
    12    3   13 1  
    13    4   14 1  
    14    5   15 1  
    15    6   16 1  
    16    8   17 1  
    17    9   18 1  
    18   10   19 1  
    19   11   20 1  
# Name:          frag3-195-6/31924
# Creation time: Sat Jun  5 12:52:12 2010


@<TRIPOS>MOLECULE
frag3-195-6/31924
   20    19     1     1     1
SMALL
USER_CHARGES


@<TRIPOS>ATOM
      1 S1          2.8820   -3.7373   -7.1330 S.3        1 <1>        0.000
      2 S2          4.5082   -3.7024   -5.9249 S.3        1 <1>        0.000
      3 C1          5.1808   -2.0985   -6.3430 C.2        1 <1>        0.000
      4 C2          6.4870   -1.8714   -6.1475 C.2        1 <1>        0.000
      5 N1          7.1832   -0.7435   -6.4362 N.am       1 <1>        0.000
      6 C9          6.7399    0.3977   -7.0139 C.2        1 <1>        0.000
      7 O1          7.4095    1.3941   -7.2261 O.2        1 <1>        0.000
      8 C20         1.9808   -2.3245   -6.5085 C.2        1 <1>        0.000
      9 C21         0.6488   -2.4091   -6.3956 C.2        1 <1>        0.000
     10 N5         -0.2006   -1.4676   -5.9186 N.am       1 <1>        0.000
     11 C28        -1.5501   -1.5138   -5.8067 C.2        1 <1>        0.000
     12 O4         -2.2550   -0.6336   -5.3427 O.2        1 <1>        0.000
     13 H           4.5382   -1.3180   -6.7505 H.spc      1 <1>        0.000
     14 H           7.0566   -2.6885   -5.7048 H.spc      1 <1>        0.000
     15 H           8.1716   -0.7571   -6.1847 H.spc      1 <1>        0.000
     16 H           5.6929    0.4284   -7.3156 H.spc      1 <1>        0.000
     17 H           2.5054   -1.4120   -6.2252 H.spc      1 <1>        0.000
     18 H           0.1957   -3.3439   -6.7258 H.spc      1 <1>        0.000
     19 H           0.2369   -0.6033   -5.5991 H.spc      1 <1>        0.000
     20 H          -2.0487   -2.4156   -6.1621 H.spc      1 <1>        0.000
@<TRIPOS>BOND
     1    6    7 2  
     2   10   11 am 
     3    9   10 1  
     4    8    9 2  
     5    5    6 am 
     6    4    5 1  
     7    1    2 1  
     8    1    8 1  
     9    2    3 1  
    10    3    4 2  
    11   11   12 2  
    12    3   13 1  
    13    4   14 1  
    14    5   15 1  
    15    6   16 1  
    16    8   17 1  
    17    9   18 1  
    18   10   19 1  
    19   11   20 1  
# Name:          frag3-195-6/31924
# Creation time: Sat Jun  5 12:52:12 2010


@<TRIPOS>MOLECULE
frag3-195-6/31924
   20    19     1     1     1
SMALL
USER_CHARGES


@<TRIPOS>ATOM
      1 S1          4.3004   -3.3990   -6.6648 S.3        1 <1>        0.000
      2 S2          2.9878   -2.8443   -5.2256 S.3        1 <1>        0.000
      3 C1          1.4415   -3.1137   -6.0773 C.2        1 <1>        0.000
      4 C2          0.4231   -2.2701   -5.8635 C.2        1 <1>        0.000
      5 N1         -0.8050   -2.2867   -6.4401 N.am       1 <1>        0.000
      6 C9         -1.8394   -1.4350   -6.2496 C.2        1 <1>        0.000
      7 O1         -1.8327   -0.4642   -5.5105 O.2        1 <1>        0.000
      8 C20         5.2291   -1.8882   -6.8668 C.2        1 <1>        0.000
      9 C21         6.4973   -1.8475   -6.4348 C.2        1 <1>        0.000
     10 N5          7.3662   -0.8130   -6.5227 N.am       1 <1>        0.000
     11 C28         7.1991    0.3905   -7.1227 C.2        1 <1>        0.000
     12 O4          8.0472    1.2612   -7.2185 O.2        1 <1>        0.000
     13 H           1.3278   -3.9538   -6.7624 H.spc      1 <1>        0.000
     14 H           0.6025   -1.4752   -5.1396 H.spc      1 <1>        0.000
     15 H          -0.9707   -3.0416   -7.1058 H.spc      1 <1>        0.000
     16 H          -2.7568   -1.6332   -6.8038 H.spc      1 <1>        0.000
     17 H           4.7733   -1.0147   -7.3329 H.spc      1 <1>        0.000
     18 H           6.8727   -2.7525   -5.9572 H.spc      1 <1>        0.000
     19 H           8.2713   -0.9597   -6.0758 H.spc      1 <1>        0.000
     20 H           6.2214    0.5982   -7.5575 H.spc      1 <1>        0.000
@<TRIPOS>BOND
     1    6    7 2  
     2   10   11 am 
     3    9   10 1  
     4    8    9 2  
     5    5    6 am 
     6    4    5 1  
     7    1    2 1  
     8    1    8 1  
     9    2    3 1  
    10    3    4 2  
    11   11   12 2  
    12    3   13 1  
    13    4   14 1  
    14    5   15 1  
    15    6   16 1  
    16    8   17 1  
    17    9   18 1  
    18   10   19 1  
    19   11   20 1  
# Name:          frag3-195-6/31924
# Creation time: Sat Jun  5 12:52:12 2010


@<TRIPOS>MOLECULE
frag3-195-6/31924
   20    19     1     1     1
SMALL
USER_CHARGES


@<TRIPOS>ATOM
      1 S1          4.1042   -2.7368   -6.8745 S.3        1 <1>        0.000
      2 S2          2.7421   -2.8791   -5.3799 S.3        1 <1>        0.000
      3 C1          1.5016   -1.7313   -5.9693 C.2        1 <1>        0.000
      4 C2          0.2087   -2.0719   -5.8733 C.2        1 <1>        0.000
      5 N1         -0.8710   -1.3283   -6.2277 N.am       1 <1>        0.000
      6 C9         -2.1838   -1.6328   -6.1006 C.2        1 <1>        0.000
      7 O1         -2.6341   -2.7363   -5.8412 O.2        1 <1>        0.000
      8 C20         5.4710   -1.9826   -6.0004 C.2        1 <1>        0.000
      9 C21         6.3961   -1.3183   -6.7061 C.2        1 <1>        0.000
     10 N5          7.4804   -0.6587   -6.2276 N.am       1 <1>        0.000
     11 C28         8.4332    0.0200   -6.9113 C.2        1 <1>        0.000
     12 O4          8.3663    0.3461   -8.0848 O.2        1 <1>        0.000
     13 H           1.7923   -0.7725   -6.3986 H.spc      1 <1>        0.000
     14 H          -0.0002   -3.0600   -5.4634 H.spc      1 <1>        0.000
     15 H          -0.6656   -0.4204   -6.6448 H.spc      1 <1>        0.000
     16 H          -2.8995   -0.8229   -6.2421 H.spc      1 <1>        0.000
     17 H           5.5495   -2.0619   -4.9161 H.spc      1 <1>        0.000
     18 H           6.2621   -1.3066   -7.7878 H.spc      1 <1>        0.000
     19 H           7.5941   -0.6760   -5.2141 H.spc      1 <1>        0.000
     20 H           9.3356    0.2980   -6.3668 H.spc      1 <1>        0.000
@<TRIPOS>BOND
     1    6    7 2  
     2   10   11 am 
     3    9   10 1  
     4    8    9 2  
     5    5    6 am 
     6    4    5 1  
     7    1    2 1  
     8    1    8 1  
     9    2    3 1  
    10    3    4 2  
    11   11   12 2  
    12    3   13 1  
    13    4   14 1  
    14    5   15 1  
    15    6   16 1  
    16    8   17 1  
    17    9   18 1  
    18   10   19 1  
    19   11   20 1  
# Name:          frag3-195-6/31924
# Creation time: Sat Jun  5 12:52:12 2010


@<TRIPOS>MOLECULE
frag3-195-6/31924
   20    19     1     1     1
SMALL
USER_CHARGES


@<TRIPOS>ATOM
      1 S1          3.2370   -2.2923   -5.2565 S.3        1 <1>        0.000
      2 S2          4.1936   -2.9920   -6.8998 S.3        1 <1>        0.000
      3 C1          5.4896   -1.7737   -7.0580 C.2        1 <1>        0.000
      4 C2          6.5652   -1.8631   -6.2610 C.2        1 <1>        0.000
      5 N1          7.6610   -1.0630   -6.2529 N.am       1 <1>        0.000
      6 C9          7.8756    0.0770   -6.9508 C.2        1 <1>        0.000
      7 O1          7.0785    0.6071   -7.7075 O.2        1 <1>        0.000
      8 C20         1.7703   -1.5966   -5.9998 C.2        1 <1>        0.000
      9 C21         0.5745   -2.0928   -5.6552 C.2        1 <1>        0.000
     10 N5         -0.6442   -1.6863   -6.0823 N.am       1 <1>        0.000
     11 C28        -1.8665   -2.1861   -5.7801 C.2        1 <1>        0.000
     12 O4         -2.9199   -1.8481   -6.2929 O.2        1 <1>        0.000
     13 H           5.4081   -0.9704   -7.7902 H.spc      1 <1>        0.000
     14 H           6.5579   -2.6749   -5.5336 H.spc      1 <1>        0.000
     15 H           8.4220   -1.3589   -5.6415 H.spc      1 <1>        0.000
     16 H           8.8433    0.5630   -6.8261 H.spc      1 <1>        0.000
     17 H           1.8464   -0.7828   -6.7210 H.spc      1 <1>        0.000
     18 H           0.5839   -2.9217   -4.9474 H.spc      1 <1>        0.000
     19 H          -0.6417   -0.8917   -6.7218 H.spc      1 <1>        0.000
     20 H          -1.9123   -2.9577   -5.0115 H.spc      1 <1>        0.000
@<TRIPOS>BOND
     1    6    7 2  
     2   10   11 am 
     3    9   10 1  
     4    8    9 2  
     5    5    6 am 
     6    4    5 1  
     7    1    2 1  
     8    1    8 1  
     9    2    3 1  
    10    3    4 2  
    11   11   12 2  
    12    3   13 1  
    13    4   14 1  
    14    5   15 1  
    15    6   16 1  
    16    8   17 1  
    17    9   18 1  
    18   10   19 1  
    19   11   20 1  
# Name:          frag3-195-6/31924
# Creation time: Sat Jun  5 12:52:12 2010


@<TRIPOS>MOLECULE
frag3-195-6/31924
   20    19     1     1     1
SMALL
USER_CHARGES


@<TRIPOS>ATOM
      1 S1          2.6026   -1.6636   -6.8136 S.3        1 <1>        0.000
      2 S2          4.0046   -2.0146   -5.3897 S.3        1 <1>        0.000
      3 C1          5.2602   -0.8360   -5.8873 C.2        1 <1>        0.000
      4 C2          6.4053   -1.2991   -6.4093 C.2        1 <1>        0.000
      5 N1          7.4524   -0.5702   -6.8769 N.am       1 <1>        0.000
      6 C9          8.5837   -1.0085   -7.4773 C.2        1 <1>        0.000
      7 O1          9.5286   -0.3107   -7.8047 O.2        1 <1>        0.000
      8 C20         1.1697   -1.3472   -5.7852 C.2        1 <1>        0.000
      9 C21         0.0267   -1.9870   -6.0697 C.2        1 <1>        0.000
     10 N5         -1.1489   -1.9060   -5.3965 N.am       1 <1>        0.000
     11 C28        -2.3334   -2.5002   -5.6802 C.2        1 <1>        0.000
     12 O4         -2.5370   -3.2668   -6.6065 O.2        1 <1>        0.000
     13 H           5.0963    0.2350   -5.7680 H.spc      1 <1>        0.000
     14 H           6.5077   -2.3829   -6.4648 H.spc      1 <1>        0.000
     15 H           7.3759    0.4402   -6.7601 H.spc      1 <1>        0.000
     16 H           8.6562   -2.0759   -7.6858 H.spc      1 <1>        0.000
     17 H           1.2262   -0.6511   -4.9483 H.spc      1 <1>        0.000
     18 H           0.0433   -2.6454   -6.9382 H.spc      1 <1>        0.000
     19 H          -1.1397   -1.3176   -4.5633 H.spc      1 <1>        0.000
     20 H          -3.1749   -2.2739   -5.0254 H.spc      1 <1>        0.000
@<TRIPOS>BOND
     1    6    7 2  
     2   10   11 am 
     3    9   10 1  
     4    8    9 2  
     5    5    6 am 
     6    4    5 1  
     7    1    2 1  
     8    1    8 1  
     9    2    3 1  
    10    3    4 2  
    11   11   12 2  
    12    3   13 1  
    13    4   14 1  
    14    5   15 1  
    15    6   16 1  
    16    8   17 1  
    17    9   18 1  
    18   10   19 1  
    19   11   20 1  
# Name:          frag3-195-6/31924
# Creation time: Sat Jun  5 12:52:12 2010


@<TRIPOS>MOLECULE
frag3-195-6/31924
   20    19     1     1     1
SMALL
USER_CHARGES


@<TRIPOS>ATOM
      1 S1          3.2430   -3.9878   -7.4951 S.3        1 <1>        0.000
      2 S2          4.1811   -4.0145   -5.6966 S.3        1 <1>        0.000
      3 C1          4.5279   -2.2691   -5.4955 C.2        1 <1>        0.000
      4 C2          5.4421   -1.6978   -6.2933 C.2        1 <1>        0.000
      5 N1          5.8136   -0.3921   -6.3214 N.am       1 <1>        0.000
      6 C9          6.6734    0.2236   -7.1664 C.2        1 <1>        0.000
      7 O1          6.9886    1.4008   -7.1253 O.2        1 <1>        0.000
      8 C20         1.5926   -3.5099   -6.9921 C.2        1 <1>        0.000
      9 C21         1.4021   -2.2714   -6.5154 C.2        1 <1>        0.000
     10 N5          0.2323   -1.7154   -6.1140 N.am       1 <1>        0.000
     11 C28         0.0068   -0.4793   -5.6068 C.2        1 <1>        0.000
     12 O4         -1.0889    0.0030   -5.3749 O.2        1 <1>        0.000
     13 H           4.0061   -1.6825   -4.7394 H.spc      1 <1>        0.000
     14 H           5.9447   -2.3576   -7.0005 H.spc      1 <1>        0.000
     15 H           5.3883    0.2041   -5.6114 H.spc      1 <1>        0.000
     16 H           7.1226   -0.3853   -7.9510 H.spc      1 <1>        0.000
     17 H           0.7612   -4.2103   -7.0717 H.spc      1 <1>        0.000
     18 H           2.2876   -1.6401   -6.4422 H.spc      1 <1>        0.000
     19 H          -0.5915   -2.3096   -6.2066 H.spc      1 <1>        0.000
     20 H           0.8791    0.1364   -5.3874 H.spc      1 <1>        0.000
@<TRIPOS>BOND
     1    6    7 2  
     2   10   11 am 
     3    9   10 1  
     4    8    9 2  
     5    5    6 am 
     6    4    5 1  
     7    1    2 1  
     8    1    8 1  
     9    2    3 1  
    10    3    4 2  
    11   11   12 2  
    12    3   13 1  
    13    4   14 1  
    14    5   15 1  
    15    6   16 1  
    16    8   17 1  
    17    9   18 1  
    18   10   19 1  
    19   11   20 1  
# Name:          frag3-195-6/31924
# Creation time: Sat Jun  5 12:52:12 2010


@<TRIPOS>MOLECULE
frag3-195-6/31924
   20    19     1     1     1
SMALL
USER_CHARGES


@<TRIPOS>ATOM
      1 S1          2.8414   -4.1343   -5.0710 S.3        1 <1>        0.000
      2 S2          4.0823   -4.5297   -6.6241 S.3        1 <1>        0.000
      3 C1          5.2188   -3.1572   -6.4803 C.2        1 <1>        0.000
      4 C2          4.7945   -1.9263   -6.8028 C.2        1 <1>        0.000
      5 N1          5.4867   -0.7630   -6.7240 N.am       1 <1>        0.000
      6 C9          5.0572    0.4969   -6.9688 C.2        1 <1>        0.000
      7 O1          5.7458    1.5026   -6.9359 O.2        1 <1>        0.000
      8 C20         1.8631   -2.8076   -5.7612 C.2        1 <1>        0.000
      9 C21         1.7854   -1.6478   -5.0945 C.2        1 <1>        0.000
     10 N5          1.1257   -0.5237   -5.4667 N.am       1 <1>        0.000
     11 C28         0.4890   -0.2608   -6.6337 C.2        1 <1>        0.000
     12 O4          0.5247   -0.9589   -7.6339 O.2        1 <1>        0.000
     13 H           6.2404   -3.3181   -6.1360 H.spc      1 <1>        0.000
     14 H           3.7716   -1.8524   -7.1721 H.spc      1 <1>        0.000
     15 H           6.4632   -0.8491   -6.4421 H.spc      1 <1>        0.000
     16 H           4.0035    0.6236   -7.2171 H.spc      1 <1>        0.000
     17 H           1.3389   -2.9395   -6.7077 H.spc      1 <1>        0.000
     18 H           2.3141   -1.6031   -4.1423 H.spc      1 <1>        0.000
     19 H           1.1058    0.2256   -4.7749 H.spc      1 <1>        0.000
     20 H          -0.1054    0.6515   -6.6831 H.spc      1 <1>        0.000
@<TRIPOS>BOND
     1    6    7 2  
     2   10   11 am 
     3    9   10 1  
     4    8    9 2  
     5    5    6 am 
     6    4    5 1  
     7    1    2 1  
     8    1    8 1  
     9    2    3 1  
    10    3    4 2  
    11   11   12 2  
    12    3   13 1  
    13    4   14 1  
    14    5   15 1  
    15    6   16 1  
    16    8   17 1  
    17    9   18 1  
    18   10   19 1  
    19   11   20 1  
# Name:          frag3-195-6/31924
# Creation time: Sat Jun  5 12:52:12 2010


@<TRIPOS>MOLECULE
frag3-195-6/31924
   20    19     1     1     1
SMALL
USER_CHARGES


@<TRIPOS>ATOM
      1 S1          4.0078   -3.7333   -6.6521 S.3        1 <1>        0.000
      2 S2          3.3541   -2.7964   -4.9784 S.3        1 <1>        0.000
      3 C1          1.6210   -2.6242   -5.3605 C.2        1 <1>        0.000
      4 C2          1.1228   -1.4056   -5.6128 C.2        1 <1>        0.000
      5 N1         -0.1464   -1.0821   -5.9570 N.am       1 <1>        0.000
      6 C9         -1.2162   -1.8984   -6.1058 C.2        1 <1>        0.000
      7 O1         -2.3270   -1.5585   -6.4750 O.2        1 <1>        0.000
      8 C20         4.8529   -2.3943   -7.4719 C.2        1 <1>        0.000
      9 C21         5.7825   -1.7052   -6.7928 C.2        1 <1>        0.000
     10 N5          6.5479   -0.6836   -7.2392 N.am       1 <1>        0.000
     11 C28         7.4219    0.0940   -6.5565 C.2        1 <1>        0.000
     12 O4          7.9934    1.0777   -6.9950 O.2        1 <1>        0.000
     13 H           0.9735   -3.5006   -5.3886 H.spc      1 <1>        0.000
     14 H           1.8238   -0.5749   -5.5311 H.spc      1 <1>        0.000
     15 H          -0.3194   -0.0913   -6.1268 H.spc      1 <1>        0.000
     16 H          -1.0712   -2.9537   -5.8748 H.spc      1 <1>        0.000
     17 H           4.6186   -2.1403   -8.5057 H.spc      1 <1>        0.000
     18 H           5.9397   -2.0049   -5.7567 H.spc      1 <1>        0.000
     19 H           6.4536   -0.4678   -8.2316 H.spc      1 <1>        0.000
     20 H           7.6329   -0.1842   -5.5240 H.spc      1 <1>        0.000
@<TRIPOS>BOND
     1    6    7 2  
     2   10   11 am 
     3    9   10 1  
     4    8    9 2  
     5    5    6 am 
     6    4    5 1  
     7    1    2 1  
     8    1    8 1  
     9    2    3 1  
    10    3    4 2  
    11   11   12 2  
    12    3   13 1  
    13    4   14 1  
    14    5   15 1  
    15    6   16 1  
    16    8   17 1  
    17    9   18 1  
    18   10   19 1  
    19   11   20 1  
# Name:          frag3-195-6/31924
# Creation time: Sat Jun  5 12:52:12 2010


@<TRIPOS>MOLECULE
frag3-195-6/31924
   20    19     1     1     1
SMALL
USER_CHARGES


@<TRIPOS>ATOM
      1 S1          2.7002   -4.3205   -6.3139 S.3        1 <1>        0.000
      2 S2          4.6088   -3.9375   -6.8907 S.3        1 <1>        0.000
      3 C1          4.9390   -2.4657   -5.9181 C.2        1 <1>        0.000
      4 C2          5.6637   -1.4826   -6.4730 C.2        1 <1>        0.000
      5 N1          5.9860   -0.2846   -5.9163 N.am       1 <1>        0.000
      6 C9          6.6455    0.7553   -6.4788 C.2        1 <1>        0.000
      7 O1          7.2667    0.7167   -7.5272 O.2        1 <1>        0.000
      8 C20         1.8612   -2.8991   -7.0173 C.2        1 <1>        0.000
      9 C21         1.0227   -2.2059   -6.2336 C.2        1 <1>        0.000
     10 N5          0.3227   -1.0915   -6.5684 N.am       1 <1>        0.000
     11 C28        -0.7469   -0.5410   -5.9440 C.2        1 <1>        0.000
     12 O4         -1.2552   -0.9533   -4.9153 O.2        1 <1>        0.000
     13 H           4.5596   -2.3728   -4.9005 H.spc      1 <1>        0.000
     14 H           6.0352   -1.6642   -7.4815 H.spc      1 <1>        0.000
     15 H           5.6925   -0.1522   -4.9485 H.spc      1 <1>        0.000
     16 H           6.6189    1.7078   -5.9496 H.spc      1 <1>        0.000
     17 H           2.0287   -2.6069   -8.0540 H.spc      1 <1>        0.000
     18 H           0.8884   -2.5771   -5.2176 H.spc      1 <1>        0.000
     19 H           0.6457   -0.6023   -7.4031 H.spc      1 <1>        0.000
     20 H          -1.1898    0.3446   -6.3997 H.spc      1 <1>        0.000
@<TRIPOS>BOND
     1    6    7 2  
     2   10   11 am 
     3    9   10 1  
     4    8    9 2  
     5    5    6 am 
     6    4    5 1  
     7    1    2 1  
     8    1    8 1  
     9    2    3 1  
    10    3    4 2  
    11   11   12 2  
    12    3   13 1  
    13    4   14 1  
    14    5   15 1  
    15    6   16 1  
    16    8   17 1  
    17    9   18 1  
    18   10   19 1  
    19   11   20 1  
# Name:          frag3-195-6/31924
# Creation time: Sat Jun  5 12:52:12 2010


@<TRIPOS>MOLECULE
frag3-195-6/31924
   20    19     1     1     1
SMALL
USER_CHARGES


@<TRIPOS>ATOM
      1 S1          2.6922   -2.6742   -5.6955 S.3        1 <1>        0.000
      2 S2          4.1422   -2.3892   -7.0823 S.3        1 <1>        0.000
      3 C1          5.3759   -1.5573   -6.0893 C.2        1 <1>        0.000
      4 C2          6.4992   -1.1260   -6.6793 C.2        1 <1>        0.000
      5 N1          7.5265   -0.4468   -6.1074 N.am       1 <1>        0.000
      6 C9          8.6643    0.0054   -6.6845 C.2        1 <1>        0.000
      7 O1          8.9529   -0.1036   -7.8647 O.2        1 <1>        0.000
      8 C20         1.2486   -2.1646   -6.6196 C.2        1 <1>        0.000
      9 C21         0.0498   -2.2259   -6.0249 C.2        1 <1>        0.000
     10 N5         -1.1480   -1.8593   -6.5445 N.am       1 <1>        0.000
     11 C28        -2.3787   -1.9375   -5.9830 C.2        1 <1>        0.000
     12 O4         -2.6104   -2.2307   -4.8218 O.2        1 <1>        0.000
     13 H           5.2166   -1.4037   -5.0220 H.spc      1 <1>        0.000
     14 H           6.5999   -1.3461   -7.7421 H.spc      1 <1>        0.000
     15 H           7.4277   -0.2515   -5.1112 H.spc      1 <1>        0.000
     16 H           9.3839    0.5099   -6.0398 H.spc      1 <1>        0.000
     17 H           1.3422   -1.8111   -7.6464 H.spc      1 <1>        0.000
     18 H           0.0355   -2.6150   -5.0068 H.spc      1 <1>        0.000
     19 H          -1.1184   -1.4715   -7.4874 H.spc      1 <1>        0.000
     20 H          -3.2339   -1.7201   -6.6229 H.spc      1 <1>        0.000
@<TRIPOS>BOND
     1    6    7 2  
     2   10   11 am 
     3    9   10 1  
     4    8    9 2  
     5    5    6 am 
     6    4    5 1  
     7    1    2 1  
     8    1    8 1  
     9    2    3 1  
    10    3    4 2  
    11   11   12 2  
    12    3   13 1  
    13    4   14 1  
    14    5   15 1  
    15    6   16 1  
    16    8   17 1  
    17    9   18 1  
    18   10   19 1  
    19   11   20 1  
# Name:          frag3-195-6/31924
# Creation time: Sat Jun  5 12:52:12 2010


@<TRIPOS>MOLECULE
frag3-195-6/31924
   20    19     1     1     1
SMALL
USER_CHARGES


@<TRIPOS>ATOM
      1 S1          2.8938   -4.6421   -6.0937 S.3        1 <1>        0.000
      2 S2          4.7003   -4.3413   -6.9655 S.3        1 <1>        0.000
      3 C1          5.2783   -2.9357   -6.0188 C.2        1 <1>        0.000
      4 C2          5.0120   -1.7009   -6.4688 C.2        1 <1>        0.000
      5 N1          5.3292   -0.5196   -5.8783 N.am       1 <1>        0.000
      6 C9          4.9523    0.7303   -6.2356 C.2        1 <1>        0.000
      7 O1          4.0747    1.0046   -7.0371 O.2        1 <1>        0.000
      8 C20         1.9165   -3.4003   -6.9345 C.2        1 <1>        0.000
      9 C21         1.7799   -2.1962   -6.3616 C.2        1 <1>        0.000
     10 N5          1.1115   -1.1226   -6.8519 N.am       1 <1>        0.000
     11 C28         0.8692    0.0716   -6.2593 C.2        1 <1>        0.000
     12 O4          1.0968    0.3422   -5.0918 O.2        1 <1>        0.000
     13 H           5.8363   -3.0811   -5.0938 H.spc      1 <1>        0.000
     14 H           4.4796   -1.6379   -7.4179 H.spc      1 <1>        0.000
     15 H           5.9309   -0.5827   -5.0571 H.spc      1 <1>        0.000
     16 H           5.4777    1.5626   -5.7673 H.spc      1 <1>        0.000
     17 H           1.4427   -3.6185   -7.8916 H.spc      1 <1>        0.000
     18 H           2.2603   -2.0650   -5.3920 H.spc      1 <1>        0.000
     19 H           0.7404   -1.2288   -7.7961 H.spc      1 <1>        0.000
     20 H           0.4343    0.8566   -6.8779 H.spc      1 <1>        0.000
@<TRIPOS>BOND
     1    6    7 2  
     2   10   11 am 
     3    9   10 1  
     4    8    9 2  
     5    5    6 am 
     6    4    5 1  
     7    1    2 1  
     8    1    8 1  
     9    2    3 1  
    10    3    4 2  
    11   11   12 2  
    12    3   13 1  
    13    4   14 1  
    14    5   15 1  
    15    6   16 1  
    16    8   17 1  
    17    9   18 1  
    18   10   19 1  
    19   11   20 1  
# Name:          frag3-195-6/31924
# Creation time: Sat Jun  5 12:52:12 2010


@<TRIPOS>MOLECULE
frag3-195-6/31924
   20    19     1     1     1
SMALL
USER_CHARGES


@<TRIPOS>ATOM
      1 S1          2.9292   -4.1348   -5.8536 S.3        1 <1>        0.000
      2 S2          4.5299   -3.9412   -7.0824 S.3        1 <1>        0.000
      3 C1          5.5285   -2.8040   -6.1280 C.2        1 <1>        0.000
      4 C2          5.6764   -1.5463   -6.5679 C.2        1 <1>        0.000
      5 N1          6.3567   -0.5348   -5.9696 N.am       1 <1>        0.000
      6 C9          6.4547    0.7594   -6.3536 C.2        1 <1>        0.000
      7 O1          6.1228    1.2042   -7.4398 O.2        1 <1>        0.000
      8 C20         1.6878   -3.2516   -6.7907 C.2        1 <1>        0.000
      9 C21         0.9460   -2.3281   -6.1646 C.2        1 <1>        0.000
     10 N5         -0.0152   -1.5383   -6.7045 N.am       1 <1>        0.000
     11 C28        -0.6902   -0.5103   -6.1357 C.2        1 <1>        0.000
     12 O4         -0.5120   -0.0840   -5.0067 O.2        1 <1>        0.000
     13 H           6.0084   -3.1283   -5.2046 H.spc      1 <1>        0.000
     14 H           5.1945   -1.3079   -7.5161 H.spc      1 <1>        0.000
     15 H           6.8605   -0.7832   -5.1182 H.spc      1 <1>        0.000
     16 H           6.8652    1.4642   -5.6306 H.spc      1 <1>        0.000
     17 H           1.5378   -3.4605   -7.8499 H.spc      1 <1>        0.000
     18 H           1.1369   -2.1965   -5.0995 H.spc      1 <1>        0.000
     19 H          -0.2642   -1.7467   -7.6714 H.spc      1 <1>        0.000
     20 H          -1.4572   -0.0231   -6.7378 H.spc      1 <1>        0.000
@<TRIPOS>BOND
     1    6    7 2  
     2   10   11 am 
     3    9   10 1  
     4    8    9 2  
     5    5    6 am 
     6    4    5 1  
     7    1    2 1  
     8    1    8 1  
     9    2    3 1  
    10    3    4 2  
    11   11   12 2  
    12    3   13 1  
    13    4   14 1  
    14    5   15 1  
    15    6   16 1  
    16    8   17 1  
    17    9   18 1  
    18   10   19 1  
    19   11   20 1  
# Name:          frag3-195-6/31924
# Creation time: Sat Jun  5 12:52:12 2010


@<TRIPOS>MOLECULE
frag3-195-6/31924
   20    19     1     1     1
SMALL
USER_CHARGES


@<TRIPOS>ATOM
      1 S1          2.5500   -1.4214   -5.5283 S.3        1 <1>        0.000
      2 S2          4.1689   -2.5536   -5.9842 S.3        1 <1>        0.000
      3 C1          5.1893   -1.3333   -6.8053 C.2        1 <1>        0.000
      4 C2          6.5003   -1.2959   -6.5277 C.2        1 <1>        0.000
      5 N1          7.4370   -0.4759   -7.0695 N.am       1 <1>        0.000
      6 C9          8.7704   -0.4475   -6.8388 C.2        1 <1>        0.000
      7 O1          9.5909    0.1752   -7.4912 O.2        1 <1>        0.000
      8 C20         1.2368   -2.4587   -6.1620 C.2        1 <1>        0.000
      9 C21        -0.0298   -2.0424   -6.0295 C.2        1 <1>        0.000
     10 N5         -1.1517   -2.6667   -6.4673 N.am       1 <1>        0.000
     11 C28        -2.4393   -2.4579   -6.1005 C.2        1 <1>        0.000
     12 O4         -2.8083   -1.7317   -5.1926 O.2        1 <1>        0.000
     13 H           4.7527   -0.6335   -7.5179 H.spc      1 <1>        0.000
     14 H           6.8553   -2.0059   -5.7807 H.spc      1 <1>        0.000
     15 H           7.0896    0.2101   -7.7397 H.spc      1 <1>        0.000
     16 H           9.1428   -1.0317   -5.9973 H.spc      1 <1>        0.000
     17 H           1.4625   -3.4091   -6.6456 H.spc      1 <1>        0.000
     18 H          -0.1752   -1.0946   -5.5112 H.spc      1 <1>        0.000
     19 H          -1.0061   -3.3928   -7.1687 H.spc      1 <1>        0.000
     20 H          -3.2103   -2.9831   -6.6643 H.spc      1 <1>        0.000
@<TRIPOS>BOND
     1    6    7 2  
     2   10   11 am 
     3    9   10 1  
     4    8    9 2  
     5    5    6 am 
     6    4    5 1  
     7    1    2 1  
     8    1    8 1  
     9    2    3 1  
    10    3    4 2  
    11   11   12 2  
    12    3   13 1  
    13    4   14 1  
    14    5   15 1  
    15    6   16 1  
    16    8   17 1  
    17    9   18 1  
    18   10   19 1  
    19   11   20 1  
# Name:          frag3-195-6/31924
# Creation time: Sat Jun  5 12:52:12 2010


@<TRIPOS>MOLECULE
frag3-195-6/31924
   20    19     1     1     1
SMALL
USER_CHARGES


@<TRIPOS>ATOM
      1 S1          4.7020   -4.1010   -5.8281 S.3        1 <1>        0.000
      2 S2          3.0377   -3.9234   -6.9697 S.3        1 <1>        0.000
      3 C1          1.8989   -3.2427   -5.7753 C.2        1 <1>        0.000
      4 C2          1.0580   -2.2706   -6.1522 C.2        1 <1>        0.000
      5 N1          0.1047   -1.6587   -5.4062 N.am       1 <1>        0.000
      6 C9         -0.6344   -0.5665   -5.7096 C.2        1 <1>        0.000
      7 O1         -0.6695   -0.0123   -6.7962 O.2        1 <1>        0.000
      8 C20         5.3206   -2.4283   -5.8889 C.2        1 <1>        0.000
      9 C21         5.5257   -1.8591   -7.0866 C.2        1 <1>        0.000
     10 N5          5.9555   -0.6019   -7.3408 N.am       1 <1>        0.000
     11 C28         6.1601    0.4198   -6.4743 C.2        1 <1>        0.000
     12 O4          6.5553    1.5348   -6.7689 O.2        1 <1>        0.000
     13 H           1.8880   -3.6141   -4.7506 H.spc      1 <1>        0.000
     14 H           1.1511   -1.9300   -7.1834 H.spc      1 <1>        0.000
     15 H          -0.0797   -2.0778   -4.4947 H.spc      1 <1>        0.000
     16 H          -1.2512   -0.1458   -4.9154 H.spc      1 <1>        0.000
     17 H           5.5280   -1.8793   -4.9704 H.spc      1 <1>        0.000
     18 H           5.3221   -2.4830   -7.9569 H.spc      1 <1>        0.000
     19 H           6.1528   -0.3943   -8.3198 H.spc      1 <1>        0.000
     20 H           5.9531    0.2278   -5.4215 H.spc      1 <1>        0.000
@<TRIPOS>BOND
     1    6    7 2  
     2   10   11 am 
     3    9   10 1  
     4    8    9 2  
     5    5    6 am 
     6    4    5 1  
     7    1    2 1  
     8    1    8 1  
     9    2    3 1  
    10    3    4 2  
    11   11   12 2  
    12    3   13 1  
    13    4   14 1  
    14    5   15 1  
    15    6   16 1  
    16    8   17 1  
    17    9   18 1  
    18   10   19 1  
    19   11   20 1  
# Name:          frag3-195-6/31924
# Creation time: Sat Jun  5 12:52:12 2010


@<TRIPOS>MOLECULE
frag3-195-6/31924
   20    19     1     1     1
SMALL
USER_CHARGES


@<TRIPOS>ATOM
      1 S1          4.1930   -3.3679   -7.7952 S.3        1 <1>        0.000
      2 S2          2.7185   -4.4223   -6.8880 S.3        1 <1>        0.000
      3 C1          1.4607   -3.1561   -6.7532 C.2        1 <1>        0.000
      4 C2          1.0687   -2.7604   -5.5335 C.2        1 <1>        0.000
      5 N1          0.1646   -1.7954   -5.2285 N.am       1 <1>        0.000
      6 C9         -0.3104   -0.8039   -6.0185 C.2        1 <1>        0.000
      7 O1         -1.0461    0.0997   -5.6597 O.2        1 <1>        0.000
      8 C20         4.6065   -2.2040   -6.5007 C.2        1 <1>        0.000
      9 C21         5.5354   -1.2710   -6.7479 C.2        1 <1>        0.000
     10 N5          5.9610   -0.2901   -5.9137 N.am       1 <1>        0.000
     11 C28         6.9633    0.6039   -6.0933 C.2        1 <1>        0.000
     12 O4          7.6993    0.6576   -7.0646 O.2        1 <1>        0.000
     13 H           1.0209   -2.7142   -7.6473 H.spc      1 <1>        0.000
     14 H           1.5296   -3.2732   -4.6892 H.spc      1 <1>        0.000
     15 H          -0.2060   -1.8204   -4.2785 H.spc      1 <1>        0.000
     16 H          -0.0090   -0.8143   -7.0660 H.spc      1 <1>        0.000
     17 H           4.1124   -2.2531   -5.5303 H.spc      1 <1>        0.000
     18 H           6.0026   -1.3040   -7.7321 H.spc      1 <1>        0.000
     19 H           5.4575   -0.2150   -5.0298 H.spc      1 <1>        0.000
     20 H           7.1256    1.3370   -5.3031 H.spc      1 <1>        0.000
@<TRIPOS>BOND
     1    6    7 2  
     2   10   11 am 
     3    9   10 1  
     4    8    9 2  
     5    5    6 am 
     6    4    5 1  
     7    1    2 1  
     8    1    8 1  
     9    2    3 1  
    10    3    4 2  
    11   11   12 2  
    12    3   13 1  
    13    4   14 1  
    14    5   15 1  
    15    6   16 1  
    16    8   17 1  
    17    9   18 1  
    18   10   19 1  
    19   11   20 1  
# Name:          frag3-195-6/31924
# Creation time: Sat Jun  5 12:52:12 2010


@<TRIPOS>MOLECULE
frag3-195-6/31924
   20    19     1     1     1
SMALL
USER_CHARGES


@<TRIPOS>ATOM
      1 S1          2.9991   -3.9140   -5.1216 S.3        1 <1>        0.000
      2 S2          3.9674   -4.2006   -6.8787 S.3        1 <1>        0.000
      3 C1          5.3100   -3.0381   -6.6951 C.2        1 <1>        0.000
      4 C2          5.0523   -1.7246   -6.7837 C.2        1 <1>        0.000
      5 N1          5.9199   -0.6950   -6.6346 N.am       1 <1>        0.000
      6 C9          5.7156    0.6256   -6.8487 C.2        1 <1>        0.000
      7 O1          6.5442    1.5080   -6.7031 O.2        1 <1>        0.000
      8 C20         1.9822   -2.5059   -5.5312 C.2        1 <1>        0.000
      9 C21         0.7570   -2.7177   -6.0327 C.2        1 <1>        0.000
     10 N5         -0.1683   -1.7900   -6.3769 N.am       1 <1>        0.000
     11 C28        -0.0362   -0.4427   -6.4374 C.2        1 <1>        0.000
     12 O4          0.9712    0.1851   -6.1533 O.2        1 <1>        0.000
     13 H           6.3252   -3.3909   -6.5135 H.spc      1 <1>        0.000
     14 H           4.0196   -1.4528   -7.0022 H.spc      1 <1>        0.000
     15 H           6.8552   -0.9500   -6.3176 H.spc      1 <1>        0.000
     16 H           4.7221    0.9271   -7.1808 H.spc      1 <1>        0.000
     17 H           2.3506   -1.4918   -5.3764 H.spc      1 <1>        0.000
     18 H           0.4717   -3.7592   -6.1810 H.spc      1 <1>        0.000
     19 H          -1.0883   -2.1548   -6.6238 H.spc      1 <1>        0.000
     20 H          -0.9034    0.1290   -6.7679 H.spc      1 <1>        0.000
@<TRIPOS>BOND
     1    6    7 2  
     2   10   11 am 
     3    9   10 1  
     4    8    9 2  
     5    5    6 am 
     6    4    5 1  
     7    1    2 1  
     8    1    8 1  
     9    2    3 1  
    10    3    4 2  
    11   11   12 2  
    12    3   13 1  
    13    4   14 1  
    14    5   15 1  
    15    6   16 1  
    16    8   17 1  
    17    9   18 1  
    18   10   19 1  
    19   11   20 1  
# Name:          frag3-195-6/31924
# Creation time: Sat Jun  5 12:52:13 2010


@<TRIPOS>MOLECULE
frag3-195-6/31924
   20    19     1     1     1
SMALL
USER_CHARGES


@<TRIPOS>ATOM
      1 S1          4.1304   -1.9749   -5.8302 S.3        1 <1>        0.000
      2 S2          2.4964   -1.9154   -7.0301 S.3        1 <1>        0.000
      3 C1          1.2221   -1.5923   -5.8135 C.2        1 <1>        0.000
      4 C2         -0.0109   -2.0727   -6.0289 C.2        1 <1>        0.000
      5 N1         -1.0923   -1.9673   -5.2134 N.am       1 <1>        0.000
      6 C9         -2.3404   -2.4569   -5.4001 C.2        1 <1>        0.000
      7 O1         -2.7058   -3.1216   -6.3551 O.2        1 <1>        0.000
      8 C20         5.1761   -0.7713   -6.6451 C.2        1 <1>        0.000
      9 C21         6.4997   -0.9807   -6.6609 C.2        1 <1>        0.000
     10 N5          7.4473   -0.2080   -7.2490 N.am       1 <1>        0.000
     11 C28         8.7936   -0.3621   -7.2436 C.2        1 <1>        0.000
     12 O4          9.3985   -1.2867   -6.7270 O.2        1 <1>        0.000
     13 H           1.4448   -1.0162   -4.9154 H.spc      1 <1>        0.000
     14 H          -0.1631   -2.6092   -6.9654 H.spc      1 <1>        0.000
     15 H          -0.9442   -1.4512   -4.3461 H.spc      1 <1>        0.000
     16 H          -3.0819   -2.2385   -4.6316 H.spc      1 <1>        0.000
     17 H           4.7459    0.1117   -7.1176 H.spc      1 <1>        0.000
     18 H           6.8548   -1.8718   -6.1432 H.spc      1 <1>        0.000
     19 H           7.0986    0.5993   -7.7659 H.spc      1 <1>        0.000
     20 H           9.3858    0.4048   -7.7429 H.spc      1 <1>        0.000
@<TRIPOS>BOND
     1    6    7 2  
     2   10   11 am 
     3    9   10 1  
     4    8    9 2  
     5    5    6 am 
     6    4    5 1  
     7    1    2 1  
     8    1    8 1  
     9    2    3 1  
    10    3    4 2  
    11   11   12 2  
    12    3   13 1  
    13    4   14 1  
    14    5   15 1  
    15    6   16 1  
    16    8   17 1  
    17    9   18 1  
    18   10   19 1  
    19   11   20 1  
# Name:          frag3-195-6/31924
# Creation time: Sat Jun  5 12:52:13 2010


@<TRIPOS>MOLECULE
frag3-195-6/31924
   20    19     1     1     1
SMALL
USER_CHARGES


@<TRIPOS>ATOM
      1 S1          2.7913   -3.5186   -5.8194 S.3        1 <1>        0.000
      2 S2          4.3461   -3.2389   -7.0898 S.3        1 <1>        0.000
      3 C1          5.4281   -2.2558   -6.0578 C.2        1 <1>        0.000
      4 C2          6.1273   -1.2591   -6.6185 C.2        1 <1>        0.000
      5 N1          6.9641   -0.3860   -6.0007 N.am       1 <1>        0.000
      6 C9          7.8431    0.4789   -6.5588 C.2        1 <1>        0.000
      7 O1          8.0675    0.5906   -7.7526 O.2        1 <1>        0.000
      8 C20         1.4628   -2.7751   -6.7589 C.2        1 <1>        0.000
      9 C21         0.4333   -2.2315   -6.0958 C.2        1 <1>        0.000
     10 N5         -0.6446   -1.5992   -6.6230 N.am       1 <1>        0.000
     11 C28        -1.7880   -1.2114   -6.0082 C.2        1 <1>        0.000
     12 O4         -2.0166   -1.3038   -4.8135 O.2        1 <1>        0.000
     13 H           5.5171   -2.4639   -4.9916 H.spc      1 <1>        0.000
     14 H           6.0107   -1.1350   -7.6951 H.spc      1 <1>        0.000
     15 H           6.9251   -0.3814   -4.9815 H.spc      1 <1>        0.000
     16 H           8.3976    1.1311   -5.8841 H.spc      1 <1>        0.000
     17 H           1.4903   -2.7646   -7.8485 H.spc      1 <1>        0.000
     18 H           0.4657   -2.3059   -5.0088 H.spc      1 <1>        0.000
     19 H          -0.5865   -1.3865   -7.6189 H.spc      1 <1>        0.000
     20 H          -2.5696   -0.7805   -6.6339 H.spc      1 <1>        0.000
@<TRIPOS>BOND
     1    6    7 2  
     2   10   11 am 
     3    9   10 1  
     4    8    9 2  
     5    5    6 am 
     6    4    5 1  
     7    1    2 1  
     8    1    8 1  
     9    2    3 1  
    10    3    4 2  
    11   11   12 2  
    12    3   13 1  
    13    4   14 1  
    14    5   15 1  
    15    6   16 1  
    16    8   17 1  
    17    9   18 1  
    18   10   19 1  
    19   11   20 1  
# Name:          frag3-195-6/31924
# Creation time: Sat Jun  5 12:52:13 2010


@<TRIPOS>MOLECULE
frag3-195-6/31924
   20    19     1     1     1
SMALL
USER_CHARGES


@<TRIPOS>ATOM
      1 S1          4.3335   -4.0842   -5.8477 S.3        1 <1>        0.000
      2 S2          3.1306   -3.9858   -7.4754 S.3        1 <1>        0.000
      3 C1          2.1193   -2.5827   -7.0455 C.2        1 <1>        0.000
      4 C2          1.1897   -2.7168   -6.0869 C.2        1 <1>        0.000
      5 N1          0.3591   -1.7679   -5.5960 N.am       1 <1>        0.000
      6 C9          0.1625   -0.5040   -6.0396 C.2        1 <1>        0.000
      7 O1         -0.5967    0.3145   -5.5506 O.2        1 <1>        0.000
      8 C20         5.6388   -2.9740   -6.3361 C.2        1 <1>        0.000
      9 C21         5.4034   -1.6540   -6.3420 C.2        1 <1>        0.000
     10 N5          6.2652   -0.6574   -6.6530 N.am       1 <1>        0.000
     11 C28         6.0406    0.6770   -6.7113 C.2        1 <1>        0.000
     12 O4          4.9683    1.2255   -6.5128 O.2        1 <1>        0.000
     13 H           2.2540   -1.6283   -7.5544 H.spc      1 <1>        0.000
     14 H           1.0918   -3.7109   -5.6507 H.spc      1 <1>        0.000
     15 H          -0.1927   -2.0415   -4.7830 H.spc      1 <1>        0.000
     16 H           0.7347   -0.1902   -6.9127 H.spc      1 <1>        0.000
     17 H           6.6151   -3.3625   -6.6260 H.spc      1 <1>        0.000
     18 H           4.3959   -1.3460   -6.0625 H.spc      1 <1>        0.000
     19 H           7.2162   -0.9525   -6.8742 H.spc      1 <1>        0.000
     20 H           6.8895    1.3153   -6.9563 H.spc      1 <1>        0.000
@<TRIPOS>BOND
     1    6    7 2  
     2   10   11 am 
     3    9   10 1  
     4    8    9 2  
     5    5    6 am 
     6    4    5 1  
     7    1    2 1  
     8    1    8 1  
     9    2    3 1  
    10    3    4 2  
    11   11   12 2  
    12    3   13 1  
    13    4   14 1  
    14    5   15 1  
    15    6   16 1  
    16    8   17 1  
    17    9   18 1  
    18   10   19 1  
    19   11   20 1  
# Name:          frag3-195-6/31924
# Creation time: Sat Jun  5 12:52:13 2010


@<TRIPOS>MOLECULE
frag3-195-6/31924
   20    19     1     1     1
SMALL
USER_CHARGES


@<TRIPOS>ATOM
      1 S1          2.5298   -4.3459   -6.5436 S.3        1 <1>        0.000
      2 S2          4.1632   -3.6614   -7.5287 S.3        1 <1>        0.000
      3 C1          4.8445   -2.5638   -6.2905 C.2        1 <1>        0.000
      4 C2          5.3932   -1.4055   -6.6824 C.2        1 <1>        0.000
      5 N1          5.9232   -0.4326   -5.8976 N.am       1 <1>        0.000
      6 C9          6.6731    0.6328   -6.2645 C.2        1 <1>        0.000
      7 O1          7.0464    0.8807   -7.3990 O.2        1 <1>        0.000
      8 C20         1.5631   -2.8452   -6.4309 C.2        1 <1>        0.000
      9 C21         0.7229   -2.6968   -5.3978 C.2        1 <1>        0.000
     10 N5         -0.0652   -1.6282   -5.1228 N.am       1 <1>        0.000
     11 C28        -0.1714   -0.4565   -5.7955 C.2        1 <1>        0.000
     12 O4          0.3919   -0.1874   -6.8436 O.2        1 <1>        0.000
     13 H           4.8138   -2.8329   -5.2347 H.spc      1 <1>        0.000
     14 H           5.4167   -1.2233   -7.7568 H.spc      1 <1>        0.000
     15 H           5.7308   -0.5155   -4.8994 H.spc      1 <1>        0.000
     16 H           6.9686    1.3286   -5.4792 H.spc      1 <1>        0.000
     17 H           1.6557   -2.0665   -7.1880 H.spc      1 <1>        0.000
     18 H           0.6664   -3.5307   -4.6982 H.spc      1 <1>        0.000
     19 H          -0.6584   -1.7184   -4.2980 H.spc      1 <1>        0.000
     20 H          -0.8145    0.3103   -5.3635 H.spc      1 <1>        0.000
@<TRIPOS>BOND
     1    6    7 2  
     2   10   11 am 
     3    9   10 1  
     4    8    9 2  
     5    5    6 am 
     6    4    5 1  
     7    1    2 1  
     8    1    8 1  
     9    2    3 1  
    10    3    4 2  
    11   11   12 2  
    12    3   13 1  
    13    4   14 1  
    14    5   15 1  
    15    6   16 1  
    16    8   17 1  
    17    9   18 1  
    18   10   19 1  
    19   11   20 1  
# Name:          frag3-195-6/31924
# Creation time: Sat Jun  5 12:52:13 2010


@<TRIPOS>MOLECULE
frag3-195-6/31924
   20    19     1     1     1
SMALL
USER_CHARGES


@<TRIPOS>ATOM
      1 S1          3.1596   -3.6357   -4.8897 S.3        1 <1>        0.000
      2 S2          4.0253   -3.9646   -6.6939 S.3        1 <1>        0.000
      3 C1          5.5346   -3.0225   -6.4964 C.2        1 <1>        0.000
      4 C2          5.5491   -1.7376   -6.8799 C.2        1 <1>        0.000
      5 N1          6.5762   -0.8552   -6.7766 N.am       1 <1>        0.000
      6 C9          6.5734    0.4756   -7.0237 C.2        1 <1>        0.000
      7 O1          5.5801    1.1658   -7.1805 O.2        1 <1>        0.000
      8 C20         2.4395   -2.0205   -5.1639 C.2        1 <1>        0.000
      9 C21         1.1898   -1.9495   -5.6435 C.2        1 <1>        0.000
     10 N5          0.4644   -0.8300   -5.8888 N.am       1 <1>        0.000
     11 C28        -0.7207   -0.7090   -6.5344 C.2        1 <1>        0.000
     12 O4         -1.3569   -1.6266   -7.0255 O.2        1 <1>        0.000
     13 H           6.4258   -3.4849   -6.0721 H.spc      1 <1>        0.000
     14 H           4.6302   -1.3574   -7.3262 H.spc      1 <1>        0.000
     15 H           7.4675   -1.2471   -6.4726 H.spc      1 <1>        0.000
     16 H           7.5413    0.9728   -7.0880 H.spc      1 <1>        0.000
     17 H           3.0047   -1.1144   -4.9457 H.spc      1 <1>        0.000
     18 H           0.7011   -2.8992   -5.8610 H.spc      1 <1>        0.000
     19 H           0.8661    0.0400   -5.5394 H.spc      1 <1>        0.000
     20 H          -1.1410    0.2928   -6.6223 H.spc      1 <1>        0.000
@<TRIPOS>BOND
     1    6    7 2  
     2   10   11 am 
     3    9   10 1  
     4    8    9 2  
     5    5    6 am 
     6    4    5 1  
     7    1    2 1  
     8    1    8 1  
     9    2    3 1  
    10    3    4 2  
    11   11   12 2  
    12    3   13 1  
    13    4   14 1  
    14    5   15 1  
    15    6   16 1  
    16    8   17 1  
    17    9   18 1  
    18   10   19 1  
    19   11   20 1  
# Name:          frag3-195-6/31924
# Creation time: Sat Jun  5 12:52:13 2010


@<TRIPOS>MOLECULE
frag3-195-6/31924
   20    19     1     1     1
SMALL
USER_CHARGES


@<TRIPOS>ATOM
      1 S1          4.0053   -2.8817   -6.9511 S.3        1 <1>        0.000
      2 S2          2.9931   -2.6910   -5.2109 S.3        1 <1>        0.000
      3 C1          1.3397   -2.4243   -5.8180 C.2        1 <1>        0.000
      4 C2          0.3423   -2.2268   -4.9465 C.2        1 <1>        0.000
      5 N1         -0.9600   -1.9743   -5.2160 N.am       1 <1>        0.000
      6 C9         -1.5630   -1.8354   -6.4202 C.2        1 <1>        0.000
      7 O1         -2.6752   -1.3755   -6.6128 O.2        1 <1>        0.000
      8 C20         5.2838   -1.6610   -6.7351 C.2        1 <1>        0.000
      9 C21         6.4212   -1.7770   -7.4317 C.2        1 <1>        0.000
     10 N5          7.4857   -0.9434   -7.4244 N.am       1 <1>        0.000
     11 C28         7.6555    0.2160   -6.7438 C.2        1 <1>        0.000
     12 O4          8.6861    0.8645   -6.6863 O.2        1 <1>        0.000
     13 H           1.1415   -2.4219   -6.8898 H.spc      1 <1>        0.000
     14 H           0.6120   -2.2753   -3.8915 H.spc      1 <1>        0.000
     15 H          -1.5683   -1.8755   -4.4032 H.spc      1 <1>        0.000
     16 H          -1.0037   -2.1644   -7.2960 H.spc      1 <1>        0.000
     17 H           5.1421   -0.8298   -6.0444 H.spc      1 <1>        0.000
     18 H           6.4983   -2.6478   -8.0827 H.spc      1 <1>        0.000
     19 H           8.2695   -1.2264   -8.0126 H.spc      1 <1>        0.000
     20 H           6.7941    0.6031   -6.1995 H.spc      1 <1>        0.000
@<TRIPOS>BOND
     1    6    7 2  
     2   10   11 am 
     3    9   10 1  
     4    8    9 2  
     5    5    6 am 
     6    4    5 1  
     7    1    2 1  
     8    1    8 1  
     9    2    3 1  
    10    3    4 2  
    11   11   12 2  
    12    3   13 1  
    13    4   14 1  
    14    5   15 1  
    15    6   16 1  
    16    8   17 1  
    17    9   18 1  
    18   10   19 1  
    19   11   20 1  
# Name:          frag3-195-6/31924
# Creation time: Sat Jun  5 12:52:13 2010


@<TRIPOS>MOLECULE
frag3-195-6/31924
   20    19     1     1     1
SMALL
USER_CHARGES


@<TRIPOS>ATOM
      1 S1          3.9273   -0.9585   -4.8219 S.3        1 <1>        0.000
      2 S2          2.8406   -0.5636   -6.4848 S.3        1 <1>        0.000
      3 C1          1.4171   -1.5991   -6.1955 C.2        1 <1>        0.000
      4 C2          0.1976   -1.1331   -6.4975 C.2        1 <1>        0.000
      5 N1         -0.9889   -1.7766   -6.3828 N.am       1 <1>        0.000
      6 C9         -1.2392   -3.0023   -5.8653 C.2        1 <1>        0.000
      7 O1         -2.3339   -3.5321   -5.7845 O.2        1 <1>        0.000
      8 C20         5.2687   -1.9031   -5.5216 C.2        1 <1>        0.000
      9 C21         6.1705   -1.2731   -6.2886 C.2        1 <1>        0.000
     10 N5          7.2669   -1.8021   -6.8826 N.am       1 <1>        0.000
     11 C28         8.2269   -1.1795   -7.6078 C.2        1 <1>        0.000
     12 O4          8.2609    0.0131   -7.8640 O.2        1 <1>        0.000
     13 H           1.5378   -2.5988   -5.7781 H.spc      1 <1>        0.000
     14 H           0.1552   -0.1139   -6.8816 H.spc      1 <1>        0.000
     15 H          -1.8021   -1.2702   -6.7330 H.spc      1 <1>        0.000
     16 H          -0.3859   -3.5654   -5.4873 H.spc      1 <1>        0.000
     17 H           5.3539   -2.9726   -5.3294 H.spc      1 <1>        0.000
     18 H           6.0011   -0.2091   -6.4536 H.spc      1 <1>        0.000
     19 H           7.3862   -2.8086   -6.7680 H.spc      1 <1>        0.000
     20 H           9.0378   -1.7962   -7.9954 H.spc      1 <1>        0.000
@<TRIPOS>BOND
     1    6    7 2  
     2   10   11 am 
     3    9   10 1  
     4    8    9 2  
     5    5    6 am 
     6    4    5 1  
     7    1    2 1  
     8    1    8 1  
     9    2    3 1  
    10    3    4 2  
    11   11   12 2  
    12    3   13 1  
    13    4   14 1  
    14    5   15 1  
    15    6   16 1  
    16    8   17 1  
    17    9   18 1  
    18   10   19 1  
    19   11   20 1  
# Name:          frag3-195-6/31924
# Creation time: Sat Jun  5 12:52:13 2010


@<TRIPOS>MOLECULE
frag3-195-6/31924
   20    19     1     1     1
SMALL
USER_CHARGES


@<TRIPOS>ATOM
      1 S1          2.9008   -3.5062   -7.0143 S.3        1 <1>        0.000
      2 S2          3.9237   -3.4081   -5.2676 S.3        1 <1>        0.000
      3 C1          4.6581   -1.7875   -5.4170 C.2        1 <1>        0.000
      4 C2          5.6686   -1.6091   -6.2810 C.2        1 <1>        0.000
      5 N1          6.3262   -0.4592   -6.5653 N.am       1 <1>        0.000
      6 C9          7.4291   -0.2782   -7.3285 C.2        1 <1>        0.000
      7 O1          7.9816    0.7875   -7.5414 O.2        1 <1>        0.000
      8 C20         1.3422   -2.7894   -6.5225 C.2        1 <1>        0.000
      9 C21         1.1398   -1.4791   -6.7208 C.2        1 <1>        0.000
     10 N5          0.0238   -0.7627   -6.4433 N.am       1 <1>        0.000
     11 C28        -1.0893   -1.1519   -5.7756 C.2        1 <1>        0.000
     12 O4         -1.2902   -2.2661   -5.3197 O.2        1 <1>        0.000
     13 H           4.2910   -0.9560   -4.8154 H.spc      1 <1>        0.000
     14 H           6.0008   -2.4967   -6.8195 H.spc      1 <1>        0.000
     15 H           5.9368    0.3856   -6.1469 H.spc      1 <1>        0.000
     16 H           7.8617   -1.1637   -7.7941 H.spc      1 <1>        0.000
     17 H           0.5674   -3.4070   -6.0682 H.spc      1 <1>        0.000
     18 H           1.9710   -0.9248   -7.1566 H.spc      1 <1>        0.000
     19 H           0.0211    0.1992   -6.7827 H.spc      1 <1>        0.000
     20 H          -1.8718   -0.4065   -5.6336 H.spc      1 <1>        0.000
@<TRIPOS>BOND
     1    6    7 2  
     2   10   11 am 
     3    9   10 1  
     4    8    9 2  
     5    5    6 am 
     6    4    5 1  
     7    1    2 1  
     8    1    8 1  
     9    2    3 1  
    10    3    4 2  
    11   11   12 2  
    12    3   13 1  
    13    4   14 1  
    14    5   15 1  
    15    6   16 1  
    16    8   17 1  
    17    9   18 1  
    18   10   19 1  
    19   11   20 1  
# Name:          frag3-195-6/31924
# Creation time: Sat Jun  5 12:52:13 2010


@<TRIPOS>MOLECULE
frag3-195-6/31924
   20    19     1     1     1
SMALL
USER_CHARGES


@<TRIPOS>ATOM
      1 S1          4.7361   -3.6952   -5.8843 S.3        1 <1>        0.000
      2 S2          3.0378   -3.6709   -6.9874 S.3        1 <1>        0.000
      3 C1          1.8669   -3.1054   -5.7626 C.2        1 <1>        0.000
      4 C2          0.8643   -2.3013   -6.1401 C.2        1 <1>        0.000
      5 N1         -0.1360   -1.8025   -5.3710 N.am       1 <1>        0.000
      6 C9         -1.0826   -0.8934   -5.7011 C.2        1 <1>        0.000
      7 O1         -1.0878   -0.2088   -6.7111 O.2        1 <1>        0.000
      8 C20         5.3216   -2.0286   -6.1439 C.2        1 <1>        0.000
      9 C21         6.4118   -1.8377   -6.8998 C.2        1 <1>        0.000
     10 N5          6.9874   -0.6585   -7.2384 N.am       1 <1>        0.000
     11 C28         6.5478    0.6002   -6.9959 C.2        1 <1>        0.000
     12 O4          5.5472    0.8923   -6.3613 O.2        1 <1>        0.000
     13 H           1.9670   -3.4108   -4.7211 H.spc      1 <1>        0.000
     14 H           0.8504   -2.0131   -7.1912 H.spc      1 <1>        0.000
     15 H          -0.1805   -2.1604   -4.4169 H.spc      1 <1>        0.000
     16 H          -1.9112   -0.7615   -5.0053 H.spc      1 <1>        0.000
     17 H           4.8019   -1.1818   -5.6958 H.spc      1 <1>        0.000
     18 H           6.8917   -2.7362   -7.2877 H.spc      1 <1>        0.000
     19 H           7.8706   -0.7277   -7.7439 H.spc      1 <1>        0.000
     20 H           7.1381    1.4215   -7.4022 H.spc      1 <1>        0.000
@<TRIPOS>BOND
     1    6    7 2  
     2   10   11 am 
     3    9   10 1  
     4    8    9 2  
     5    5    6 am 
     6    4    5 1  
     7    1    2 1  
     8    1    8 1  
     9    2    3 1  
    10    3    4 2  
    11   11   12 2  
    12    3   13 1  
    13    4   14 1  
    14    5   15 1  
    15    6   16 1  
    16    8   17 1  
    17    9   18 1  
    18   10   19 1  
    19   11   20 1  
# Name:          frag3-195-6/31924
# Creation time: Sat Jun  5 12:52:13 2010


@<TRIPOS>MOLECULE
frag3-195-6/31924
   20    19     1     1     1
SMALL
USER_CHARGES


@<TRIPOS>ATOM
      1 S1          3.2916   -3.4648   -5.5713 S.3        1 <1>        0.000
      2 S2          4.2508   -3.3679   -7.3492 S.3        1 <1>        0.000
      3 C1          5.1595   -1.8497   -7.1441 C.2        1 <1>        0.000
      4 C2          6.4645   -1.9020   -6.8399 C.2        1 <1>        0.000
      5 N1          7.3263   -0.8688   -6.6784 N.am       1 <1>        0.000
      6 C9          7.0566    0.4579   -6.6769 C.2        1 <1>        0.000
      7 O1          5.9499    0.9586   -6.5549 O.2        1 <1>        0.000
      8 C20         1.8881   -2.4165   -5.8913 C.2        1 <1>        0.000
      9 C21         0.6742   -2.8062   -5.4820 C.2        1 <1>        0.000
     10 N5         -0.4960   -2.1424   -5.6072 N.am       1 <1>        0.000
     11 C28        -0.7321   -0.9268   -6.1577 C.2        1 <1>        0.000
     12 O4         -1.8188   -0.3813   -6.2439 O.2        1 <1>        0.000
     13 H           4.6601   -0.8883   -7.2646 H.spc      1 <1>        0.000
     14 H           6.8840   -2.8991   -6.7060 H.spc      1 <1>        0.000
     15 H           8.3043   -1.1235   -6.5401 H.spc      1 <1>        0.000
     16 H           7.9004    1.1377   -6.7948 H.spc      1 <1>        0.000
     17 H           2.0157   -1.4687   -6.4142 H.spc      1 <1>        0.000
     18 H           0.6240   -3.7765   -4.9879 H.spc      1 <1>        0.000
     19 H          -1.3155   -2.6230   -5.2358 H.spc      1 <1>        0.000
     20 H           0.1265   -0.3887   -6.5593 H.spc      1 <1>        0.000
@<TRIPOS>BOND
     1    6    7 2  
     2   10   11 am 
     3    9   10 1  
     4    8    9 2  
     5    5    6 am 
     6    4    5 1  
     7    1    2 1  
     8    1    8 1  
     9    2    3 1  
    10    3    4 2  
    11   11   12 2  
    12    3   13 1  
    13    4   14 1  
    14    5   15 1  
    15    6   16 1  
    16    8   17 1  
    17    9   18 1  
    18   10   19 1  
    19   11   20 1  
# Name:          frag3-195-6/31924
# Creation time: Sat Jun  5 12:52:13 2010


@<TRIPOS>MOLECULE
frag3-195-6/31924
   20    19     1     1     1
SMALL
USER_CHARGES


@<TRIPOS>ATOM
      1 S1          2.6850   -4.2931   -5.4334 S.3        1 <1>        0.000
      2 S2          4.2701   -4.4155   -6.6893 S.3        1 <1>        0.000
      3 C1          5.2121   -2.9945   -6.1509 C.2        1 <1>        0.000
      4 C2          5.0053   -1.8126   -6.7497 C.2        1 <1>        0.000
      5 N1          5.5868   -0.6226   -6.4600 N.am       1 <1>        0.000
      6 C9          5.4966    0.5501   -7.1295 C.2        1 <1>        0.000
      7 O1          6.0922    1.5768   -6.8504 O.2        1 <1>        0.000
      8 C20         1.9264   -2.7799   -6.0064 C.2        1 <1>        0.000
      9 C21         0.7653   -2.3927   -5.4627 C.2        1 <1>        0.000
     10 N5          0.0562   -1.2713   -5.7399 N.am       1 <1>        0.000
     11 C28         0.4217   -0.1985   -6.4829 C.2        1 <1>        0.000
     12 O4          1.4970   -0.0561   -7.0419 O.2        1 <1>        0.000
     13 H           5.9435   -3.0875   -5.3480 H.spc      1 <1>        0.000
     14 H           4.2837   -1.8081   -7.5667 H.spc      1 <1>        0.000
     15 H           6.1714   -0.6094   -5.6243 H.spc      1 <1>        0.000
     16 H           4.8334    0.5794   -7.9940 H.spc      1 <1>        0.000
     17 H           2.4005   -2.1823   -6.7850 H.spc      1 <1>        0.000
     18 H           0.3411   -3.0567   -4.7095 H.spc      1 <1>        0.000
     19 H          -0.8788   -1.2292   -5.3345 H.spc      1 <1>        0.000
     20 H          -0.3066    0.6053   -6.5903 H.spc      1 <1>        0.000
@<TRIPOS>BOND
     1    6    7 2  
     2   10   11 am 
     3    9   10 1  
     4    8    9 2  
     5    5    6 am 
     6    4    5 1  
     7    1    2 1  
     8    1    8 1  
     9    2    3 1  
    10    3    4 2  
    11   11   12 2  
    12    3   13 1  
    13    4   14 1  
    14    5   15 1  
    15    6   16 1  
    16    8   17 1  
    17    9   18 1  
    18   10   19 1  
    19   11   20 1  
# Name:          frag3-195-6/31924
# Creation time: Sat Jun  5 12:52:13 2010


@<TRIPOS>MOLECULE
frag3-195-6/31924
   20    19     1     1     1
SMALL
USER_CHARGES


@<TRIPOS>ATOM
      1 S1          4.0482   -3.9443   -6.9974 S.3        1 <1>        0.000
      2 S2          2.9070   -3.8845   -5.3276 S.3        1 <1>        0.000
      3 C1          1.6246   -2.7614   -5.8527 C.2        1 <1>        0.000
      4 C2          0.9971   -2.0067   -4.9412 C.2        1 <1>        0.000
      5 N1          0.0325   -1.0771   -5.1493 N.am       1 <1>        0.000
      6 C9         -0.4997   -0.6665   -6.3245 C.2        1 <1>        0.000
      7 O1         -0.1336   -1.0219   -7.4334 O.2        1 <1>        0.000
      8 C20         4.6620   -2.2703   -7.0383 C.2        1 <1>        0.000
      9 C21         5.9471   -2.0421   -6.7351 C.2        1 <1>        0.000
     10 N5          6.5998   -0.8579   -6.7355 N.am       1 <1>        0.000
     11 C28         6.0905    0.3960   -6.8020 C.2        1 <1>        0.000
     12 O4          6.7390    1.4267   -6.8598 O.2        1 <1>        0.000
     13 H           1.3539   -2.6899   -6.9061 H.spc      1 <1>        0.000
     14 H           1.2991   -2.1586   -3.9049 H.spc      1 <1>        0.000
     15 H          -0.3405   -0.6291   -4.3123 H.spc      1 <1>        0.000
     16 H          -1.3262    0.0425   -6.2763 H.spc      1 <1>        0.000
     17 H           4.0018   -1.4453   -7.3059 H.spc      1 <1>        0.000
     18 H           6.5365   -2.9151   -6.4547 H.spc      1 <1>        0.000
     19 H           7.6165   -0.9166   -6.6777 H.spc      1 <1>        0.000
     20 H           5.0047    0.4916   -6.8040 H.spc      1 <1>        0.000
@<TRIPOS>BOND
     1    6    7 2  
     2   10   11 am 
     3    9   10 1  
     4    8    9 2  
     5    5    6 am 
     6    4    5 1  
     7    1    2 1  
     8    1    8 1  
     9    2    3 1  
    10    3    4 2  
    11   11   12 2  
    12    3   13 1  
    13    4   14 1  
    14    5   15 1  
    15    6   16 1  
    16    8   17 1  
    17    9   18 1  
    18   10   19 1  
    19   11   20 1  
# Name:          frag3-195-6/31924
# Creation time: Sat Jun  5 12:52:13 2010


@<TRIPOS>MOLECULE
frag3-195-6/31924
   20    19     1     1     1
SMALL
USER_CHARGES


@<TRIPOS>ATOM
      1 S1          2.9164   -4.0415   -5.1142 S.3        1 <1>        0.000
      2 S2          4.0980   -4.2916   -6.7401 S.3        1 <1>        0.000
      3 C1          5.3638   -3.0811   -6.4103 C.2        1 <1>        0.000
      4 C2          5.1450   -1.7975   -6.7308 C.2        1 <1>        0.000
      5 N1          5.9599   -0.7345   -6.5241 N.am       1 <1>        0.000
      6 C9          5.7361    0.5703   -6.8035 C.2        1 <1>        0.000
      7 O1          4.6741    1.0461   -7.1720 O.2        1 <1>        0.000
      8 C20         1.7961   -2.7893   -5.7054 C.2        1 <1>        0.000
      9 C21         2.0741   -1.4993   -5.4687 C.2        1 <1>        0.000
     10 N5          1.3707   -0.4117   -5.8623 N.am       1 <1>        0.000
     11 C28         0.2453   -0.3580   -6.6152 C.2        1 <1>        0.000
     12 O4         -0.3650   -1.3218   -7.0502 O.2        1 <1>        0.000
     13 H           6.3065   -3.3811   -5.9526 H.spc      1 <1>        0.000
     14 H           4.1939   -1.5824   -7.2179 H.spc      1 <1>        0.000
     15 H           6.8634   -0.9466   -6.1010 H.spc      1 <1>        0.000
     16 H           6.5762    1.2554   -6.6898 H.spc      1 <1>        0.000
     17 H           0.8958   -3.0683   -6.2528 H.spc      1 <1>        0.000
     18 H           2.9759   -1.3023   -4.8890 H.spc      1 <1>        0.000
     19 H           1.7368    0.4878   -5.5504 H.spc      1 <1>        0.000
     20 H          -0.1488    0.6301   -6.8528 H.spc      1 <1>        0.000
@<TRIPOS>BOND
     1    6    7 2  
     2   10   11 am 
     3    9   10 1  
     4    8    9 2  
     5    5    6 am 
     6    4    5 1  
     7    1    2 1  
     8    1    8 1  
     9    2    3 1  
    10    3    4 2  
    11   11   12 2  
    12    3   13 1  
    13    4   14 1  
    14    5   15 1  
    15    6   16 1  
    16    8   17 1  
    17    9   18 1  
    18   10   19 1  
    19   11   20 1  
# Name:          frag3-195-6/31924
# Creation time: Sat Jun  5 12:52:13 2010


@<TRIPOS>MOLECULE
frag3-195-6/31924
   20    19     1     1     1
SMALL
USER_CHARGES


@<TRIPOS>ATOM
      1 S1          2.5028   -4.3327   -5.7721 S.3        1 <1>        0.000
      2 S2          3.9160   -3.7920   -7.1205 S.3        1 <1>        0.000
      3 C1          4.4761   -2.2546   -6.3965 C.2        1 <1>        0.000
      4 C2          5.5074   -1.6105   -6.9596 C.2        1 <1>        0.000
      5 N1          6.0489   -0.4247   -6.5830 N.am       1 <1>        0.000
      6 C9          7.1850    0.1646   -7.0234 C.2        1 <1>        0.000
      7 O1          7.5368    1.3053   -6.7747 O.2        1 <1>        0.000
      8 C20         1.2954   -3.0384   -6.0289 C.2        1 <1>        0.000
      9 C21         1.1180   -2.1236   -5.0653 C.2        1 <1>        0.000
     10 N5          0.2810   -1.0571   -5.0851 N.am       1 <1>        0.000
     11 C28        -0.4284   -0.5541   -6.1246 C.2        1 <1>        0.000
     12 O4         -0.4246   -0.9921   -7.2632 O.2        1 <1>        0.000
     13 H           3.9862   -1.8485   -5.5115 H.spc      1 <1>        0.000
     14 H           5.9651   -2.0962   -7.8214 H.spc      1 <1>        0.000
     15 H           5.5302    0.0919   -5.8727 H.spc      1 <1>        0.000
     16 H           7.8426   -0.4324   -7.6553 H.spc      1 <1>        0.000
     17 H           0.7153   -2.9944   -6.9507 H.spc      1 <1>        0.000
     18 H           1.7150   -2.2518   -4.1624 H.spc      1 <1>        0.000
     19 H           0.1702   -0.5670   -4.1975 H.spc      1 <1>        0.000
     20 H          -1.0553    0.3153   -5.9266 H.spc      1 <1>        0.000
@<TRIPOS>BOND
     1    6    7 2  
     2   10   11 am 
     3    9   10 1  
     4    8    9 2  
     5    5    6 am 
     6    4    5 1  
     7    1    2 1  
     8    1    8 1  
     9    2    3 1  
    10    3    4 2  
    11   11   12 2  
    12    3   13 1  
    13    4   14 1  
    14    5   15 1  
    15    6   16 1  
    16    8   17 1  
    17    9   18 1  
    18   10   19 1  
    19   11   20 1  
# Name:          frag3-195-6/31924
# Creation time: Sat Jun  5 12:52:13 2010


@<TRIPOS>MOLECULE
frag3-195-6/31924
   20    19     1     1     1
SMALL
USER_CHARGES


@<TRIPOS>ATOM
      1 S1          3.4345   -2.6275   -5.0847 S.3        1 <1>        0.000
      2 S2          4.4337   -3.8531   -6.3542 S.3        1 <1>        0.000
      3 C1          6.0054   -3.0030   -6.4437 C.2        1 <1>        0.000
      4 C2          6.0146   -1.6879   -6.7078 C.2        1 <1>        0.000
      5 N1          7.0927   -0.8655   -6.7777 N.am       1 <1>        0.000
      6 C9          7.1293    0.4548   -7.0734 C.2        1 <1>        0.000
      7 O1          6.1591    1.1570   -7.3050 O.2        1 <1>        0.000
      8 C20         2.1202   -2.0509   -6.1520 C.2        1 <1>        0.000
      9 C21         0.8744   -1.9928   -5.6623 C.2        1 <1>        0.000
     10 N5         -0.2418   -1.5603   -6.2981 N.am       1 <1>        0.000
     11 C28        -1.5181   -1.5169   -5.8453 C.2        1 <1>        0.000
     12 O4         -2.4893   -1.1638   -6.4927 O.2        1 <1>        0.000
     13 H           6.9386   -3.5439   -6.2865 H.spc      1 <1>        0.000
     14 H           5.0438   -1.2258   -6.8871 H.spc      1 <1>        0.000
     15 H           7.9943   -1.3002   -6.5814 H.spc      1 <1>        0.000
     16 H           8.1091    0.9312   -7.1075 H.spc      1 <1>        0.000
     17 H           2.3284   -1.7529   -7.1796 H.spc      1 <1>        0.000
     18 H           0.7435   -2.3323   -4.6348 H.spc      1 <1>        0.000
     19 H          -0.1015   -1.2203   -7.2495 H.spc      1 <1>        0.000
     20 H          -1.6916   -1.8239   -4.8139 H.spc      1 <1>        0.000
@<TRIPOS>BOND
     1    6    7 2  
     2   10   11 am 
     3    9   10 1  
     4    8    9 2  
     5    5    6 am 
     6    4    5 1  
     7    1    2 1  
     8    1    8 1  
     9    2    3 1  
    10    3    4 2  
    11   11   12 2  
    12    3   13 1  
    13    4   14 1  
    14    5   15 1  
    15    6   16 1  
    16    8   17 1  
    17    9   18 1  
    18   10   19 1  
    19   11   20 1  
# Name:          frag3-195-6/31924
# Creation time: Sat Jun  5 12:52:13 2010


@<TRIPOS>MOLECULE
frag3-195-6/31924
   20    19     1     1     1
SMALL
USER_CHARGES


@<TRIPOS>ATOM
      1 S1          2.7061   -4.0112   -5.9861 S.3        1 <1>        0.000
      2 S2          3.9920   -3.3329   -7.3948 S.3        1 <1>        0.000
      3 C1          5.2408   -2.5871   -6.3603 C.2        1 <1>        0.000
      4 C2          5.8110   -1.4385   -6.7470 C.2        1 <1>        0.000
      5 N1          6.7419   -0.7068   -6.0851 N.am       1 <1>        0.000
      6 C9          7.2324    0.5159   -6.3946 C.2        1 <1>        0.000
      7 O1          6.8447    1.2262   -7.3078 O.2        1 <1>        0.000
      8 C20         1.5368   -2.6649   -5.9274 C.2        1 <1>        0.000
      9 C21         0.2373   -2.9267   -6.1222 C.2        1 <1>        0.000
     10 N5         -0.7976   -2.0530   -6.0897 N.am       1 <1>        0.000
     11 C28        -0.7634   -0.7013   -5.9986 C.2        1 <1>        0.000
     12 O4          0.2325   -0.0295   -5.7834 O.2        1 <1>        0.000
     13 H           5.5361   -3.0611   -5.4243 H.spc      1 <1>        0.000
     14 H           5.4879   -1.0439   -7.7103 H.spc      1 <1>        0.000
     15 H           7.1230   -1.1353   -5.2416 H.spc      1 <1>        0.000
     16 H           8.0433    0.8990   -5.7750 H.spc      1 <1>        0.000
     17 H           1.8741   -1.6462   -5.7362 H.spc      1 <1>        0.000
     18 H          -0.0174   -3.9656   -6.3316 H.spc      1 <1>        0.000
     19 H          -1.7277   -2.4685   -6.1407 H.spc      1 <1>        0.000
     20 H          -1.7055   -0.1688   -6.1286 H.spc      1 <1>        0.000
@<TRIPOS>BOND
     1    6    7 2  
     2   10   11 am 
     3    9   10 1  
     4    8    9 2  
     5    5    6 am 
     6    4    5 1  
     7    1    2 1  
     8    1    8 1  
     9    2    3 1  
    10    3    4 2  
    11   11   12 2  
    12    3   13 1  
    13    4   14 1  
    14    5   15 1  
    15    6   16 1  
    16    8   17 1  
    17    9   18 1  
    18   10   19 1  
    19   11   20 1  
# Name:          frag3-195-6/31924
# Creation time: Sat Jun  5 12:52:13 2010


@<TRIPOS>MOLECULE
frag3-195-6/31924
   20    19     1     1     1
SMALL
USER_CHARGES


@<TRIPOS>ATOM
      1 S1          4.1579   -4.0128   -6.1048 S.3        1 <1>        0.000
      2 S2          2.6883   -3.9760   -7.4961 S.3        1 <1>        0.000
      3 C1          1.7260   -2.5948   -6.9144 C.2        1 <1>        0.000
      4 C2          0.7139   -2.8122   -6.0615 C.2        1 <1>        0.000
      5 N1         -0.0998   -1.8985   -5.4797 N.am       1 <1>        0.000
      6 C9         -0.0209   -0.5480   -5.5343 C.2        1 <1>        0.000
      7 O1          0.8095    0.0913   -6.1606 O.2        1 <1>        0.000
      8 C20         5.0828   -2.5618   -6.5628 C.2        1 <1>        0.000
      9 C21         4.8761   -1.4160   -5.8982 C.2        1 <1>        0.000
     10 N5          5.4944   -0.2289   -6.0799 N.am       1 <1>        0.000
     11 C28         6.5366    0.0745   -6.8910 C.2        1 <1>        0.000
     12 O4          7.0498    1.1734   -7.0136 O.2        1 <1>        0.000
     13 H           1.9572   -1.5832   -7.2481 H.spc      1 <1>        0.000
     14 H           0.5222   -3.8539   -5.8044 H.spc      1 <1>        0.000
     15 H          -0.8711   -2.2767   -4.9298 H.spc      1 <1>        0.000
     16 H          -0.7629    0.0173   -4.9704 H.spc      1 <1>        0.000
     17 H           5.8090   -2.6047   -7.3745 H.spc      1 <1>        0.000
     18 H           4.1171   -1.4460   -5.1165 H.spc      1 <1>        0.000
     19 H           5.1255    0.5470   -5.5301 H.spc      1 <1>        0.000
     20 H           6.9535   -0.7370   -7.4874 H.spc      1 <1>        0.000
@<TRIPOS>BOND
     1    6    7 2  
     2   10   11 am 
     3    9   10 1  
     4    8    9 2  
     5    5    6 am 
     6    4    5 1  
     7    1    2 1  
     8    1    8 1  
     9    2    3 1  
    10    3    4 2  
    11   11   12 2  
    12    3   13 1  
    13    4   14 1  
    14    5   15 1  
    15    6   16 1  
    16    8   17 1  
    17    9   18 1  
    18   10   19 1  
    19   11   20 1  
# Name:          frag3-195-6/31924
# Creation time: Sat Jun  5 12:52:13 2010


@<TRIPOS>MOLECULE
frag3-195-6/31924
   20    19     1     1     1
SMALL
USER_CHARGES


@<TRIPOS>ATOM
      1 S1          4.2604   -3.6298   -6.6753 S.3        1 <1>        0.000
      2 S2          3.1638   -2.6435   -5.2836 S.3        1 <1>        0.000
      3 C1          1.5136   -3.1328   -5.7737 C.2        1 <1>        0.000
      4 C2          0.5247   -2.2304   -5.7066 C.2        1 <1>        0.000
      5 N1         -0.7739   -2.3980   -6.0668 N.am       1 <1>        0.000
      6 C9         -1.7702   -1.4818   -6.0824 C.2        1 <1>        0.000
      7 O1         -1.6327   -0.2815   -5.9148 O.2        1 <1>        0.000
      8 C20         5.1038   -2.2591   -7.4569 C.2        1 <1>        0.000
      9 C21         6.0161   -1.5800   -6.7469 C.2        1 <1>        0.000
     10 N5          6.7768   -0.5389   -7.1655 N.am       1 <1>        0.000
     11 C28         7.5761    0.2788   -6.4386 C.2        1 <1>        0.000
     12 O4          8.2560    1.1871   -6.8856 O.2        1 <1>        0.000
     13 H           1.3161   -4.1470   -6.1207 H.spc      1 <1>        0.000
     14 H           0.7941   -1.2483   -5.3179 H.spc      1 <1>        0.000
     15 H          -1.0327   -3.3385   -6.3650 H.spc      1 <1>        0.000
     16 H          -2.7814   -1.8478   -6.2598 H.spc      1 <1>        0.000
     17 H           4.8809   -1.9823   -8.4873 H.spc      1 <1>        0.000
     18 H           6.1628   -1.9016   -5.7158 H.spc      1 <1>        0.000
     19 H           6.7427   -0.3442   -8.1662 H.spc      1 <1>        0.000
     20 H           7.6147    0.1103   -5.3624 H.spc      1 <1>        0.000
@<TRIPOS>BOND
     1    6    7 2  
     2   10   11 am 
     3    9   10 1  
     4    8    9 2  
     5    5    6 am 
     6    4    5 1  
     7    1    2 1  
     8    1    8 1  
     9    2    3 1  
    10    3    4 2  
    11   11   12 2  
    12    3   13 1  
    13    4   14 1  
    14    5   15 1  
    15    6   16 1  
    16    8   17 1  
    17    9   18 1  
    18   10   19 1  
    19   11   20 1  
# Name:          frag3-195-6/31924
# Creation time: Sat Jun  5 12:52:13 2010


@<TRIPOS>MOLECULE
frag3-195-6/31924
   20    19     1     1     1
SMALL
USER_CHARGES


@<TRIPOS>ATOM
      1 S1          4.1223   -3.8890   -7.0027 S.3        1 <1>        0.000
      2 S2          2.5611   -4.3784   -5.8088 S.3        1 <1>        0.000
      3 C1          1.6742   -2.8292   -5.7927 C.2        1 <1>        0.000
      4 C2          1.0789   -2.4080   -6.9192 C.2        1 <1>        0.000
      5 N1          0.3356   -1.2879   -7.0982 N.am       1 <1>        0.000
      6 C9         -0.0659   -0.3879   -6.1700 C.2        1 <1>        0.000
      7 O1          0.2083   -0.4227   -4.9812 O.2        1 <1>        0.000
      8 C20         4.9623   -2.6963   -5.9743 C.2        1 <1>        0.000
      9 C21         5.3962   -1.5549   -6.5237 C.2        1 <1>        0.000
     10 N5          6.0212   -0.5229   -5.9078 N.am       1 <1>        0.000
     11 C28         6.4189    0.6638   -6.4260 C.2        1 <1>        0.000
     12 O4          6.3015    1.0037   -7.5923 O.2        1 <1>        0.000
     13 H           1.6171   -2.2341   -4.8812 H.spc      1 <1>        0.000
     14 H           1.2084   -3.0426   -7.7959 H.spc      1 <1>        0.000
     15 H           0.0409   -1.0991   -8.0563 H.spc      1 <1>        0.000
     16 H          -0.6875    0.4388   -6.5139 H.spc      1 <1>        0.000
     17 H           5.1198   -2.8943   -4.9141 H.spc      1 <1>        0.000
     18 H           5.2262   -1.4428   -7.5945 H.spc      1 <1>        0.000
     19 H           6.2199   -0.6581   -4.9165 H.spc      1 <1>        0.000
     20 H           6.8832    1.3756   -5.7434 H.spc      1 <1>        0.000
@<TRIPOS>BOND
     1    6    7 2  
     2   10   11 am 
     3    9   10 1  
     4    8    9 2  
     5    5    6 am 
     6    4    5 1  
     7    1    2 1  
     8    1    8 1  
     9    2    3 1  
    10    3    4 2  
    11   11   12 2  
    12    3   13 1  
    13    4   14 1  
    14    5   15 1  
    15    6   16 1  
    16    8   17 1  
    17    9   18 1  
    18   10   19 1  
    19   11   20 1  
# Name:          frag3-195-6/31924
# Creation time: Sat Jun  5 12:52:13 2010


@<TRIPOS>MOLECULE
frag3-195-6/31924
   20    19     1     1     1
SMALL
USER_CHARGES


@<TRIPOS>ATOM
      1 S1          3.8371   -3.5392   -7.5221 S.3        1 <1>        0.000
      2 S2          2.7594   -4.4589   -6.0699 S.3        1 <1>        0.000
      3 C1          2.1005   -3.0286   -5.2139 C.2        1 <1>        0.000
      4 C2          1.1916   -2.2671   -5.8404 C.2        1 <1>        0.000
      5 N1          0.5525   -1.1733   -5.3489 N.am       1 <1>        0.000
      6 C9         -0.4236   -0.4358   -5.9285 C.2        1 <1>        0.000
      7 O1         -0.9280   -0.6571   -7.0165 O.2        1 <1>        0.000
      8 C20         5.1091   -2.7554   -6.5333 C.2        1 <1>        0.000
      9 C21         5.4309   -1.4819   -6.8003 C.2        1 <1>        0.000
     10 N5          6.3383   -0.7105   -6.1498 N.am       1 <1>        0.000
     11 C28         6.7238    0.5600   -6.4210 C.2        1 <1>        0.000
     12 O4          6.3229    1.2381   -7.3521 O.2        1 <1>        0.000
     13 H           2.4317   -2.7828   -4.2049 H.spc      1 <1>        0.000
     14 H           0.9366   -2.5586   -6.8593 H.spc      1 <1>        0.000
     15 H           0.8469   -0.8678   -4.4213 H.spc      1 <1>        0.000
     16 H          -0.7898    0.4293   -5.3757 H.spc      1 <1>        0.000
     17 H           5.6095   -3.3013   -5.7335 H.spc      1 <1>        0.000
     18 H           4.9052   -1.0138   -7.6326 H.spc      1 <1>        0.000
     19 H           6.7921   -1.1465   -5.3471 H.spc      1 <1>        0.000
     20 H           7.4535    1.0141   -5.7506 H.spc      1 <1>        0.000
@<TRIPOS>BOND
     1    6    7 2  
     2   10   11 am 
     3    9   10 1  
     4    8    9 2  
     5    5    6 am 
     6    4    5 1  
     7    1    2 1  
     8    1    8 1  
     9    2    3 1  
    10    3    4 2  
    11   11   12 2  
    12    3   13 1  
    13    4   14 1  
    14    5   15 1  
    15    6   16 1  
    16    8   17 1  
    17    9   18 1  
    18   10   19 1  
    19   11   20 1  
# Name:          frag3-195-6/31924
# Creation time: Sat Jun  5 12:52:13 2010


@<TRIPOS>MOLECULE
frag3-195-6/31924
   20    19     1     1     1
SMALL
USER_CHARGES


@<TRIPOS>ATOM
      1 S1          4.6315   -4.2186   -6.7846 S.3        1 <1>        0.000
      2 S2          3.0599   -4.0731   -5.5131 S.3        1 <1>        0.000
      3 C1          1.8650   -3.2707   -6.5750 C.2        1 <1>        0.000
      4 C2          1.1530   -2.2435   -6.0917 C.2        1 <1>        0.000
      5 N1          0.2353   -1.4889   -6.7482 N.am       1 <1>        0.000
      6 C9         -0.4821   -0.4389   -6.2846 C.2        1 <1>        0.000
      7 O1         -0.4883   -0.0371   -5.1328 O.2        1 <1>        0.000
      8 C20         5.0198   -2.4895   -7.0217 C.2        1 <1>        0.000
      9 C21         5.7890   -1.8730   -6.1131 C.2        1 <1>        0.000
     10 N5          6.2144   -0.5869   -6.1303 N.am       1 <1>        0.000
     11 C28         5.8454    0.4205   -6.9582 C.2        1 <1>        0.000
     12 O4          6.1716    1.5897   -6.8436 O.2        1 <1>        0.000
     13 H           1.7182   -3.6121   -7.5997 H.spc      1 <1>        0.000
     14 H           1.3318   -1.9832   -5.0484 H.spc      1 <1>        0.000
     15 H           0.0635   -1.7474   -7.7198 H.spc      1 <1>        0.000
     16 H          -1.1076    0.0930   -7.0015 H.spc      1 <1>        0.000
     17 H           4.6389   -1.9476   -7.8874 H.spc      1 <1>        0.000
     18 H           6.1088   -2.4757   -5.2630 H.spc      1 <1>        0.000
     19 H           6.9077   -0.3434   -5.4229 H.spc      1 <1>        0.000
     20 H           5.2014    0.1633   -7.7992 H.spc      1 <1>        0.000
@<TRIPOS>BOND
     1    6    7 2  
     2   10   11 am 
     3    9   10 1  
     4    8    9 2  
     5    5    6 am 
     6    4    5 1  
     7    1    2 1  
     8    1    8 1  
     9    2    3 1  
    10    3    4 2  
    11   11   12 2  
    12    3   13 1  
    13    4   14 1  
    14    5   15 1  
    15    6   16 1  
    16    8   17 1  
    17    9   18 1  
    18   10   19 1  
    19   11   20 1  
# Name:          frag3-195-6/31924
# Creation time: Sat Jun  5 12:52:13 2010


@<TRIPOS>MOLECULE
frag3-195-6/31924
   20    19     1     1     1
SMALL
USER_CHARGES


@<TRIPOS>ATOM
      1 S1          3.1785   -4.1983   -7.3481 S.3        1 <1>        0.000
      2 S2          5.0826   -4.0386   -6.6705 S.3        1 <1>        0.000
      3 C1          5.3110   -2.2666   -6.7835 C.2        1 <1>        0.000
      4 C2          5.2187   -1.5303   -5.6664 C.2        1 <1>        0.000
      5 N1          5.3952   -0.1896   -5.5429 N.am       1 <1>        0.000
      6 C9          5.7267    0.7080   -6.5005 C.2        1 <1>        0.000
      7 O1          6.0661    0.4366   -7.6403 O.2        1 <1>        0.000
      8 C20         2.3148   -3.2141   -6.1282 C.2        1 <1>        0.000
      9 C21         1.3756   -2.3541   -6.5450 C.2        1 <1>        0.000
     10 N5          0.5976   -1.5495   -5.7801 N.am       1 <1>        0.000
     11 C28        -0.2885   -0.6010   -6.1688 C.2        1 <1>        0.000
     12 O4         -0.9638    0.0876   -5.4226 O.2        1 <1>        0.000
     13 H           5.5213   -1.7945   -7.7432 H.spc      1 <1>        0.000
     14 H           4.9737   -2.0705   -4.7519 H.spc      1 <1>        0.000
     15 H           5.2604    0.1909   -4.6062 H.spc      1 <1>        0.000
     16 H           5.6870    1.7632   -6.2300 H.spc      1 <1>        0.000
     17 H           2.5480   -3.3122   -5.0680 H.spc      1 <1>        0.000
     18 H           1.2193   -2.2947   -7.6221 H.spc      1 <1>        0.000
     19 H           0.6924   -1.6756   -4.7724 H.spc      1 <1>        0.000
     20 H          -0.4079   -0.4397   -7.2402 H.spc      1 <1>        0.000
@<TRIPOS>BOND
     1    6    7 2  
     2   10   11 am 
     3    9   10 1  
     4    8    9 2  
     5    5    6 am 
     6    4    5 1  
     7    1    2 1  
     8    1    8 1  
     9    2    3 1  
    10    3    4 2  
    11   11   12 2  
    12    3   13 1  
    13    4   14 1  
    14    5   15 1  
    15    6   16 1  
    16    8   17 1  
    17    9   18 1  
    18   10   19 1  
    19   11   20 1  
# Name:          frag3-195-6/31924
# Creation time: Sat Jun  5 12:52:13 2010


@<TRIPOS>MOLECULE
frag3-195-6/31924
   20    19     1     1     1
SMALL
USER_CHARGES


@<TRIPOS>ATOM
      1 S1          3.0316   -4.3886   -5.6104 S.3        1 <1>        0.000
      2 S2          4.3746   -4.3002   -7.1262 S.3        1 <1>        0.000
      3 C1          5.4383   -2.9912   -6.5304 C.2        1 <1>        0.000
      4 C2          5.1677   -1.7255   -6.8815 C.2        1 <1>        0.000
      5 N1          5.8267   -0.6018   -6.5034 N.am       1 <1>        0.000
      6 C9          5.5483    0.6868   -6.8100 C.2        1 <1>        0.000
      7 O1          6.2144    1.6550   -6.4855 O.2        1 <1>        0.000
      8 C20         2.2326   -2.7987   -5.7882 C.2        1 <1>        0.000
      9 C21         0.9333   -2.7647   -6.1142 C.2        1 <1>        0.000
     10 N5          0.1502   -1.6694   -6.2651 N.am       1 <1>        0.000
     11 C28         0.4246   -0.3783   -5.9581 C.2        1 <1>        0.000
     12 O4         -0.3279    0.5666   -6.1240 O.2        1 <1>        0.000
     13 H           6.2924   -3.2186   -5.8925 H.spc      1 <1>        0.000
     14 H           4.3181   -1.5829   -7.5494 H.spc      1 <1>        0.000
     15 H           6.6418   -0.7475   -5.9078 H.spc      1 <1>        0.000
     16 H           4.6503    0.8754   -7.3983 H.spc      1 <1>        0.000
     17 H           2.7914   -1.8755   -5.6344 H.spc      1 <1>        0.000
     18 H           0.4512   -3.7287   -6.2766 H.spc      1 <1>        0.000
     19 H          -0.7726   -1.8400   -6.6647 H.spc      1 <1>        0.000
     20 H           1.4024   -0.1663   -5.5255 H.spc      1 <1>        0.000
@<TRIPOS>BOND
     1    6    7 2  
     2   10   11 am 
     3    9   10 1  
     4    8    9 2  
     5    5    6 am 
     6    4    5 1  
     7    1    2 1  
     8    1    8 1  
     9    2    3 1  
    10    3    4 2  
    11   11   12 2  
    12    3   13 1  
    13    4   14 1  
    14    5   15 1  
    15    6   16 1  
    16    8   17 1  
    17    9   18 1  
    18   10   19 1  
    19   11   20 1  
# Name:          frag3-195-6/31924
# Creation time: Sat Jun  5 12:52:13 2010


@<TRIPOS>MOLECULE
frag3-195-6/31924
   20    19     1     1     1
SMALL
USER_CHARGES


@<TRIPOS>ATOM
      1 S1          3.2935   -3.8601   -5.6852 S.3        1 <1>        0.000
      2 S2          4.3132   -3.6213   -7.4163 S.3        1 <1>        0.000
      3 C1          5.0088   -2.0002   -7.1626 C.2        1 <1>        0.000
      4 C2          6.2945   -1.8887   -6.7984 C.2        1 <1>        0.000
      5 N1          7.0079   -0.7547   -6.5929 N.am       1 <1>        0.000
      6 C9          6.5701    0.5264   -6.5987 C.2        1 <1>        0.000
      7 O1          5.4039    0.8795   -6.5262 O.2        1 <1>        0.000
      8 C20         1.7853   -2.9909   -6.0648 C.2        1 <1>        0.000
      9 C21         1.3155   -2.0853   -5.1972 C.2        1 <1>        0.000
     10 N5          0.2159   -1.3094   -5.3231 N.am       1 <1>        0.000
     11 C28        -0.5954   -1.1484   -6.3965 C.2        1 <1>        0.000
     12 O4         -1.5986   -0.4569   -6.4350 O.2        1 <1>        0.000
     13 H           4.3961   -1.1095   -7.3019 H.spc      1 <1>        0.000
     14 H           6.8320   -2.8252   -6.6493 H.spc      1 <1>        0.000
     15 H           8.0032   -0.8831   -6.4103 H.spc      1 <1>        0.000
     16 H           7.3239    1.3100   -6.6747 H.spc      1 <1>        0.000
     17 H           1.2509   -3.1939   -6.9929 H.spc      1 <1>        0.000
     18 H           1.8889   -1.9587   -4.2789 H.spc      1 <1>        0.000
     19 H          -0.0385   -0.7703   -4.4954 H.spc      1 <1>        0.000
     20 H          -0.3271   -1.6850   -7.3065 H.spc      1 <1>        0.000
@<TRIPOS>BOND
     1    6    7 2  
     2   10   11 am 
     3    9   10 1  
     4    8    9 2  
     5    5    6 am 
     6    4    5 1  
     7    1    2 1  
     8    1    8 1  
     9    2    3 1  
    10    3    4 2  
    11   11   12 2  
    12    3   13 1  
    13    4   14 1  
    14    5   15 1  
    15    6   16 1  
    16    8   17 1  
    17    9   18 1  
    18   10   19 1  
    19   11   20 1  
# Name:          frag3-195-6/31924
# Creation time: Sat Jun  5 12:52:13 2010


@<TRIPOS>MOLECULE
frag3-195-6/31924
   20    19     1     1     1
SMALL
USER_CHARGES


@<TRIPOS>ATOM
      1 S1          3.0945   -4.4374   -7.1046 S.3        1 <1>        0.000
      2 S2          4.8927   -4.3375   -6.1749 S.3        1 <1>        0.000
      3 C1          5.3694   -2.6633   -6.5843 C.2        1 <1>        0.000
      4 C2          4.8295   -1.6477   -5.8939 C.2        1 <1>        0.000
      5 N1          5.0891   -0.3237   -6.0309 N.am       1 <1>        0.000
      6 C9          5.8826    0.2916   -6.9390 C.2        1 <1>        0.000
      7 O1          5.9321    1.4926   -7.1425 O.2        1 <1>        0.000
      8 C20         2.1036   -3.4275   -6.0118 C.2        1 <1>        0.000
      9 C21         1.5390   -2.3137   -6.4979 C.2        1 <1>        0.000
     10 N5          0.7371   -1.4407   -5.8424 N.am       1 <1>        0.000
     11 C28         0.1636   -0.3009   -6.2979 C.2        1 <1>        0.000
     12 O4         -0.6187    0.3983   -5.6767 O.2        1 <1>        0.000
     13 H           6.0870   -2.4711   -7.3819 H.spc      1 <1>        0.000
     14 H           4.0964   -1.9183   -5.1340 H.spc      1 <1>        0.000
     15 H           4.6251    0.2898   -5.3611 H.spc      1 <1>        0.000
     16 H           6.5341   -0.3421   -7.5407 H.spc      1 <1>        0.000
     17 H           1.9613   -3.7125   -4.9694 H.spc      1 <1>        0.000
     18 H           1.7495   -2.0834   -7.5423 H.spc      1 <1>        0.000
     19 H           0.5370   -1.6741   -4.8698 H.spc      1 <1>        0.000
     20 H           0.4240    0.0187   -7.3069 H.spc      1 <1>        0.000
@<TRIPOS>BOND
     1    6    7 2  
     2   10   11 am 
     3    9   10 1  
     4    8    9 2  
     5    5    6 am 
     6    4    5 1  
     7    1    2 1  
     8    1    8 1  
     9    2    3 1  
    10    3    4 2  
    11   11   12 2  
    12    3   13 1  
    13    4   14 1  
    14    5   15 1  
    15    6   16 1  
    16    8   17 1  
    17    9   18 1  
    18   10   19 1  
    19   11   20 1  
# Name:          frag3-195-6/31924
# Creation time: Sat Jun  5 12:52:13 2010


@<TRIPOS>MOLECULE
frag3-195-6/31924
   20    19     1     1     1
SMALL
USER_CHARGES


@<TRIPOS>ATOM
      1 S1          4.2281   -2.7019   -5.6714 S.3        1 <1>        0.000
      2 S2          2.9599   -2.6465   -7.2461 S.3        1 <1>        0.000
      3 C1          1.4562   -2.1346   -6.4396 C.2        1 <1>        0.000
      4 C2          0.2756   -2.4697   -6.9761 C.2        1 <1>        0.000
      5 N1         -0.9617   -2.2096   -6.4927 N.am       1 <1>        0.000
      6 C9         -1.3060   -1.5828   -5.3431 C.2        1 <1>        0.000
      7 O1         -2.4427   -1.3520   -4.9686 O.2        1 <1>        0.000
      8 C20         5.4574   -1.5213   -6.1870 C.2        1 <1>        0.000
      9 C21         6.7496   -1.7786   -5.9469 C.2        1 <1>        0.000
     10 N5          7.8237   -1.0282   -6.2887 N.am       1 <1>        0.000
     11 C28         7.8660    0.0949   -7.0458 C.2        1 <1>        0.000
     12 O4          6.9085    0.6204   -7.5910 O.2        1 <1>        0.000
     13 H           1.4966   -1.5540   -5.5180 H.spc      1 <1>        0.000
     14 H           0.3161   -3.0189   -7.9168 H.spc      1 <1>        0.000
     15 H          -1.7384   -2.5284   -7.0719 H.spc      1 <1>        0.000
     16 H          -0.4938   -1.2552   -4.6942 H.spc      1 <1>        0.000
     17 H           5.1621   -0.6013   -6.6914 H.spc      1 <1>        0.000
     18 H           6.9624   -2.7040   -5.4116 H.spc      1 <1>        0.000
     19 H           8.7213   -1.3517   -5.9279 H.spc      1 <1>        0.000
     20 H           8.8381    0.5696   -7.1794 H.spc      1 <1>        0.000
@<TRIPOS>BOND
     1    6    7 2  
     2   10   11 am 
     3    9   10 1  
     4    8    9 2  
     5    5    6 am 
     6    4    5 1  
     7    1    2 1  
     8    1    8 1  
     9    2    3 1  
    10    3    4 2  
    11   11   12 2  
    12    3   13 1  
    13    4   14 1  
    14    5   15 1  
    15    6   16 1  
    16    8   17 1  
    17    9   18 1  
    18   10   19 1  
    19   11   20 1  
# Name:          frag3-195-6/31924
# Creation time: Sat Jun  5 12:52:13 2010


@<TRIPOS>MOLECULE
frag3-195-6/31924
   20    19     1     1     1
SMALL
USER_CHARGES


@<TRIPOS>ATOM
      1 S1          3.2481   -3.8445   -7.4371 S.3        1 <1>        0.000
      2 S2          4.9246   -3.9126   -6.3023 S.3        1 <1>        0.000
      3 C1          5.5551   -2.2630   -6.5627 C.2        1 <1>        0.000
      4 C2          4.9515   -1.2303   -5.9548 C.2        1 <1>        0.000
      5 N1          5.2999    0.0798   -6.0003 N.am       1 <1>        0.000
      6 C9          6.2940    0.6616   -6.7118 C.2        1 <1>        0.000
      7 O1          7.1540    0.0711   -7.3448 O.2        1 <1>        0.000
      8 C20         2.0510   -3.3017   -6.2297 C.2        1 <1>        0.000
      9 C21         1.2646   -2.2569   -6.5191 C.2        1 <1>        0.000
     10 N5          0.2864   -1.7191   -5.7541 N.am       1 <1>        0.000
     11 C28        -0.5146   -0.6573   -6.0112 C.2        1 <1>        0.000
     12 O4         -1.5002   -0.3371   -5.3689 O.2        1 <1>        0.000
     13 H           6.4186   -2.0969   -7.2067 H.spc      1 <1>        0.000
     14 H           4.0763   -1.4733   -5.3522 H.spc      1 <1>        0.000
     15 H           4.7404    0.7082   -5.4237 H.spc      1 <1>        0.000
     16 H           6.3292    1.7510   -6.7199 H.spc      1 <1>        0.000
     17 H           1.9613   -3.8128   -5.2712 H.spc      1 <1>        0.000
     18 H           1.4326   -1.7832   -7.4863 H.spc      1 <1>        0.000
     19 H           0.1301   -2.1783   -4.8568 H.spc      1 <1>        0.000
     20 H          -0.2552   -0.0346   -6.8674 H.spc      1 <1>        0.000
@<TRIPOS>BOND
     1    6    7 2  
     2   10   11 am 
     3    9   10 1  
     4    8    9 2  
     5    5    6 am 
     6    4    5 1  
     7    1    2 1  
     8    1    8 1  
     9    2    3 1  
    10    3    4 2  
    11   11   12 2  
    12    3   13 1  
    13    4   14 1  
    14    5   15 1  
    15    6   16 1  
    16    8   17 1  
    17    9   18 1  
    18   10   19 1  
    19   11   20 1  
# Name:          frag3-195-6/31924
# Creation time: Sat Jun  5 12:52:13 2010


@<TRIPOS>MOLECULE
frag3-195-6/31924
   20    19     1     1     1
SMALL
USER_CHARGES


@<TRIPOS>ATOM
      1 S1          2.9431   -1.9624   -5.1393 S.3        1 <1>        0.000
      2 S2          4.4361   -3.0573   -5.9559 S.3        1 <1>        0.000
      3 C1          5.5477   -1.7601   -6.4692 C.2        1 <1>        0.000
      4 C2          6.8668   -1.9242   -6.2994 C.2        1 <1>        0.000
      5 N1          7.8635   -1.0751   -6.6532 N.am       1 <1>        0.000
      6 C9          7.7621    0.1656   -7.1852 C.2        1 <1>        0.000
      7 O1          6.7463    0.6601   -7.6467 O.2        1 <1>        0.000
      8 C20         1.6521   -2.2051   -6.3456 C.2        1 <1>        0.000
      9 C21         0.3814   -1.9760   -5.9924 C.2        1 <1>        0.000
     10 N5         -0.7257   -2.0755   -6.7667 N.am       1 <1>        0.000
     11 C28        -2.0199   -1.8508   -6.4358 C.2        1 <1>        0.000
     12 O4         -2.4389   -1.6491   -5.3075 O.2        1 <1>        0.000
     13 H           5.1587   -0.8450   -6.9156 H.spc      1 <1>        0.000
     14 H           7.1762   -2.8523   -5.8188 H.spc      1 <1>        0.000
     15 H           8.8125   -1.4155   -6.4984 H.spc      1 <1>        0.000
     16 H           8.6654    0.7754   -7.2029 H.spc      1 <1>        0.000
     17 H           1.8943   -2.5352   -7.3558 H.spc      1 <1>        0.000
     18 H           0.2180   -1.6732   -4.9581 H.spc      1 <1>        0.000
     19 H          -0.5621   -2.3589   -7.7328 H.spc      1 <1>        0.000
     20 H          -2.7490   -1.8501   -7.2461 H.spc      1 <1>        0.000
@<TRIPOS>BOND
     1    6    7 2  
     2   10   11 am 
     3    9   10 1  
     4    8    9 2  
     5    5    6 am 
     6    4    5 1  
     7    1    2 1  
     8    1    8 1  
     9    2    3 1  
    10    3    4 2  
    11   11   12 2  
    12    3   13 1  
    13    4   14 1  
    14    5   15 1  
    15    6   16 1  
    16    8   17 1  
    17    9   18 1  
    18   10   19 1  
    19   11   20 1  
# Name:          frag3-195-6/31924
# Creation time: Sat Jun  5 12:52:13 2010


@<TRIPOS>MOLECULE
frag3-195-6/31924
   20    19     1     1     1
SMALL
USER_CHARGES


@<TRIPOS>ATOM
      1 S1          2.9269   -3.7055   -6.9294 S.3        1 <1>        0.000
      2 S2          4.6848   -3.9760   -5.9618 S.3        1 <1>        0.000
      3 C1          5.6060   -2.5759   -6.5735 C.2        1 <1>        0.000
      4 C2          5.2566   -1.3412   -6.1807 C.2        1 <1>        0.000
      5 N1          5.8497   -0.1681   -6.5054 N.am       1 <1>        0.000
      6 C9          7.0495    0.0369   -7.0984 C.2        1 <1>        0.000
      7 O1          7.5614    1.1215   -7.3162 O.2        1 <1>        0.000
      8 C20         2.0614   -2.6644   -5.7679 C.2        1 <1>        0.000
      9 C21         0.8581   -2.1808   -6.0978 C.2        1 <1>        0.000
     10 N5          0.0397   -1.4067   -5.3456 N.am       1 <1>        0.000
     11 C28        -1.1584   -0.8654   -5.6720 C.2        1 <1>        0.000
     12 O4         -1.7212   -0.9843   -6.7483 O.2        1 <1>        0.000
     13 H           6.4420   -2.7215   -7.2576 H.spc      1 <1>        0.000
     14 H           4.3914   -1.2747   -5.5210 H.spc      1 <1>        0.000
     15 H           5.3224    0.6733   -6.2722 H.spc      1 <1>        0.000
     16 H           7.6073   -0.8466   -7.4087 H.spc      1 <1>        0.000
     17 H           2.5068   -2.4253   -4.8022 H.spc      1 <1>        0.000
     18 H           0.4926   -2.4411   -7.0912 H.spc      1 <1>        0.000
     19 H           0.3715   -1.2032   -4.4028 H.spc      1 <1>        0.000
     20 H          -1.6627   -0.2733   -4.9083 H.spc      1 <1>        0.000
@<TRIPOS>BOND
     1    6    7 2  
     2   10   11 am 
     3    9   10 1  
     4    8    9 2  
     5    5    6 am 
     6    4    5 1  
     7    1    2 1  
     8    1    8 1  
     9    2    3 1  
    10    3    4 2  
    11   11   12 2  
    12    3   13 1  
    13    4   14 1  
    14    5   15 1  
    15    6   16 1  
    16    8   17 1  
    17    9   18 1  
    18   10   19 1  
    19   11   20 1  
# Name:          frag3-195-6/31924
# Creation time: Sat Jun  5 12:52:13 2010


@<TRIPOS>MOLECULE
frag3-195-6/31924
   20    19     1     1     1
SMALL
USER_CHARGES


@<TRIPOS>ATOM
      1 S1          4.4458   -2.5041   -4.8769 S.3        1 <1>        0.000
      2 S2          3.0766   -1.0836   -5.3456 S.3        1 <1>        0.000
      3 C1          1.5696   -2.0413   -5.2208 C.2        1 <1>        0.000
      4 C2          0.5036   -1.6660   -5.9416 C.2        1 <1>        0.000
      5 N1         -0.7056   -2.2791   -6.0104 N.am       1 <1>        0.000
      6 C9         -1.8590   -1.8157   -6.5462 C.2        1 <1>        0.000
      7 O1         -2.9126   -2.4269   -6.6014 O.2        1 <1>        0.000
      8 C20         5.4376   -2.5045   -6.3662 C.2        1 <1>        0.000
      9 C21         6.3175   -1.5098   -6.5494 C.2        1 <1>        0.000
     10 N5          7.1740   -1.3497   -7.5889 N.am       1 <1>        0.000
     11 C28         7.9336   -0.2736   -7.9070 C.2        1 <1>        0.000
     12 O4          8.0333    0.7445   -7.2425 O.2        1 <1>        0.000
     13 H           1.5196   -2.9143   -4.5701 H.spc      1 <1>        0.000
     14 H           0.6213   -0.7640   -6.5421 H.spc      1 <1>        0.000
     15 H          -0.7511   -3.2136   -5.6042 H.spc      1 <1>        0.000
     16 H          -1.8447   -0.8092   -6.9644 H.spc      1 <1>        0.000
     17 H           5.3288   -3.2958   -7.1079 H.spc      1 <1>        0.000
     18 H           6.3481   -0.7429   -5.7754 H.spc      1 <1>        0.000
     19 H           7.2578   -2.1488   -8.2172 H.spc      1 <1>        0.000
     20 H           8.5036   -0.3218   -8.8349 H.spc      1 <1>        0.000
@<TRIPOS>BOND
     1    6    7 2  
     2   10   11 am 
     3    9   10 1  
     4    8    9 2  
     5    5    6 am 
     6    4    5 1  
     7    1    2 1  
     8    1    8 1  
     9    2    3 1  
    10    3    4 2  
    11   11   12 2  
    12    3   13 1  
    13    4   14 1  
    14    5   15 1  
    15    6   16 1  
    16    8   17 1  
    17    9   18 1  
    18   10   19 1  
    19   11   20 1  
# Name:          frag3-195-6/31924
# Creation time: Sat Jun  5 12:52:13 2010


@<TRIPOS>MOLECULE
frag3-195-6/31924
   20    19     1     1     1
SMALL
USER_CHARGES


@<TRIPOS>ATOM
      1 S1          3.2576   -3.3072   -5.1788 S.3        1 <1>        0.000
      2 S2          4.1478   -3.3222   -6.9945 S.3        1 <1>        0.000
      3 C1          5.1526   -1.8573   -6.8839 C.2        1 <1>        0.000
      4 C2          6.4121   -1.8861   -7.3397 C.2        1 <1>        0.000
      5 N1          7.3125   -0.8739   -7.3727 N.am       1 <1>        0.000
      6 C9          7.2008    0.3674   -6.8440 C.2        1 <1>        0.000
      7 O1          6.2491    0.7845   -6.2031 O.2        1 <1>        0.000
      8 C20         1.5872   -2.8890   -5.6270 C.2        1 <1>        0.000
      9 C21         1.0868   -1.7022   -5.2586 C.2        1 <1>        0.000
     10 N5         -0.1361   -1.1968   -5.5317 N.am       1 <1>        0.000
     11 C28        -1.0819   -1.6650   -6.3817 C.2        1 <1>        0.000
     12 O4         -2.1742   -1.1621   -6.5813 O.2        1 <1>        0.000
     13 H           4.7465   -0.9441   -6.4488 H.spc      1 <1>        0.000
     14 H           6.7554   -2.8430   -7.7330 H.spc      1 <1>        0.000
     15 H           8.1871   -1.0729   -7.8585 H.spc      1 <1>        0.000
     16 H           8.0323    1.0536   -7.0044 H.spc      1 <1>        0.000
     17 H           0.9774   -3.5912   -6.1954 H.spc      1 <1>        0.000
     18 H           1.7462   -1.0673   -4.6668 H.spc      1 <1>        0.000
     19 H          -0.3815   -0.3444   -5.0281 H.spc      1 <1>        0.000
     20 H          -0.8447   -2.5727   -6.9367 H.spc      1 <1>        0.000
@<TRIPOS>BOND
     1    6    7 2  
     2   10   11 am 
     3    9   10 1  
     4    8    9 2  
     5    5    6 am 
     6    4    5 1  
     7    1    2 1  
     8    1    8 1  
     9    2    3 1  
    10    3    4 2  
    11   11   12 2  
    12    3   13 1  
    13    4   14 1  
    14    5   15 1  
    15    6   16 1  
    16    8   17 1  
    17    9   18 1  
    18   10   19 1  
    19   11   20 1  
# Name:          frag3-195-6/31924
# Creation time: Sat Jun  5 12:52:13 2010


@<TRIPOS>MOLECULE
frag3-195-6/31924
   20    19     1     1     1
SMALL
USER_CHARGES


@<TRIPOS>ATOM
      1 S1          3.1725   -4.0264   -7.4713 S.3        1 <1>        0.000
      2 S2          3.9971   -4.0583   -5.6188 S.3        1 <1>        0.000
      3 C1          4.3560   -2.3204   -5.4007 C.2        1 <1>        0.000
      4 C2          5.2236   -1.7288   -6.2355 C.2        1 <1>        0.000
      5 N1          5.5945   -0.4247   -6.2583 N.am       1 <1>        0.000
      6 C9          6.4057    0.2103   -7.1362 C.2        1 <1>        0.000
      7 O1          6.7239    1.3863   -7.0888 O.2        1 <1>        0.000
      8 C20         1.5040   -3.5222   -7.0759 C.2        1 <1>        0.000
      9 C21         1.2987   -2.2801   -6.6145 C.2        1 <1>        0.000
     10 N5          0.1151   -1.7057   -6.2883 N.am       1 <1>        0.000
     11 C28        -0.1148   -0.5265   -5.6621 C.2        1 <1>        0.000
     12 O4          0.7382    0.2867   -5.3466 O.2        1 <1>        0.000
     13 H           3.8781   -1.7514   -4.6032 H.spc      1 <1>        0.000
     14 H           5.6851   -2.3727   -6.9842 H.spc      1 <1>        0.000
     15 H           5.2102    0.1562   -5.5131 H.spc      1 <1>        0.000
     16 H           6.8099   -0.3815   -7.9575 H.spc      1 <1>        0.000
     17 H           0.6696   -4.2111   -7.2073 H.spc      1 <1>        0.000
     18 H           2.1864   -1.6605   -6.4870 H.spc      1 <1>        0.000
     19 H          -0.7171   -2.2340   -6.5504 H.spc      1 <1>        0.000
     20 H          -1.1494   -0.2838   -5.4197 H.spc      1 <1>        0.000
@<TRIPOS>BOND
     1    6    7 2  
     2   10   11 am 
     3    9   10 1  
     4    8    9 2  
     5    5    6 am 
     6    4    5 1  
     7    1    2 1  
     8    1    8 1  
     9    2    3 1  
    10    3    4 2  
    11   11   12 2  
    12    3   13 1  
    13    4   14 1  
    14    5   15 1  
    15    6   16 1  
    16    8   17 1  
    17    9   18 1  
    18   10   19 1  
    19   11   20 1  
# Name:          frag3-195-6/31924
# Creation time: Sat Jun  5 12:52:13 2010


@<TRIPOS>MOLECULE
frag3-195-6/31924
   20    19     1     1     1
SMALL
USER_CHARGES


@<TRIPOS>ATOM
      1 S1          2.8691   -4.1612   -5.4796 S.3        1 <1>        0.000
      2 S2          4.2168   -4.1615   -6.9891 S.3        1 <1>        0.000
      3 C1          5.1052   -2.6567   -6.6269 C.2        1 <1>        0.000
      4 C2          5.0601   -1.6417   -7.5014 C.2        1 <1>        0.000
      5 N1          5.6300   -0.4189   -7.3851 N.am       1 <1>        0.000
      6 C9          6.0968    0.1939   -6.2718 C.2        1 <1>        0.000
      7 O1          6.5078    1.3397   -6.2073 O.2        1 <1>        0.000
      8 C20         1.8896   -2.7328   -5.9070 C.2        1 <1>        0.000
      9 C21         0.8971   -2.3551   -5.0918 C.2        1 <1>        0.000
     10 N5          0.0701   -1.2913   -5.2285 N.am       1 <1>        0.000
     11 C28        -0.0151   -0.4106   -6.2549 C.2        1 <1>        0.000
     12 O4          0.6871   -0.4138   -7.2534 O.2        1 <1>        0.000
     13 H           5.6784   -2.5639   -5.7044 H.spc      1 <1>        0.000
     14 H           4.4966   -1.8226   -8.4167 H.spc      1 <1>        0.000
     15 H           5.7195    0.1112   -8.2519 H.spc      1 <1>        0.000
     16 H           6.1059   -0.3893   -5.3510 H.spc      1 <1>        0.000
     17 H           2.0965   -2.1747   -6.8201 H.spc      1 <1>        0.000
     18 H           0.7352   -2.9786   -4.2125 H.spc      1 <1>        0.000
     19 H          -0.5753   -1.1316   -4.4550 H.spc      1 <1>        0.000
     20 H          -0.7755    0.3670   -6.1827 H.spc      1 <1>        0.000
@<TRIPOS>BOND
     1    6    7 2  
     2   10   11 am 
     3    9   10 1  
     4    8    9 2  
     5    5    6 am 
     6    4    5 1  
     7    1    2 1  
     8    1    8 1  
     9    2    3 1  
    10    3    4 2  
    11   11   12 2  
    12    3   13 1  
    13    4   14 1  
    14    5   15 1  
    15    6   16 1  
    16    8   17 1  
    17    9   18 1  
    18   10   19 1  
    19   11   20 1  
# Name:          frag3-195-6/31924
# Creation time: Sat Jun  5 12:52:13 2010


@<TRIPOS>MOLECULE
frag3-195-6/31924
   20    19     1     1     1
SMALL
USER_CHARGES


@<TRIPOS>ATOM
      1 S1          4.2105   -3.8518   -5.9087 S.3        1 <1>        0.000
      2 S2          3.0633   -2.7260   -4.6720 S.3        1 <1>        0.000
      3 C1          2.1247   -1.7891   -5.8747 C.2        1 <1>        0.000
      4 C2          0.7861   -1.8062   -5.8041 C.2        1 <1>        0.000
      5 N1         -0.0922   -1.1371   -6.5950 N.am       1 <1>        0.000
      6 C9         -1.4351   -1.2855   -6.6782 C.2        1 <1>        0.000
      7 O1         -2.0932   -2.1282   -6.0914 O.2        1 <1>        0.000
      8 C20         5.6980   -2.8584   -5.9650 C.2        1 <1>        0.000
      9 C21         5.6713   -1.7025   -6.6435 C.2        1 <1>        0.000
     10 N5          6.6766   -0.8025   -6.7762 N.am       1 <1>        0.000
     11 C28         6.7195    0.3216   -7.5316 C.2        1 <1>        0.000
     12 O4          7.6850    1.0559   -7.6564 O.2        1 <1>        0.000
     13 H           2.6323   -1.2153   -6.6501 H.spc      1 <1>        0.000
     14 H           0.3525   -2.4290   -5.0216 H.spc      1 <1>        0.000
     15 H           0.3137   -0.4293   -7.2071 H.spc      1 <1>        0.000
     16 H          -1.9742   -0.5930   -7.3246 H.spc      1 <1>        0.000
     17 H           6.6059   -3.1860   -5.4586 H.spc      1 <1>        0.000
     18 H           4.7351   -1.4585   -7.1455 H.spc      1 <1>        0.000
     19 H           7.5168   -0.9987   -6.2322 H.spc      1 <1>        0.000
     20 H           5.8137    0.5926   -8.0740 H.spc      1 <1>        0.000
@<TRIPOS>BOND
     1    6    7 2  
     2   10   11 am 
     3    9   10 1  
     4    8    9 2  
     5    5    6 am 
     6    4    5 1  
     7    1    2 1  
     8    1    8 1  
     9    2    3 1  
    10    3    4 2  
    11   11   12 2  
    12    3   13 1  
    13    4   14 1  
    14    5   15 1  
    15    6   16 1  
    16    8   17 1  
    17    9   18 1  
    18   10   19 1  
    19   11   20 1  
# Name:          frag3-195-6/31924
# Creation time: Sat Jun  5 12:52:13 2010


@<TRIPOS>MOLECULE
frag3-195-6/31924
   20    19     1     1     1
SMALL
USER_CHARGES


@<TRIPOS>ATOM
      1 S1          4.3189   -2.7012   -6.1342 S.3        1 <1>        0.000
      2 S2          2.6108   -2.3636   -7.1741 S.3        1 <1>        0.000
      3 C1          1.3942   -2.7215   -5.9091 C.2        1 <1>        0.000
      4 C2          0.1193   -2.3657   -6.1218 C.2        1 <1>        0.000
      5 N1         -0.9456   -2.5828   -5.3067 N.am       1 <1>        0.000
      6 C9         -2.2136   -2.1270   -5.4362 C.2        1 <1>        0.000
      7 O1         -2.5766   -1.2479   -6.1996 O.2        1 <1>        0.000
      8 C20         5.0965   -1.0928   -6.2554 C.2        1 <1>        0.000
      9 C21         6.3813   -1.0305   -6.6317 C.2        1 <1>        0.000
     10 N5          7.1323    0.0851   -6.8111 N.am       1 <1>        0.000
     11 C28         8.4542    0.1839   -7.0925 C.2        1 <1>        0.000
     12 O4          9.2429   -0.7459   -7.1246 O.2        1 <1>        0.000
     13 H           1.6849   -3.2191   -4.9839 H.spc      1 <1>        0.000
     14 H          -0.0864   -1.8424   -7.0556 H.spc      1 <1>        0.000
     15 H          -0.7660   -3.1661   -4.4894 H.spc      1 <1>        0.000
     16 H          -2.9749   -2.5846   -4.8045 H.spc      1 <1>        0.000
     17 H           4.5376   -0.1850   -6.0283 H.spc      1 <1>        0.000
     18 H           6.8787   -1.9831   -6.8141 H.spc      1 <1>        0.000
     19 H           6.6338    0.9705   -6.7220 H.spc      1 <1>        0.000
     20 H           8.8456    1.1780   -7.3083 H.spc      1 <1>        0.000
@<TRIPOS>BOND
     1    6    7 2  
     2   10   11 am 
     3    9   10 1  
     4    8    9 2  
     5    5    6 am 
     6    4    5 1  
     7    1    2 1  
     8    1    8 1  
     9    2    3 1  
    10    3    4 2  
    11   11   12 2  
    12    3   13 1  
    13    4   14 1  
    14    5   15 1  
    15    6   16 1  
    16    8   17 1  
    17    9   18 1  
    18   10   19 1  
    19   11   20 1  
# Name:          frag3-195-6/31924
# Creation time: Sat Jun  5 12:52:13 2010


@<TRIPOS>MOLECULE
frag3-195-6/31924
   20    19     1     1     1
SMALL
USER_CHARGES


@<TRIPOS>ATOM
      1 S1          2.8989   -4.8581   -6.1450 S.3        1 <1>        0.000
      2 S2          4.7115   -4.5265   -6.9966 S.3        1 <1>        0.000
      3 C1          5.1765   -3.0081   -6.1599 C.2        1 <1>        0.000
      4 C2          4.8597   -1.8388   -6.7351 C.2        1 <1>        0.000
      5 N1          5.0909   -0.5918   -6.2434 N.am       1 <1>        0.000
      6 C9          4.7448    0.6018   -6.7805 C.2        1 <1>        0.000
      7 O1          4.7905    1.6764   -6.2057 O.2        1 <1>        0.000
      8 C20         1.9755   -3.4681   -6.8043 C.2        1 <1>        0.000
      9 C21         1.9022   -2.3495   -6.0692 C.2        1 <1>        0.000
     10 N5          1.2810   -1.1891   -6.4049 N.am       1 <1>        0.000
     11 C28         1.1001   -0.0757   -5.6534 C.2        1 <1>        0.000
     12 O4          0.4829    0.9178   -5.9990 O.2        1 <1>        0.000
     13 H           5.7041   -3.0358   -5.2065 H.spc      1 <1>        0.000
     14 H           4.3621   -1.8937   -7.7033 H.spc      1 <1>        0.000
     15 H           5.5898   -0.5506   -5.3547 H.spc      1 <1>        0.000
     16 H           4.3961    0.6024   -7.8132 H.spc      1 <1>        0.000
     17 H           1.4871   -3.5316   -7.7767 H.spc      1 <1>        0.000
     18 H           2.3943   -2.3737   -5.0969 H.spc      1 <1>        0.000
     19 H           0.8992   -1.1504   -7.3499 H.spc      1 <1>        0.000
     20 H           1.5430   -0.0676   -4.6575 H.spc      1 <1>        0.000
@<TRIPOS>BOND
     1    6    7 2  
     2   10   11 am 
     3    9   10 1  
     4    8    9 2  
     5    5    6 am 
     6    4    5 1  
     7    1    2 1  
     8    1    8 1  
     9    2    3 1  
    10    3    4 2  
    11   11   12 2  
    12    3   13 1  
    13    4   14 1  
    14    5   15 1  
    15    6   16 1  
    16    8   17 1  
    17    9   18 1  
    18   10   19 1  
    19   11   20 1  
# Name:          frag3-195-6/31924
# Creation time: Sat Jun  5 12:52:13 2010


@<TRIPOS>MOLECULE
frag3-195-6/31924
   20    19     1     1     1
SMALL
USER_CHARGES


@<TRIPOS>ATOM
      1 S1          4.7240   -4.2532   -5.9526 S.3        1 <1>        0.000
      2 S2          3.5192   -3.9762   -7.5610 S.3        1 <1>        0.000
      3 C1          2.0052   -3.4843   -6.7395 C.2        1 <1>        0.000
      4 C2          1.7235   -2.1773   -6.6360 C.2        1 <1>        0.000
      5 N1          0.6176   -1.6119   -6.0867 N.am       1 <1>        0.000
      6 C9          0.3018   -0.2995   -5.9857 C.2        1 <1>        0.000
      7 O1         -0.6839    0.1524   -5.4280 O.2        1 <1>        0.000
      8 C20         4.7971   -2.5825   -5.3118 C.2        1 <1>        0.000
      9 C21         5.1805   -1.5979   -6.1370 C.2        1 <1>        0.000
     10 N5          5.2692   -0.2744   -5.8523 N.am       1 <1>        0.000
     11 C28         5.6531    0.7448   -6.6586 C.2        1 <1>        0.000
     12 O4          5.9073    0.6500   -7.8477 O.2        1 <1>        0.000
     13 H           1.3260   -4.2329   -6.3316 H.spc      1 <1>        0.000
     14 H           2.4674   -1.4900   -7.0389 H.spc      1 <1>        0.000
     15 H          -0.0656   -2.2624   -5.6988 H.spc      1 <1>        0.000
     16 H           0.9874    0.4145   -6.4420 H.spc      1 <1>        0.000
     17 H           4.5359   -2.3710   -4.2749 H.spc      1 <1>        0.000
     18 H           5.4514   -1.8940   -7.1504 H.spc      1 <1>        0.000
     19 H           5.0117   -0.0104   -4.9013 H.spc      1 <1>        0.000
     20 H           5.7422    1.7326   -6.2064 H.spc      1 <1>        0.000
@<TRIPOS>BOND
     1    6    7 2  
     2   10   11 am 
     3    9   10 1  
     4    8    9 2  
     5    5    6 am 
     6    4    5 1  
     7    1    2 1  
     8    1    8 1  
     9    2    3 1  
    10    3    4 2  
    11   11   12 2  
    12    3   13 1  
    13    4   14 1  
    14    5   15 1  
    15    6   16 1  
    16    8   17 1  
    17    9   18 1  
    18   10   19 1  
    19   11   20 1  
# Name:          frag3-195-6/31924
# Creation time: Sat Jun  5 12:52:13 2010


@<TRIPOS>MOLECULE
frag3-195-6/31924
   20    19     1     1     1
SMALL
USER_CHARGES


@<TRIPOS>ATOM
      1 S1          3.7849   -3.1464   -6.9287 S.3        1 <1>        0.000
      2 S2          3.0278   -2.2970   -5.2528 S.3        1 <1>        0.000
      3 C1          1.3261   -2.0758   -5.7427 C.2        1 <1>        0.000
      4 C2          0.3536   -2.3252   -4.8550 C.2        1 <1>        0.000
      5 N1         -0.9846   -2.1843   -5.0262 N.am       1 <1>        0.000
      6 C9         -1.6573   -1.8381   -6.1489 C.2        1 <1>        0.000
      7 O1         -1.1582   -1.3754   -7.1619 O.2        1 <1>        0.000
      8 C20         4.8013   -1.8144   -7.5422 C.2        1 <1>        0.000
      9 C21         5.9191   -1.4954   -6.8734 C.2        1 <1>        0.000
     10 N5          6.8298   -0.5454   -7.1886 N.am       1 <1>        0.000
     11 C28         7.9661   -0.1998   -6.5371 C.2        1 <1>        0.000
     12 O4          8.8059    0.5873   -6.9393 O.2        1 <1>        0.000
     13 H           1.0809   -1.7421   -6.7510 H.spc      1 <1>        0.000
     14 H           0.6768   -2.6845   -3.8780 H.spc      1 <1>        0.000
     15 H          -1.5586   -2.3623   -4.2020 H.spc      1 <1>        0.000
     16 H          -2.7373   -1.9852   -6.1480 H.spc      1 <1>        0.000
     17 H           4.5190   -1.2703   -8.4435 H.spc      1 <1>        0.000
     18 H           6.1177   -2.0696   -5.9684 H.spc      1 <1>        0.000
     19 H           6.6327   -0.0144   -8.0369 H.spc      1 <1>        0.000
     20 H           8.1453   -0.6663   -5.5684 H.spc      1 <1>        0.000
@<TRIPOS>BOND
     1    6    7 2  
     2   10   11 am 
     3    9   10 1  
     4    8    9 2  
     5    5    6 am 
     6    4    5 1  
     7    1    2 1  
     8    1    8 1  
     9    2    3 1  
    10    3    4 2  
    11   11   12 2  
    12    3   13 1  
    13    4   14 1  
    14    5   15 1  
    15    6   16 1  
    16    8   17 1  
    17    9   18 1  
    18   10   19 1  
    19   11   20 1  
# Name:          frag3-195-6/31924
# Creation time: Sat Jun  5 12:52:13 2010


@<TRIPOS>MOLECULE
frag3-195-6/31924
   20    19     1     1     1
SMALL
USER_CHARGES


@<TRIPOS>ATOM
      1 S1          4.3061   -3.9002   -6.2603 S.3        1 <1>        0.000
      2 S2          3.1630   -2.9903   -4.8551 S.3        1 <1>        0.000
      3 C1          2.2634   -1.8301   -5.8763 C.2        1 <1>        0.000
      4 C2          0.9240   -1.8265   -5.8273 C.2        1 <1>        0.000
      5 N1          0.0724   -1.0055   -6.4932 N.am       1 <1>        0.000
      6 C9         -1.2746   -1.0899   -6.5958 C.2        1 <1>        0.000
      7 O1         -1.9645   -1.9942   -6.1548 O.2        1 <1>        0.000
      8 C20         5.8133   -2.9491   -6.1198 C.2        1 <1>        0.000
      9 C21         5.8236   -1.6888   -6.5768 C.2        1 <1>        0.000
     10 N5          6.8493   -0.8034   -6.5324 N.am       1 <1>        0.000
     11 C28         6.9266    0.4373   -7.0713 C.2        1 <1>        0.000
     12 O4          6.1119    0.9308   -7.8336 O.2        1 <1>        0.000
     13 H           2.7957   -1.1372   -6.5279 H.spc      1 <1>        0.000
     14 H           0.4645   -2.5702   -5.1762 H.spc      1 <1>        0.000
     15 H           0.5049   -0.2210   -6.9809 H.spc      1 <1>        0.000
     16 H          -1.7866   -0.2809   -7.1169 H.spc      1 <1>        0.000
     17 H           6.7060   -3.3852   -5.6715 H.spc      1 <1>        0.000
     18 H           4.9010   -1.3352   -7.0371 H.spc      1 <1>        0.000
     19 H           7.6767   -1.1140   -6.0232 H.spc      1 <1>        0.000
     20 H           7.7895    1.0459   -6.8009 H.spc      1 <1>        0.000
@<TRIPOS>BOND
     1    6    7 2  
     2   10   11 am 
     3    9   10 1  
     4    8    9 2  
     5    5    6 am 
     6    4    5 1  
     7    1    2 1  
     8    1    8 1  
     9    2    3 1  
    10    3    4 2  
    11   11   12 2  
    12    3   13 1  
    13    4   14 1  
    14    5   15 1  
    15    6   16 1  
    16    8   17 1  
    17    9   18 1  
    18   10   19 1  
    19   11   20 1  
# Name:          frag3-195-6/31924
# Creation time: Sat Jun  5 12:52:13 2010


@<TRIPOS>MOLECULE
frag3-195-6/31924
   20    19     1     1     1
SMALL
USER_CHARGES


@<TRIPOS>ATOM
      1 S1          4.1153   -3.7041   -5.4297 S.3        1 <1>        0.000
      2 S2          3.0756   -3.6769   -7.1704 S.3        1 <1>        0.000
      3 C1          2.2877   -2.0757   -7.0453 C.2        1 <1>        0.000
      4 C2          1.0727   -1.9950   -6.4837 C.2        1 <1>        0.000
      5 N1          0.3344   -0.8771   -6.2640 N.am       1 <1>        0.000
      6 C9         -0.8732   -0.7676   -5.6627 C.2        1 <1>        0.000
      7 O1         -1.5863   -1.6991   -5.3284 O.2        1 <1>        0.000
      8 C20         5.6476   -2.9460   -5.9543 C.2        1 <1>        0.000
      9 C21         5.6732   -1.6209   -6.1560 C.2        1 <1>        0.000
     10 N5          6.7356   -0.8631   -6.5236 N.am       1 <1>        0.000
     11 C28         6.7565    0.4217   -6.9532 C.2        1 <1>        0.000
     12 O4          5.7754    1.0938   -7.2256 O.2        1 <1>        0.000
     13 H           2.7865   -1.1814   -7.4190 H.spc      1 <1>        0.000
     14 H           0.6256   -2.9371   -6.1665 H.spc      1 <1>        0.000
     15 H           0.7441   -0.0040   -6.5961 H.spc      1 <1>        0.000
     16 H          -1.2398    0.2387   -5.4599 H.spc      1 <1>        0.000
     17 H           6.5426   -3.5491   -6.1070 H.spc      1 <1>        0.000
     18 H           4.7318   -1.0920   -6.0074 H.spc      1 <1>        0.000
     19 H           7.6441   -1.3236   -6.4693 H.spc      1 <1>        0.000
     20 H           7.7321    0.8947   -7.0649 H.spc      1 <1>        0.000
@<TRIPOS>BOND
     1    6    7 2  
     2   10   11 am 
     3    9   10 1  
     4    8    9 2  
     5    5    6 am 
     6    4    5 1  
     7    1    2 1  
     8    1    8 1  
     9    2    3 1  
    10    3    4 2  
    11   11   12 2  
    12    3   13 1  
    13    4   14 1  
    14    5   15 1  
    15    6   16 1  
    16    8   17 1  
    17    9   18 1  
    18   10   19 1  
    19   11   20 1  
# Name:          frag3-195-6/31924
# Creation time: Sat Jun  5 12:52:13 2010


@<TRIPOS>MOLECULE
frag3-195-6/31924
   20    19     1     1     1
SMALL
USER_CHARGES


@<TRIPOS>ATOM
      1 S1          3.2375   -3.4307   -4.9613 S.3        1 <1>        0.000
      2 S2          3.8378   -3.3034   -6.8909 S.3        1 <1>        0.000
      3 C1          4.9306   -1.8971   -6.7965 C.2        1 <1>        0.000
      4 C2          6.1475   -1.9739   -7.3520 C.2        1 <1>        0.000
      5 N1          7.0984   -1.0094   -7.4135 N.am       1 <1>        0.000
      6 C9          7.0371    0.2620   -6.9524 C.2        1 <1>        0.000
      7 O1          6.0926    0.7584   -6.3597 O.2        1 <1>        0.000
      8 C20         2.1487   -2.0218   -4.8640 C.2        1 <1>        0.000
      9 C21         0.9980   -2.0441   -5.5521 C.2        1 <1>        0.000
     10 N5          0.0330   -1.0949   -5.5869 N.am       1 <1>        0.000
     11 C28        -1.1138   -1.0713   -6.3071 C.2        1 <1>        0.000
     12 O4         -1.4328   -1.8835   -7.1606 O.2        1 <1>        0.000
     13 H           4.6119   -0.9848   -6.2923 H.spc      1 <1>        0.000
     14 H           6.4045   -2.9287   -7.8106 H.spc      1 <1>        0.000
     15 H           7.9730   -1.2762   -7.8656 H.spc      1 <1>        0.000
     16 H           7.9060    0.8970   -7.1253 H.spc      1 <1>        0.000
     17 H           2.4140   -1.1572   -4.2556 H.spc      1 <1>        0.000
     18 H           0.8178   -2.9334   -6.1561 H.spc      1 <1>        0.000
     19 H           0.1918   -0.2851   -4.9874 H.spc      1 <1>        0.000
     20 H          -1.8112   -0.2578   -6.1075 H.spc      1 <1>        0.000
@<TRIPOS>BOND
     1    6    7 2  
     2   10   11 am 
     3    9   10 1  
     4    8    9 2  
     5    5    6 am 
     6    4    5 1  
     7    1    2 1  
     8    1    8 1  
     9    2    3 1  
    10    3    4 2  
    11   11   12 2  
    12    3   13 1  
    13    4   14 1  
    14    5   15 1  
    15    6   16 1  
    16    8   17 1  
    17    9   18 1  
    18   10   19 1  
    19   11   20 1  
# Name:          frag3-195-6/31924
# Creation time: Sat Jun  5 12:52:13 2010


@<TRIPOS>MOLECULE
frag3-195-6/31924
   20    19     1     1     1
SMALL
USER_CHARGES


@<TRIPOS>ATOM
      1 S1          3.1681   -4.1131   -7.0340 S.3        1 <1>        0.000
      2 S2          4.6782   -4.3647   -5.7029 S.3        1 <1>        0.000
      3 C1          5.0895   -2.6537   -5.3666 C.2        1 <1>        0.000
      4 C2          5.2999   -1.8270   -6.4016 C.2        1 <1>        0.000
      5 N1          5.5822   -0.4994   -6.3535 N.am       1 <1>        0.000
      6 C9          5.7208    0.3720   -7.3801 C.2        1 <1>        0.000
      7 O1          5.7823    1.5855   -7.2775 O.2        1 <1>        0.000
      8 C20         1.9087   -3.4176   -5.9673 C.2        1 <1>        0.000
      9 C21         1.3614   -2.2420   -6.3061 C.2        1 <1>        0.000
     10 N5          0.3803   -1.5726   -5.6504 N.am       1 <1>        0.000
     11 C28        -0.1732   -0.3715   -5.9456 C.2        1 <1>        0.000
     12 O4          0.2164    0.3942   -6.8114 O.2        1 <1>        0.000
     13 H           5.1672   -2.2918   -4.3414 H.spc      1 <1>        0.000
     14 H           5.2371   -2.2715   -7.3949 H.spc      1 <1>        0.000
     15 H           5.7062   -0.1070   -5.4202 H.spc      1 <1>        0.000
     16 H           5.7827   -0.0470   -8.3845 H.spc      1 <1>        0.000
     17 H           1.5944   -3.9386   -5.0630 H.spc      1 <1>        0.000
     18 H           1.7479   -1.7709   -7.2098 H.spc      1 <1>        0.000
     19 H           0.0084   -2.0370   -4.8219 H.spc      1 <1>        0.000
     20 H          -1.0395   -0.0637   -5.3601 H.spc      1 <1>        0.000
@<TRIPOS>BOND
     1    6    7 2  
     2   10   11 am 
     3    9   10 1  
     4    8    9 2  
     5    5    6 am 
     6    4    5 1  
     7    1    2 1  
     8    1    8 1  
     9    2    3 1  
    10    3    4 2  
    11   11   12 2  
    12    3   13 1  
    13    4   14 1  
    14    5   15 1  
    15    6   16 1  
    16    8   17 1  
    17    9   18 1  
    18   10   19 1  
    19   11   20 1  
# Name:          frag3-195-6/31924
# Creation time: Sat Jun  5 12:52:13 2010


@<TRIPOS>MOLECULE
frag3-195-6/31924
   20    19     1     1     1
SMALL
USER_CHARGES


@<TRIPOS>ATOM
      1 S1          4.5311   -3.9112   -5.8517 S.3        1 <1>        0.000
      2 S2          2.8288   -3.8221   -6.9479 S.3        1 <1>        0.000
      3 C1          2.1830   -2.2440   -6.4058 C.2        1 <1>        0.000
      4 C2          0.8579   -2.0982   -6.2696 C.2        1 <1>        0.000
      5 N1          0.1850   -1.0013   -5.8368 N.am       1 <1>        0.000
      6 C9         -1.1490   -0.8381   -5.6763 C.2        1 <1>        0.000
      7 O1         -2.0050   -1.6524   -5.9799 O.2        1 <1>        0.000
      8 C20         5.4316   -2.5256   -6.5359 C.2        1 <1>        0.000
      9 C21         5.5981   -1.4305   -5.7811 C.2        1 <1>        0.000
     10 N5          6.2696   -0.2998   -6.1075 N.am       1 <1>        0.000
     11 C28         6.8183    0.0509   -7.2960 C.2        1 <1>        0.000
     12 O4          7.4651    1.0624   -7.5085 O.2        1 <1>        0.000
     13 H           2.8565   -1.4146   -6.1898 H.spc      1 <1>        0.000
     14 H           0.2488   -2.9615   -6.5377 H.spc      1 <1>        0.000
     15 H           0.7611   -0.1931   -5.6014 H.spc      1 <1>        0.000
     16 H          -1.4872    0.1010   -5.2384 H.spc      1 <1>        0.000
     17 H           5.8370   -2.5708   -7.5467 H.spc      1 <1>        0.000
     18 H           5.1411   -1.4520   -4.7918 H.spc      1 <1>        0.000
     19 H           6.3768    0.3809   -5.3554 H.spc      1 <1>        0.000
     20 H           6.6685   -0.6298   -8.1340 H.spc      1 <1>        0.000
@<TRIPOS>BOND
     1    6    7 2  
     2   10   11 am 
     3    9   10 1  
     4    8    9 2  
     5    5    6 am 
     6    4    5 1  
     7    1    2 1  
     8    1    8 1  
     9    2    3 1  
    10    3    4 2  
    11   11   12 2  
    12    3   13 1  
    13    4   14 1  
    14    5   15 1  
    15    6   16 1  
    16    8   17 1  
    17    9   18 1  
    18   10   19 1  
    19   11   20 1  
# Name:          frag3-195-6/31924
# Creation time: Sat Jun  5 12:52:13 2010


@<TRIPOS>MOLECULE
frag3-195-6/31924
   20    19     1     1     1
SMALL
USER_CHARGES


@<TRIPOS>ATOM
      1 S1          4.1312   -3.4529   -5.8913 S.3        1 <1>        0.000
      2 S2          2.9822   -3.3025   -7.5518 S.3        1 <1>        0.000
      3 C1          1.6419   -2.3100   -6.9357 C.2        1 <1>        0.000
      4 C2          0.6377   -2.9020   -6.2707 C.2        1 <1>        0.000
      5 N1         -0.4383   -2.3204   -5.6959 N.am       1 <1>        0.000
      6 C9         -0.8046   -1.0171   -5.7091 C.2        1 <1>        0.000
      7 O1         -1.7924   -0.5456   -5.1735 O.2        1 <1>        0.000
      8 C20         5.4704   -2.3631   -6.3127 C.2        1 <1>        0.000
      9 C21         5.2817   -1.0365   -6.2500 C.2        1 <1>        0.000
     10 N5          6.1762   -0.0580   -6.5042 N.am       1 <1>        0.000
     11 C28         7.4806   -0.1648   -6.8558 C.2        1 <1>        0.000
     12 O4          8.2478    0.7630   -7.0462 O.2        1 <1>        0.000
     13 H           1.6359   -1.2319   -7.0964 H.spc      1 <1>        0.000
     14 H           0.6974   -3.9869   -6.1833 H.spc      1 <1>        0.000
     15 H          -1.0578   -2.9478   -5.1831 H.spc      1 <1>        0.000
     16 H          -0.1565   -0.3262   -6.2483 H.spc      1 <1>        0.000
     17 H           6.4348   -2.7684   -6.6188 H.spc      1 <1>        0.000
     18 H           4.2840   -0.7085   -5.9581 H.spc      1 <1>        0.000
     19 H           5.8208    0.8944   -6.4199 H.spc      1 <1>        0.000
     20 H           7.8798   -1.1715   -6.9795 H.spc      1 <1>        0.000
@<TRIPOS>BOND
     1    6    7 2  
     2   10   11 am 
     3    9   10 1  
     4    8    9 2  
     5    5    6 am 
     6    4    5 1  
     7    1    2 1  
     8    1    8 1  
     9    2    3 1  
    10    3    4 2  
    11   11   12 2  
    12    3   13 1  
    13    4   14 1  
    14    5   15 1  
    15    6   16 1  
    16    8   17 1  
    17    9   18 1  
    18   10   19 1  
    19   11   20 1  
# Name:          frag3-195-6/31924
# Creation time: Sat Jun  5 12:52:13 2010


@<TRIPOS>MOLECULE
frag3-195-6/31924
   20    19     1     1     1
SMALL
USER_CHARGES


@<TRIPOS>ATOM
      1 S1          3.8531   -2.6123   -7.8158 S.3        1 <1>        0.000
      2 S2          2.9165   -4.0667   -6.7563 S.3        1 <1>        0.000
      3 C1          1.8848   -3.0630   -5.6886 C.2        1 <1>        0.000
      4 C2          0.7540   -2.5445   -6.1893 C.2        1 <1>        0.000
      5 N1         -0.1709   -1.7956   -5.5343 N.am       1 <1>        0.000
      6 C9         -1.3266   -1.2758   -6.0105 C.2        1 <1>        0.000
      7 O1         -2.2115   -0.7774   -5.3355 O.2        1 <1>        0.000
      8 C20         4.7474   -1.7816   -6.5045 C.2        1 <1>        0.000
      9 C21         5.8079   -1.0301   -6.8312 C.2        1 <1>        0.000
     10 N5          6.5898   -0.3040   -5.9930 N.am       1 <1>        0.000
     11 C28         7.7628    0.3225   -6.2538 C.2        1 <1>        0.000
     12 O4          8.4072    0.2187   -7.2841 O.2        1 <1>        0.000
     13 H           2.1707   -2.8777   -4.6532 H.spc      1 <1>        0.000
     14 H           0.5543   -2.7470   -7.2415 H.spc      1 <1>        0.000
     15 H           0.0322   -1.5990   -4.5543 H.spc      1 <1>        0.000
     16 H          -1.4792   -1.3053   -7.0894 H.spc      1 <1>        0.000
     17 H           4.4362   -1.8850   -5.4650 H.spc      1 <1>        0.000
     18 H           6.0718   -0.9987   -7.8883 H.spc      1 <1>        0.000
     19 H           6.2480   -0.2180   -5.0358 H.spc      1 <1>        0.000
     20 H           8.1641    0.9740   -5.4775 H.spc      1 <1>        0.000
@<TRIPOS>BOND
     1    6    7 2  
     2   10   11 am 
     3    9   10 1  
     4    8    9 2  
     5    5    6 am 
     6    4    5 1  
     7    1    2 1  
     8    1    8 1  
     9    2    3 1  
    10    3    4 2  
    11   11   12 2  
    12    3   13 1  
    13    4   14 1  
    14    5   15 1  
    15    6   16 1  
    16    8   17 1  
    17    9   18 1  
    18   10   19 1  
    19   11   20 1  
# Name:          frag3-195-6/31924
# Creation time: Sat Jun  5 12:52:13 2010


@<TRIPOS>MOLECULE
frag3-195-6/31924
   20    19     1     1     1
SMALL
USER_CHARGES


@<TRIPOS>ATOM
      1 S1          3.2513   -3.9510   -5.4629 S.3        1 <1>        0.000
      2 S2          4.6312   -4.2023   -6.9264 S.3        1 <1>        0.000
      3 C1          5.8100   -2.9370   -6.4748 C.2        1 <1>        0.000
      4 C2          5.4906   -1.6503   -6.6777 C.2        1 <1>        0.000
      5 N1          6.2281   -0.5540   -6.3674 N.am       1 <1>        0.000
      6 C9          5.8935    0.7516   -6.4914 C.2        1 <1>        0.000
      7 O1          4.8218    1.1745   -6.8926 O.2        1 <1>        0.000
      8 C20         1.8594   -3.3661   -6.4183 C.2        1 <1>        0.000
      9 C21         1.2813   -2.2077   -6.0741 C.2        1 <1>        0.000
     10 N5          0.2440   -1.5875   -6.6881 N.am       1 <1>        0.000
     11 C28        -0.3840   -0.4373   -6.3444 C.2        1 <1>        0.000
     12 O4         -0.1128    0.2573   -5.3788 O.2        1 <1>        0.000
     13 H           6.7731   -3.2068   -6.0414 H.spc      1 <1>        0.000
     14 H           4.5249   -1.4629   -7.1471 H.spc      1 <1>        0.000
     15 H           7.1579   -0.7385   -5.9908 H.spc      1 <1>        0.000
     16 H           6.6457    1.4880   -6.2087 H.spc      1 <1>        0.000
     17 H           1.4873   -3.9415   -7.2660 H.spc      1 <1>        0.000
     18 H           1.6928   -1.7055   -5.1986 H.spc      1 <1>        0.000
     19 H          -0.1128   -2.0506   -7.5240 H.spc      1 <1>        0.000
     20 H          -1.2007   -0.1043   -6.9848 H.spc      1 <1>        0.000
@<TRIPOS>BOND
     1    6    7 2  
     2   10   11 am 
     3    9   10 1  
     4    8    9 2  
     5    5    6 am 
     6    4    5 1  
     7    1    2 1  
     8    1    8 1  
     9    2    3 1  
    10    3    4 2  
    11   11   12 2  
    12    3   13 1  
    13    4   14 1  
    14    5   15 1  
    15    6   16 1  
    16    8   17 1  
    17    9   18 1  
    18   10   19 1  
    19   11   20 1  
# Name:          frag3-195-6/31924
# Creation time: Sat Jun  5 12:52:13 2010


@<TRIPOS>MOLECULE
frag3-195-6/31924
   20    19     1     1     1
SMALL
USER_CHARGES


@<TRIPOS>ATOM
      1 S1          4.2472   -3.7532   -7.3038 S.3        1 <1>        0.000
      2 S2          3.1327   -3.8708   -5.6195 S.3        1 <1>        0.000
      3 C1          1.8689   -2.6659   -5.9831 C.2        1 <1>        0.000
      4 C2          0.6671   -2.7784   -5.4031 C.2        1 <1>        0.000
      5 N1         -0.3968   -1.9506   -5.5264 N.am       1 <1>        0.000
      6 C9         -0.4962   -0.8006   -6.2338 C.2        1 <1>        0.000
      7 O1         -1.4546   -0.0477   -6.2415 O.2        1 <1>        0.000
      8 C20         4.9017   -2.1015   -7.1514 C.2        1 <1>        0.000
      9 C21         6.1961   -1.9410   -6.8449 C.2        1 <1>        0.000
     10 N5          6.8778   -0.7810   -6.7125 N.am       1 <1>        0.000
     11 C28         6.3989    0.4830   -6.6170 C.2        1 <1>        0.000
     12 O4          7.0717    1.4979   -6.5601 O.2        1 <1>        0.000
     13 H           2.0729   -1.8455   -6.6711 H.spc      1 <1>        0.000
     14 H           0.5287   -3.6418   -4.7524 H.spc      1 <1>        0.000
     15 H          -1.2358   -2.2307   -5.0184 H.spc      1 <1>        0.000
     16 H           0.3576   -0.5231   -6.8520 H.spc      1 <1>        0.000
     17 H           4.2583   -1.2352   -7.3053 H.spc      1 <1>        0.000
     18 H           6.7678   -2.8548   -6.6830 H.spc      1 <1>        0.000
     19 H           7.8934   -0.8696   -6.6800 H.spc      1 <1>        0.000
     20 H           5.3159    0.6029   -6.5885 H.spc      1 <1>        0.000
@<TRIPOS>BOND
     1    6    7 2  
     2   10   11 am 
     3    9   10 1  
     4    8    9 2  
     5    5    6 am 
     6    4    5 1  
     7    1    2 1  
     8    1    8 1  
     9    2    3 1  
    10    3    4 2  
    11   11   12 2  
    12    3   13 1  
    13    4   14 1  
    14    5   15 1  
    15    6   16 1  
    16    8   17 1  
    17    9   18 1  
    18   10   19 1  
    19   11   20 1  
# Name:          frag3-195-6/31924
# Creation time: Sat Jun  5 12:52:13 2010


@<TRIPOS>MOLECULE
frag3-195-6/31924
   20    19     1     1     1
SMALL
USER_CHARGES


@<TRIPOS>ATOM
      1 S1          3.2535   -3.6001   -4.8351 S.3        1 <1>        0.000
      2 S2          3.6875   -3.9811   -6.7794 S.3        1 <1>        0.000
      3 C1          5.2087   -3.0540   -6.9507 C.2        1 <1>        0.000
      4 C2          5.1563   -1.7141   -6.9183 C.2        1 <1>        0.000
      5 N1          6.1948   -0.8435   -6.9916 N.am       1 <1>        0.000
      6 C9          6.1767    0.5055   -6.8830 C.2        1 <1>        0.000
      7 O1          7.1450    1.2396   -6.9841 O.2        1 <1>        0.000
      8 C20         2.4436   -2.0121   -4.9877 C.2        1 <1>        0.000
      9 C21         1.2493   -1.9577   -5.5943 C.2        1 <1>        0.000
     10 N5          0.4690   -0.8643   -5.7807 N.am       1 <1>        0.000
     11 C28        -0.6914   -0.7551   -6.4718 C.2        1 <1>        0.000
     12 O4         -1.2785   -1.6730   -7.0202 O.2        1 <1>        0.000
     13 H           6.1608   -3.5690   -7.0791 H.spc      1 <1>        0.000
     14 H           4.1641   -1.2732   -6.8219 H.spc      1 <1>        0.000
     15 H           7.1116   -1.2617   -7.1497 H.spc      1 <1>        0.000
     16 H           5.2131    0.9764   -6.6883 H.spc      1 <1>        0.000
     17 H           2.9110   -1.1086   -4.5960 H.spc      1 <1>        0.000
     18 H           0.8612   -2.8997   -5.9819 H.spc      1 <1>        0.000
     19 H           0.8012   -0.0064   -5.3402 H.spc      1 <1>        0.000
     20 H          -1.1379    0.2366   -6.5438 H.spc      1 <1>        0.000
@<TRIPOS>BOND
     1    6    7 2  
     2   10   11 am 
     3    9   10 1  
     4    8    9 2  
     5    5    6 am 
     6    4    5 1  
     7    1    2 1  
     8    1    8 1  
     9    2    3 1  
    10    3    4 2  
    11   11   12 2  
    12    3   13 1  
    13    4   14 1  
    14    5   15 1  
    15    6   16 1  
    16    8   17 1  
    17    9   18 1  
    18   10   19 1  
    19   11   20 1  
# Name:          frag3-195-6/31924
# Creation time: Sat Jun  5 12:52:13 2010


@<TRIPOS>MOLECULE
frag3-195-6/31924
   20    19     1     1     1
SMALL
USER_CHARGES


@<TRIPOS>ATOM
      1 S1          3.1758   -3.1341   -7.6831 S.3        1 <1>        0.000
      2 S2          4.1319   -3.3156   -5.9037 S.3        1 <1>        0.000
      3 C1          4.6820   -1.6295   -5.6654 C.2        1 <1>        0.000
      4 C2          5.8148   -1.2298   -6.2616 C.2        1 <1>        0.000
      5 N1          6.3717    0.0084   -6.2342 N.am       1 <1>        0.000
      6 C9          7.4893    0.4452   -6.8607 C.2        1 <1>        0.000
      7 O1          8.2843   -0.2562   -7.4639 O.2        1 <1>        0.000
      8 C20         1.4718   -3.2424   -7.1493 C.2        1 <1>        0.000
      9 C21         0.9129   -2.1726   -6.5660 C.2        1 <1>        0.000
     10 N5         -0.3621   -2.0481   -6.1231 N.am       1 <1>        0.000
     11 C28        -0.9008   -1.0860   -5.3356 C.2        1 <1>        0.000
     12 O4         -2.0571   -1.0494   -4.9502 O.2        1 <1>        0.000
     13 H           4.1070   -0.9401   -5.0471 H.spc      1 <1>        0.000
     14 H           6.3506   -1.9865   -6.8346 H.spc      1 <1>        0.000
     15 H           5.8833    0.7009   -5.6665 H.spc      1 <1>        0.000
     16 H           7.6964    1.5147   -6.8229 H.spc      1 <1>        0.000
     17 H           0.9001   -4.1589   -7.2953 H.spc      1 <1>        0.000
     18 H           1.5573   -1.3037   -6.4327 H.spc      1 <1>        0.000
     19 H          -1.0052   -2.7802   -6.4244 H.spc      1 <1>        0.000
     20 H          -0.2443   -0.2753   -5.0195 H.spc      1 <1>        0.000
@<TRIPOS>BOND
     1    6    7 2  
     2   10   11 am 
     3    9   10 1  
     4    8    9 2  
     5    5    6 am 
     6    4    5 1  
     7    1    2 1  
     8    1    8 1  
     9    2    3 1  
    10    3    4 2  
    11   11   12 2  
    12    3   13 1  
    13    4   14 1  
    14    5   15 1  
    15    6   16 1  
    16    8   17 1  
    17    9   18 1  
    18   10   19 1  
    19   11   20 1  
# Name:          frag3-195-6/31924
# Creation time: Sat Jun  5 12:52:13 2010


@<TRIPOS>MOLECULE
frag3-195-6/31924
   20    19     1     1     1
SMALL
USER_CHARGES


@<TRIPOS>ATOM
      1 S1          3.3751   -3.6364   -7.4299 S.3        1 <1>        0.000
      2 S2          4.4483   -4.0583   -5.7635 S.3        1 <1>        0.000
      3 C1          4.8834   -2.4086   -5.2385 C.2        1 <1>        0.000
      4 C2          5.4275   -1.5647   -6.1288 C.2        1 <1>        0.000
      5 N1          5.7872   -0.2715   -5.9380 N.am       1 <1>        0.000
      6 C9          6.2984    0.6050   -6.8334 C.2        1 <1>        0.000
      7 O1          6.6065    0.3450   -7.9852 O.2        1 <1>        0.000
      8 C20         1.8929   -2.9592   -6.7037 C.2        1 <1>        0.000
      9 C21         1.6522   -1.6461   -6.8213 C.2        1 <1>        0.000
     10 N5          0.5792   -0.9584   -6.3678 N.am       1 <1>        0.000
     11 C28        -0.5161   -1.4206   -5.7172 C.2        1 <1>        0.000
     12 O4         -1.4201   -0.7362   -5.2695 O.2        1 <1>        0.000
     13 H           4.7097   -2.0915   -4.2102 H.spc      1 <1>        0.000
     14 H           5.6014   -1.9679   -7.1265 H.spc      1 <1>        0.000
     15 H           5.6548    0.0890   -4.9931 H.spc      1 <1>        0.000
     16 H           6.4477    1.6310   -6.4970 H.spc      1 <1>        0.000
     17 H           1.1932   -3.6041   -6.1721 H.spc      1 <1>        0.000
     18 H           2.4106   -1.0634   -7.3441 H.spc      1 <1>        0.000
     19 H           0.5970    0.0469   -6.5392 H.spc      1 <1>        0.000
     20 H          -0.5958   -2.4993   -5.5824 H.spc      1 <1>        0.000
@<TRIPOS>BOND
     1    6    7 2  
     2   10   11 am 
     3    9   10 1  
     4    8    9 2  
     5    5    6 am 
     6    4    5 1  
     7    1    2 1  
     8    1    8 1  
     9    2    3 1  
    10    3    4 2  
    11   11   12 2  
    12    3   13 1  
    13    4   14 1  
    14    5   15 1  
    15    6   16 1  
    16    8   17 1  
    17    9   18 1  
    18   10   19 1  
    19   11   20 1  
# Name:          frag3-195-6/31924
# Creation time: Sat Jun  5 12:52:13 2010


@<TRIPOS>MOLECULE
frag3-195-6/31924
   20    19     1     1     1
SMALL
USER_CHARGES


@<TRIPOS>ATOM
      1 S1          2.8818   -4.4758   -6.1996 S.3        1 <1>        0.000
      2 S2          4.8663   -4.3280   -6.5983 S.3        1 <1>        0.000
      3 C1          4.8900   -2.7787   -7.5017 C.2        1 <1>        0.000
      4 C2          5.2343   -1.6602   -6.8468 C.2        1 <1>        0.000
      5 N1          5.3474   -0.4070   -7.3610 N.am       1 <1>        0.000
      6 C9          5.5554    0.7581   -6.7036 C.2        1 <1>        0.000
      7 O1          5.7083    0.8748   -5.4996 O.2        1 <1>        0.000
      8 C20         2.5777   -2.8631   -5.4772 C.2        1 <1>        0.000
      9 C21         1.4978   -2.1788   -5.8808 C.2        1 <1>        0.000
     10 N5          1.0821   -0.9660   -5.4347 N.am       1 <1>        0.000
     11 C28         0.0583   -0.2005   -5.8848 C.2        1 <1>        0.000
     12 O4         -0.6849   -0.4847   -6.8088 O.2        1 <1>        0.000
     13 H           4.6303   -2.7470   -8.5598 H.spc      1 <1>        0.000
     14 H           5.4473   -1.7681   -5.7833 H.spc      1 <1>        0.000
     15 H           5.2647   -0.3350   -8.3751 H.spc      1 <1>        0.000
     16 H           5.5890    1.6690   -7.3013 H.spc      1 <1>        0.000
     17 H           3.2537   -2.4496   -4.7288 H.spc      1 <1>        0.000
     18 H           0.8865   -2.6478   -6.6518 H.spc      1 <1>        0.000
     19 H           1.6125   -0.5780   -4.6546 H.spc      1 <1>        0.000
     20 H          -0.1153    0.7489   -5.3783 H.spc      1 <1>        0.000
@<TRIPOS>BOND
     1    6    7 2  
     2   10   11 am 
     3    9   10 1  
     4    8    9 2  
     5    5    6 am 
     6    4    5 1  
     7    1    2 1  
     8    1    8 1  
     9    2    3 1  
    10    3    4 2  
    11   11   12 2  
    12    3   13 1  
    13    4   14 1  
    14    5   15 1  
    15    6   16 1  
    16    8   17 1  
    17    9   18 1  
    18   10   19 1  
    19   11   20 1  
# Name:          frag3-195-6/31924
# Creation time: Sat Jun  5 12:52:13 2010


@<TRIPOS>MOLECULE
frag3-195-6/31924
   20    19     1     1     1
SMALL
USER_CHARGES


@<TRIPOS>ATOM
      1 S1          3.5357   -3.6206   -5.1218 S.3        1 <1>        0.000
      2 S2          4.3215   -4.2137   -6.8920 S.3        1 <1>        0.000
      3 C1          5.6591   -3.0505   -7.0594 C.2        1 <1>        0.000
      4 C2          5.4145   -1.7410   -6.8956 C.2        1 <1>        0.000
      5 N1          6.2968   -0.7140   -6.9411 N.am       1 <1>        0.000
      6 C9          6.0674    0.6075   -6.7631 C.2        1 <1>        0.000
      7 O1          4.9886    1.1119   -6.4949 O.2        1 <1>        0.000
      8 C20         2.0065   -2.8865   -5.6597 C.2        1 <1>        0.000
      9 C21         1.7996   -1.5786   -5.4574 C.2        1 <1>        0.000
     10 N5          0.7264   -0.8427   -5.8210 N.am       1 <1>        0.000
     11 C28        -0.4320   -1.2498   -6.3942 C.2        1 <1>        0.000
     12 O4         -1.3697   -0.5320   -6.6965 O.2        1 <1>        0.000
     13 H           6.6656   -3.3981   -7.2924 H.spc      1 <1>        0.000
     14 H           4.3766   -1.4701   -6.7018 H.spc      1 <1>        0.000
     15 H           7.2643   -0.9717   -7.1358 H.spc      1 <1>        0.000
     16 H           6.9191    1.2795   -6.8682 H.spc      1 <1>        0.000
     17 H           1.2459   -3.4950   -6.1489 H.spc      1 <1>        0.000
     18 H           2.5932   -1.0431   -4.9363 H.spc      1 <1>        0.000
     19 H           0.7981    0.1583   -5.6387 H.spc      1 <1>        0.000
     20 H          -0.5345   -2.3145   -6.6037 H.spc      1 <1>        0.000
@<TRIPOS>BOND
     1    6    7 2  
     2   10   11 am 
     3    9   10 1  
     4    8    9 2  
     5    5    6 am 
     6    4    5 1  
     7    1    2 1  
     8    1    8 1  
     9    2    3 1  
    10    3    4 2  
    11   11   12 2  
    12    3   13 1  
    13    4   14 1  
    14    5   15 1  
    15    6   16 1  
    16    8   17 1  
    17    9   18 1  
    18   10   19 1  
    19   11   20 1  
# Name:          frag3-195-6/31924
# Creation time: Sat Jun  5 12:52:13 2010


@<TRIPOS>MOLECULE
frag3-195-6/31924
   20    19     1     1     1
SMALL
USER_CHARGES


@<TRIPOS>ATOM
      1 S1          4.8074   -3.8587   -6.4089 S.3        1 <1>        0.000
      2 S2          3.1134   -3.6890   -7.5085 S.3        1 <1>        0.000
      3 C1          2.3115   -2.3383   -6.6514 C.2        1 <1>        0.000
      4 C2          0.9774   -2.3517   -6.5256 C.2        1 <1>        0.000
      5 N1          0.1967   -1.4472   -5.8827 N.am       1 <1>        0.000
      6 C9         -1.1449   -1.4625   -5.7044 C.2        1 <1>        0.000
      7 O1         -1.8118   -0.5499   -5.2471 O.2        1 <1>        0.000
      8 C20         5.5208   -2.2375   -6.6578 C.2        1 <1>        0.000
      9 C21         5.6160   -1.4085   -5.6088 C.2        1 <1>        0.000
     10 N5          6.1486   -0.1617   -5.5891 N.am       1 <1>        0.000
     11 C28         6.6229    0.5750   -6.6229 C.2        1 <1>        0.000
     12 O4          6.6563    0.2201   -7.7896 O.2        1 <1>        0.000
     13 H           2.8986   -1.5180   -6.2384 H.spc      1 <1>        0.000
     14 H           0.4584   -3.1875   -6.9949 H.spc      1 <1>        0.000
     15 H           0.6866   -0.6485   -5.4797 H.spc      1 <1>        0.000
     16 H          -1.6752   -2.3694   -5.9948 H.spc      1 <1>        0.000
     17 H           5.8712   -1.9298   -7.6430 H.spc      1 <1>        0.000
     18 H           5.2199   -1.7791   -4.6633 H.spc      1 <1>        0.000
     19 H           6.1991    0.2818   -4.6719 H.spc      1 <1>        0.000
     20 H           7.0070    1.5687   -6.3925 H.spc      1 <1>        0.000
@<TRIPOS>BOND
     1    6    7 2  
     2   10   11 am 
     3    9   10 1  
     4    8    9 2  
     5    5    6 am 
     6    4    5 1  
     7    1    2 1  
     8    1    8 1  
     9    2    3 1  
    10    3    4 2  
    11   11   12 2  
    12    3   13 1  
    13    4   14 1  
    14    5   15 1  
    15    6   16 1  
    16    8   17 1  
    17    9   18 1  
    18   10   19 1  
    19   11   20 1  
# Name:          frag3-195-6/31924
# Creation time: Sat Jun  5 12:52:13 2010


@<TRIPOS>MOLECULE
frag3-195-6/31924
   20    19     1     1     1
SMALL
USER_CHARGES


@<TRIPOS>ATOM
      1 S1          3.0186   -2.2973   -4.9147 S.3        1 <1>        0.000
      2 S2          4.5686   -3.2420   -5.8084 S.3        1 <1>        0.000
      3 C1          5.6125   -1.8518   -6.2069 C.2        1 <1>        0.000
      4 C2          6.5111   -1.9677   -7.1936 C.2        1 <1>        0.000
      5 N1          7.3597   -1.0194   -7.6627 N.am       1 <1>        0.000
      6 C9          7.4821    0.2696   -7.2669 C.2        1 <1>        0.000
      7 O1          6.7912    0.8237   -6.4272 O.2        1 <1>        0.000
      8 C20         1.7455   -2.5013   -6.1467 C.2        1 <1>        0.000
      9 C21         0.5417   -1.9557   -5.9351 C.2        1 <1>        0.000
     10 N5         -0.5349   -1.9767   -6.7570 N.am       1 <1>        0.000
     11 C28        -1.8326   -1.7177   -6.4677 C.2        1 <1>        0.000
     12 O4         -2.2489   -1.2736   -5.4100 O.2        1 <1>        0.000
     13 H           5.5202   -0.9174   -5.6532 H.spc      1 <1>        0.000
     14 H           6.5671   -2.9424   -7.6783 H.spc      1 <1>        0.000
     15 H           7.9869   -1.3157   -8.4105 H.spc      1 <1>        0.000
     16 H           8.2649    0.8634   -7.7387 H.spc      1 <1>        0.000
     17 H           1.9449   -3.0626   -7.0595 H.spc      1 <1>        0.000
     18 H           0.4122   -1.4318   -4.9881 H.spc      1 <1>        0.000
     19 H          -0.3416   -2.2214   -7.7282 H.spc      1 <1>        0.000
     20 H          -2.5676   -1.9235   -7.2459 H.spc      1 <1>        0.000
@<TRIPOS>BOND
     1    6    7 2  
     2   10   11 am 
     3    9   10 1  
     4    8    9 2  
     5    5    6 am 
     6    4    5 1  
     7    1    2 1  
     8    1    8 1  
     9    2    3 1  
    10    3    4 2  
    11   11   12 2  
    12    3   13 1  
    13    4   14 1  
    14    5   15 1  
    15    6   16 1  
    16    8   17 1  
    17    9   18 1  
    18   10   19 1  
    19   11   20 1  
# Name:          frag3-195-6/31924
# Creation time: Sat Jun  5 12:52:13 2010


@<TRIPOS>MOLECULE
frag3-195-6/31924
   20    19     1     1     1
SMALL
USER_CHARGES


@<TRIPOS>ATOM
      1 S1          3.9156   -1.6655   -4.3391 S.3        1 <1>        0.000
      2 S2          2.7831   -0.2945   -5.3079 S.3        1 <1>        0.000
      3 C1          1.3104   -1.2505   -5.6174 C.2        1 <1>        0.000
      4 C2          0.6656   -1.1064   -6.7829 C.2        1 <1>        0.000
      5 N1         -0.4379   -1.7669   -7.2124 N.am       1 <1>        0.000
      6 C9         -1.0865   -2.7957   -6.6176 C.2        1 <1>        0.000
      7 O1         -0.7905   -3.2976   -5.5451 O.2        1 <1>        0.000
      8 C20         4.8843   -2.3086   -5.6905 C.2        1 <1>        0.000
      9 C21         5.7851   -1.5080   -6.2790 C.2        1 <1>        0.000
     10 N5          6.6302   -1.8135   -7.2920 N.am       1 <1>        0.000
     11 C28         7.5885   -1.0455   -7.8633 C.2        1 <1>        0.000
     12 O4          7.7666    0.1429   -7.6497 O.2        1 <1>        0.000
     13 H           0.9380   -1.9459   -4.8652 H.spc      1 <1>        0.000
     14 H           1.0786   -0.3678   -7.4699 H.spc      1 <1>        0.000
     15 H          -0.8301   -1.4474   -8.0981 H.spc      1 <1>        0.000
     16 H          -1.9471   -3.2116   -7.1416 H.spc      1 <1>        0.000
     17 H           4.7469   -3.3344   -6.0325 H.spc      1 <1>        0.000
     18 H           5.8440   -0.4892   -5.8959 H.spc      1 <1>        0.000
     19 H           6.5314   -2.7523   -7.6784 H.spc      1 <1>        0.000
     20 H           8.2576   -1.5300   -8.5744 H.spc      1 <1>        0.000
@<TRIPOS>BOND
     1    6    7 2  
     2   10   11 am 
     3    9   10 1  
     4    8    9 2  
     5    5    6 am 
     6    4    5 1  
     7    1    2 1  
     8    1    8 1  
     9    2    3 1  
    10    3    4 2  
    11   11   12 2  
    12    3   13 1  
    13    4   14 1  
    14    5   15 1  
    15    6   16 1  
    16    8   17 1  
    17    9   18 1  
    18   10   19 1  
    19   11   20 1  
# Name:          frag3-195-6/31924
# Creation time: Sat Jun  5 12:52:13 2010


@<TRIPOS>MOLECULE
frag3-195-6/31924
   20    19     1     1     1
SMALL
USER_CHARGES


@<TRIPOS>ATOM
      1 S1          2.6947   -4.2066   -5.1109 S.3        1 <1>        0.000
      2 S2          4.0646   -4.3625   -6.5968 S.3        1 <1>        0.000
      3 C1          5.1524   -3.0113   -6.1686 C.2        1 <1>        0.000
      4 C2          4.9238   -1.7989   -6.6940 C.2        1 <1>        0.000
      5 N1          5.6057   -0.6509   -6.4628 N.am       1 <1>        0.000
      6 C9          5.4141    0.5740   -7.0053 C.2        1 <1>        0.000
      7 O1          6.1434    1.5400   -6.8593 O.2        1 <1>        0.000
      8 C20         1.9432   -2.6396   -5.5223 C.2        1 <1>        0.000
      9 C21         1.2063   -2.5514   -6.6395 C.2        1 <1>        0.000
     10 N5          0.5371   -1.4693   -7.1053 N.am       1 <1>        0.000
     11 C28         0.4250   -0.2381   -6.5504 C.2        1 <1>        0.000
     12 O4          0.9041    0.1047   -5.4816 O.2        1 <1>        0.000
     13 H           5.9902   -3.1703   -5.4897 H.spc      1 <1>        0.000
     14 H           4.0888   -1.7283   -7.3911 H.spc      1 <1>        0.000
     15 H           6.3673   -0.7194   -5.7878 H.spc      1 <1>        0.000
     16 H           4.5296    0.7088   -7.6278 H.spc      1 <1>        0.000
     17 H           2.0808   -1.7714   -4.8777 H.spc      1 <1>        0.000
     18 H           1.1378   -3.4562   -7.2434 H.spc      1 <1>        0.000
     19 H           0.0523   -1.5989   -7.9933 H.spc      1 <1>        0.000
     20 H          -0.1412    0.5096   -7.1058 H.spc      1 <1>        0.000
@<TRIPOS>BOND
     1    6    7 2  
     2   10   11 am 
     3    9   10 1  
     4    8    9 2  
     5    5    6 am 
     6    4    5 1  
     7    1    2 1  
     8    1    8 1  
     9    2    3 1  
    10    3    4 2  
    11   11   12 2  
    12    3   13 1  
    13    4   14 1  
    14    5   15 1  
    15    6   16 1  
    16    8   17 1  
    17    9   18 1  
    18   10   19 1  
    19   11   20 1  
# Name:          frag3-195-6/31924
# Creation time: Sat Jun  5 12:52:13 2010


@<TRIPOS>MOLECULE
frag3-195-6/31924
   20    19     1     1     1
SMALL
USER_CHARGES


@<TRIPOS>ATOM
      1 S1          3.9830   -2.0627   -5.6668 S.3        1 <1>        0.000
      2 S2          2.6724   -2.0659   -7.2077 S.3        1 <1>        0.000
      3 C1          1.1245   -2.0562   -6.3246 C.2        1 <1>        0.000
      4 C2         -0.0225   -2.1538   -7.0093 C.2        1 <1>        0.000
      5 N1         -1.2830   -2.2020   -6.5165 N.am       1 <1>        0.000
      6 C9         -1.6862   -2.1966   -5.2241 C.2        1 <1>        0.000
      7 O1         -2.8365   -2.3002   -4.8355 O.2        1 <1>        0.000
      8 C20         5.4190   -1.3516   -6.4450 C.2        1 <1>        0.000
      9 C21         6.5265   -1.1593   -5.7177 C.2        1 <1>        0.000
     10 N5          7.7150   -0.6661   -6.1345 N.am       1 <1>        0.000
     11 C28         8.1375   -0.4148   -7.3974 C.2        1 <1>        0.000
     12 O4          9.2650   -0.0807   -7.7179 O.2        1 <1>        0.000
     13 H           1.1113   -1.9717   -5.2380 H.spc      1 <1>        0.000
     14 H           0.0698   -2.2000   -8.0944 H.spc      1 <1>        0.000
     15 H          -2.0279   -2.2486   -7.2117 H.spc      1 <1>        0.000
     16 H          -0.9129   -2.0901   -4.4633 H.spc      1 <1>        0.000
     17 H           5.3963   -1.0766   -7.4995 H.spc      1 <1>        0.000
     18 H           6.4628   -1.4327   -4.6645 H.spc      1 <1>        0.000
     19 H           8.3861   -0.4540   -5.3962 H.spc      1 <1>        0.000
     20 H           7.4044   -0.5208   -8.1970 H.spc      1 <1>        0.000
@<TRIPOS>BOND
     1    6    7 2  
     2   10   11 am 
     3    9   10 1  
     4    8    9 2  
     5    5    6 am 
     6    4    5 1  
     7    1    2 1  
     8    1    8 1  
     9    2    3 1  
    10    3    4 2  
    11   11   12 2  
    12    3   13 1  
    13    4   14 1  
    14    5   15 1  
    15    6   16 1  
    16    8   17 1  
    17    9   18 1  
    18   10   19 1  
    19   11   20 1  
# Name:          frag3-195-6/31924
# Creation time: Sat Jun  5 12:52:13 2010


@<TRIPOS>MOLECULE
frag3-195-6/31924
   20    19     1     1     1
SMALL
USER_CHARGES


@<TRIPOS>ATOM
      1 S1          3.8068   -2.6478   -5.5675 S.3        1 <1>        0.000
      2 S2          3.0185   -2.4630   -7.4275 S.3        1 <1>        0.000
      3 C1          1.5952   -1.4385   -7.0663 C.2        1 <1>        0.000
      4 C2          0.5511   -1.9875   -6.4282 C.2        1 <1>        0.000
      5 N1         -0.5937   -1.3718   -6.0346 N.am       1 <1>        0.000
      6 C9         -1.7100   -1.9248   -5.5052 C.2        1 <1>        0.000
      7 O1         -1.8569   -3.1049   -5.2343 O.2        1 <1>        0.000
      8 C20         4.8521   -1.1958   -5.5131 C.2        1 <1>        0.000
      9 C21         5.9720   -1.1858   -6.2499 C.2        1 <1>        0.000
     10 N5          6.8710   -0.1769   -6.3670 N.am       1 <1>        0.000
     11 C28         8.0261   -0.1449   -7.0748 C.2        1 <1>        0.000
     12 O4          8.4823   -1.0684   -7.7282 O.2        1 <1>        0.000
     13 H           1.5776   -0.3888   -7.3594 H.spc      1 <1>        0.000
     14 H           0.6304   -3.0502   -6.1991 H.spc      1 <1>        0.000
     15 H          -0.6151   -0.3590   -6.1536 H.spc      1 <1>        0.000
     16 H          -2.5490   -1.2588   -5.3039 H.spc      1 <1>        0.000
     17 H           4.5841   -0.3390   -4.8948 H.spc      1 <1>        0.000
     18 H           6.1841   -2.0908   -6.8193 H.spc      1 <1>        0.000
     19 H           6.6469    0.6743   -5.8517 H.spc      1 <1>        0.000
     20 H           8.5956    0.7844   -7.0589 H.spc      1 <1>        0.000
@<TRIPOS>BOND
     1    6    7 2  
     2   10   11 am 
     3    9   10 1  
     4    8    9 2  
     5    5    6 am 
     6    4    5 1  
     7    1    2 1  
     8    1    8 1  
     9    2    3 1  
    10    3    4 2  
    11   11   12 2  
    12    3   13 1  
    13    4   14 1  
    14    5   15 1  
    15    6   16 1  
    16    8   17 1  
    17    9   18 1  
    18   10   19 1  
    19   11   20 1  
# Name:          frag3-195-6/31924
# Creation time: Sat Jun  5 12:52:13 2010


@<TRIPOS>MOLECULE
frag3-195-6/31924
   20    19     1     1     1
SMALL
USER_CHARGES


@<TRIPOS>ATOM
      1 S1          2.7771   -0.8913   -6.5823 S.3        1 <1>        0.000
      2 S2          3.7205   -1.9753   -5.1511 S.3        1 <1>        0.000
      3 C1          5.3078   -2.2253   -5.9380 C.2        1 <1>        0.000
      4 C2          6.0451   -1.1517   -6.2592 C.2        1 <1>        0.000
      5 N1          7.2796   -1.1344   -6.8225 N.am       1 <1>        0.000
      6 C9          8.0297   -0.0671   -7.1835 C.2        1 <1>        0.000
      7 O1          9.1596   -0.1141   -7.6394 O.2        1 <1>        0.000
      8 C20         1.4503   -2.0093   -7.0164 C.2        1 <1>        0.000
      9 C21         0.2969   -1.9292   -6.3381 C.2        1 <1>        0.000
     10 N5         -0.8272   -2.6618   -6.5348 N.am       1 <1>        0.000
     11 C28        -1.9956   -2.6278   -5.8495 C.2        1 <1>        0.000
     12 O4         -2.2292   -1.9226   -4.8819 O.2        1 <1>        0.000
     13 H           5.6689   -3.2311   -6.1524 H.spc      1 <1>        0.000
     14 H           5.6010   -0.1802   -6.0425 H.spc      1 <1>        0.000
     15 H           7.6983   -2.0480   -6.9972 H.spc      1 <1>        0.000
     16 H           7.5852    0.9199   -7.0556 H.spc      1 <1>        0.000
     17 H           1.5768   -2.7400   -7.8153 H.spc      1 <1>        0.000
     18 H           0.2581   -1.1910   -5.5371 H.spc      1 <1>        0.000
     19 H          -0.7877   -3.3302   -7.3043 H.spc      1 <1>        0.000
     20 H          -2.7941   -3.2861   -6.1917 H.spc      1 <1>        0.000
@<TRIPOS>BOND
     1    6    7 2  
     2   10   11 am 
     3    9   10 1  
     4    8    9 2  
     5    5    6 am 
     6    4    5 1  
     7    1    2 1  
     8    1    8 1  
     9    2    3 1  
    10    3    4 2  
    11   11   12 2  
    12    3   13 1  
    13    4   14 1  
    14    5   15 1  
    15    6   16 1  
    16    8   17 1  
    17    9   18 1  
    18   10   19 1  
    19   11   20 1  
# Name:          frag3-195-6/31924
# Creation time: Sat Jun  5 12:52:13 2010


@<TRIPOS>MOLECULE
frag3-195-6/31924
   20    19     1     1     1
SMALL
USER_CHARGES


@<TRIPOS>ATOM
      1 S1          2.8223   -1.3605   -5.7793 S.3        1 <1>        0.000
      2 S2          4.3751   -2.6088   -5.4049 S.3        1 <1>        0.000
      3 C1          5.4105   -2.2626   -6.8224 C.2        1 <1>        0.000
      4 C2          6.3855   -1.3498   -6.7023 C.2        1 <1>        0.000
      5 N1          7.2908   -0.9775   -7.6434 N.am       1 <1>        0.000
      6 C9          8.2622   -0.0390   -7.5554 C.2        1 <1>        0.000
      7 O1          8.5111    0.6339   -6.5690 O.2        1 <1>        0.000
      8 C20         1.4520   -2.5068   -5.6923 C.2        1 <1>        0.000
      9 C21         0.2104   -2.0392   -5.8784 C.2        1 <1>        0.000
     10 N5         -0.9456   -2.7485   -5.8807 N.am       1 <1>        0.000
     11 C28        -2.2174   -2.3016   -6.0172 C.2        1 <1>        0.000
     12 O4         -2.5423   -1.1494   -6.2515 O.2        1 <1>        0.000
     13 H           5.2517   -2.7841   -7.7663 H.spc      1 <1>        0.000
     14 H           6.4599   -0.8485   -5.7373 H.spc      1 <1>        0.000
     15 H           7.2309   -1.4702   -8.5345 H.spc      1 <1>        0.000
     16 H           8.8741    0.1298   -8.4415 H.spc      1 <1>        0.000
     17 H           1.6236   -3.5644   -5.4919 H.spc      1 <1>        0.000
     18 H           0.1188   -0.9663   -6.0472 H.spc      1 <1>        0.000
     19 H          -0.8436   -3.7566   -5.7636 H.spc      1 <1>        0.000
     20 H          -3.0178   -3.0335   -5.9085 H.spc      1 <1>        0.000
@<TRIPOS>BOND
     1    6    7 2  
     2   10   11 am 
     3    9   10 1  
     4    8    9 2  
     5    5    6 am 
     6    4    5 1  
     7    1    2 1  
     8    1    8 1  
     9    2    3 1  
    10    3    4 2  
    11   11   12 2  
    12    3   13 1  
    13    4   14 1  
    14    5   15 1  
    15    6   16 1  
    16    8   17 1  
    17    9   18 1  
    18   10   19 1  
    19   11   20 1  
# Name:          frag3-195-6/31924
# Creation time: Sat Jun  5 12:52:13 2010


@<TRIPOS>MOLECULE
frag3-195-6/31924
   20    19     1     1     1
SMALL
USER_CHARGES


@<TRIPOS>ATOM
      1 S1          3.2858   -3.3441   -7.2126 S.3        1 <1>        0.000
      2 S2          4.7047   -4.0079   -5.9259 S.3        1 <1>        0.000
      3 C1          5.3663   -2.4492   -5.3515 C.2        1 <1>        0.000
      4 C2          5.7293   -1.5278   -6.2566 C.2        1 <1>        0.000
      5 N1          6.2122   -0.2812   -6.0225 N.am       1 <1>        0.000
      6 C9          6.5444    0.6776   -6.9181 C.2        1 <1>        0.000
      7 O1          6.3657    0.6156   -8.1233 O.2        1 <1>        0.000
      8 C20         1.8869   -3.1948   -6.1103 C.2        1 <1>        0.000
      9 C21         0.9665   -2.2542   -6.3594 C.2        1 <1>        0.000
     10 N5         -0.1704   -2.0063   -5.6637 N.am       1 <1>        0.000
     11 C28        -1.0005   -0.9384   -5.7422 C.2        1 <1>        0.000
     12 O4         -0.8763    0.0009   -6.5108 O.2        1 <1>        0.000
     13 H           5.4728   -2.2511   -4.2850 H.spc      1 <1>        0.000
     14 H           5.6240   -1.8141   -7.3031 H.spc      1 <1>        0.000
     15 H           6.3420   -0.0341   -5.0414 H.spc      1 <1>        0.000
     16 H           7.0115    1.5825   -6.5294 H.spc      1 <1>        0.000
     17 H           1.7846   -3.8573   -5.2508 H.spc      1 <1>        0.000
     18 H           1.1532   -1.6138   -7.2214 H.spc      1 <1>        0.000
     19 H          -0.4376   -2.7223   -4.9882 H.spc      1 <1>        0.000
     20 H          -1.8512   -0.9166   -5.0611 H.spc      1 <1>        0.000
@<TRIPOS>BOND
     1    6    7 2  
     2   10   11 am 
     3    9   10 1  
     4    8    9 2  
     5    5    6 am 
     6    4    5 1  
     7    1    2 1  
     8    1    8 1  
     9    2    3 1  
    10    3    4 2  
    11   11   12 2  
    12    3   13 1  
    13    4   14 1  
    14    5   15 1  
    15    6   16 1  
    16    8   17 1  
    17    9   18 1  
    18   10   19 1  
    19   11   20 1  
# Name:          frag3-195-6/31924
# Creation time: Sat Jun  5 12:52:13 2010


@<TRIPOS>MOLECULE
frag3-195-6/31924
   20    19     1     1     1
SMALL
USER_CHARGES


@<TRIPOS>ATOM
      1 S1          4.7479   -4.3951   -6.7293 S.3        1 <1>        0.000
      2 S2          2.7592   -4.7312   -6.5170 S.3        1 <1>        0.000
      3 C1          2.3221   -3.3708   -5.4379 C.2        1 <1>        0.000
      4 C2          1.8970   -2.2230   -5.9856 C.2        1 <1>        0.000
      5 N1          1.4881   -1.1004   -5.3398 N.am       1 <1>        0.000
      6 C9          1.1749    0.1077   -5.8636 C.2        1 <1>        0.000
      7 O1          1.1558    0.3821   -7.0520 O.2        1 <1>        0.000
      8 C20         4.7228   -2.8005   -7.5419 C.2        1 <1>        0.000
      9 C21         4.7301   -1.6947   -6.7842 C.2        1 <1>        0.000
     10 N5          4.7437   -0.4064   -7.2079 N.am       1 <1>        0.000
     11 C28         4.7200    0.7312   -6.4723 C.2        1 <1>        0.000
     12 O4          4.5528    0.7912   -5.2654 O.2        1 <1>        0.000
     13 H           2.4001   -3.4738   -4.3556 H.spc      1 <1>        0.000
     14 H           1.8774   -2.1868   -7.0748 H.spc      1 <1>        0.000
     15 H           1.4062   -1.1780   -4.3261 H.spc      1 <1>        0.000
     16 H           0.9179    0.9031   -5.1640 H.spc      1 <1>        0.000
     17 H           4.7020   -2.7301   -8.6294 H.spc      1 <1>        0.000
     18 H           4.7245   -1.8484   -5.7051 H.spc      1 <1>        0.000
     19 H           4.7762   -0.2760   -8.2190 H.spc      1 <1>        0.000
     20 H           4.8623    1.6722   -7.0038 H.spc      1 <1>        0.000
@<TRIPOS>BOND
     1    6    7 2  
     2   10   11 am 
     3    9   10 1  
     4    8    9 2  
     5    5    6 am 
     6    4    5 1  
     7    1    2 1  
     8    1    8 1  
     9    2    3 1  
    10    3    4 2  
    11   11   12 2  
    12    3   13 1  
    13    4   14 1  
    14    5   15 1  
    15    6   16 1  
    16    8   17 1  
    17    9   18 1  
    18   10   19 1  
    19   11   20 1  
# Name:          frag3-195-6/31924
# Creation time: Sat Jun  5 12:52:13 2010


@<TRIPOS>MOLECULE
frag3-195-6/31924
   20    19     1     1     1
SMALL
USER_CHARGES


@<TRIPOS>ATOM
      1 S1          3.1274   -4.4610   -5.9575 S.3        1 <1>        0.000
      2 S2          4.4518   -4.1114   -7.4511 S.3        1 <1>        0.000
      3 C1          5.5362   -2.9405   -6.6455 C.2        1 <1>        0.000
      4 C2          5.2755   -1.6299   -6.7569 C.2        1 <1>        0.000
      5 N1          5.9517   -0.5982   -6.1914 N.am       1 <1>        0.000
      6 C9          5.6608    0.7232   -6.2272 C.2        1 <1>        0.000
      7 O1          4.6894    1.2214   -6.7718 O.2        1 <1>        0.000
      8 C20         2.3430   -2.8601   -5.8333 C.2        1 <1>        0.000
      9 C21         1.0745   -2.7301   -6.2451 C.2        1 <1>        0.000
     10 N5          0.3048   -1.6165   -6.2064 N.am       1 <1>        0.000
     11 C28         0.6733   -0.3351   -5.9639 C.2        1 <1>        0.000
     12 O4         -0.0739    0.6282   -5.9469 O.2        1 <1>        0.000
     13 H           6.3963   -3.2867   -6.0724 H.spc      1 <1>        0.000
     14 H           4.4188   -1.3614   -7.3750 H.spc      1 <1>        0.000
     15 H           6.7908   -0.8523   -5.6700 H.spc      1 <1>        0.000
     16 H           6.3535    1.3999   -5.7268 H.spc      1 <1>        0.000
     17 H           2.8862   -2.0054   -5.4301 H.spc      1 <1>        0.000
     18 H           0.6082   -3.6241   -6.6591 H.spc      1 <1>        0.000
     19 H          -0.6889   -1.7623   -6.3842 H.spc      1 <1>        0.000
     20 H           1.7292   -0.1496   -5.7670 H.spc      1 <1>        0.000
@<TRIPOS>BOND
     1    6    7 2  
     2   10   11 am 
     3    9   10 1  
     4    8    9 2  
     5    5    6 am 
     6    4    5 1  
     7    1    2 1  
     8    1    8 1  
     9    2    3 1  
    10    3    4 2  
    11   11   12 2  
    12    3   13 1  
    13    4   14 1  
    14    5   15 1  
    15    6   16 1  
    16    8   17 1  
    17    9   18 1  
    18   10   19 1  
    19   11   20 1  
# Name:          frag3-195-6/31924
# Creation time: Sat Jun  5 12:52:13 2010


@<TRIPOS>MOLECULE
frag3-195-6/31924
   20    19     1     1     1
SMALL
USER_CHARGES


@<TRIPOS>ATOM
      1 S1          4.8748   -4.0430   -6.3071 S.3        1 <1>        0.000
      2 S2          3.1117   -4.4143   -7.2332 S.3        1 <1>        0.000
      3 C1          1.9917   -3.5445   -6.1445 C.2        1 <1>        0.000
      4 C2          1.5628   -2.3230   -6.4935 C.2        1 <1>        0.000
      5 N1          0.6924   -1.5267   -5.8255 N.am       1 <1>        0.000
      6 C9          0.2118   -0.3119   -6.1792 C.2        1 <1>        0.000
      7 O1         -0.5538    0.3704   -5.5199 O.2        1 <1>        0.000
      8 C20         4.9231   -2.2588   -6.3947 C.2        1 <1>        0.000
      9 C21         6.1080   -1.6508   -6.5377 C.2        1 <1>        0.000
     10 N5          6.3463   -0.3216   -6.6548 N.am       1 <1>        0.000
     11 C28         5.4679    0.7075   -6.5783 C.2        1 <1>        0.000
     12 O4          4.2777    0.6070   -6.3286 O.2        1 <1>        0.000
     13 H           1.6624   -4.0004   -5.2108 H.spc      1 <1>        0.000
     14 H           1.9615   -1.9224   -7.4255 H.spc      1 <1>        0.000
     15 H           0.3538   -1.8927   -4.9357 H.spc      1 <1>        0.000
     16 H           0.5379    0.0919   -7.1377 H.spc      1 <1>        0.000
     17 H           4.0044   -1.6755   -6.3328 H.spc      1 <1>        0.000
     18 H           6.9827   -2.3007   -6.5628 H.spc      1 <1>        0.000
     19 H           7.3179   -0.0607   -6.8232 H.spc      1 <1>        0.000
     20 H           5.8576    1.7100   -6.7548 H.spc      1 <1>        0.000
@<TRIPOS>BOND
     1    6    7 2  
     2   10   11 am 
     3    9   10 1  
     4    8    9 2  
     5    5    6 am 
     6    4    5 1  
     7    1    2 1  
     8    1    8 1  
     9    2    3 1  
    10    3    4 2  
    11   11   12 2  
    12    3   13 1  
    13    4   14 1  
    14    5   15 1  
    15    6   16 1  
    16    8   17 1  
    17    9   18 1  
    18   10   19 1  
    19   11   20 1  
# Name:          frag3-195-6/31924
# Creation time: Sat Jun  5 12:52:13 2010


@<TRIPOS>MOLECULE
frag3-195-6/31924
   20    19     1     1     1
SMALL
USER_CHARGES


@<TRIPOS>ATOM
      1 S1          3.0207   -3.8896   -6.8915 S.3        1 <1>        0.000
      2 S2          4.0942   -3.9315   -5.1728 S.3        1 <1>        0.000
      3 C1          4.6941   -2.2488   -5.1325 C.2        1 <1>        0.000
      4 C2          5.2895   -1.7460   -6.2249 C.2        1 <1>        0.000
      5 N1          5.7725   -0.4927   -6.4050 N.am       1 <1>        0.000
      6 C9          6.5263   -0.0117   -7.4208 C.2        1 <1>        0.000
      7 O1          7.0039    1.1082   -7.4852 O.2        1 <1>        0.000
      8 C20         1.6787   -2.8123   -6.4136 C.2        1 <1>        0.000
      9 C21         1.4352   -1.7168   -7.1458 C.2        1 <1>        0.000
     10 N5          0.4530   -0.8013   -6.9629 N.am       1 <1>        0.000
     11 C28        -0.4597   -0.7248   -5.9641 C.2        1 <1>        0.000
     12 O4         -0.4938   -1.4425   -4.9778 O.2        1 <1>        0.000
     13 H           4.5783   -1.6408   -4.2353 H.spc      1 <1>        0.000
     14 H           5.3976   -2.4275   -7.0687 H.spc      1 <1>        0.000
     15 H           5.5356    0.1797   -5.6755 H.spc      1 <1>        0.000
     16 H           6.7239   -0.6849   -8.2550 H.spc      1 <1>        0.000
     17 H           1.0678   -3.0422   -5.5407 H.spc      1 <1>        0.000
     18 H           2.1057   -1.5415   -7.9871 H.spc      1 <1>        0.000
     19 H           0.3925   -0.0713   -7.6727 H.spc      1 <1>        0.000
     20 H          -1.2287    0.0430   -6.0490 H.spc      1 <1>        0.000
@<TRIPOS>BOND
     1    6    7 2  
     2   10   11 am 
     3    9   10 1  
     4    8    9 2  
     5    5    6 am 
     6    4    5 1  
     7    1    2 1  
     8    1    8 1  
     9    2    3 1  
    10    3    4 2  
    11   11   12 2  
    12    3   13 1  
    13    4   14 1  
    14    5   15 1  
    15    6   16 1  
    16    8   17 1  
    17    9   18 1  
    18   10   19 1  
    19   11   20 1  
# Name:          frag3-195-6/31924
# Creation time: Sat Jun  5 12:52:13 2010


@<TRIPOS>MOLECULE
frag3-195-6/31924
   20    19     1     1     1
SMALL
USER_CHARGES


@<TRIPOS>ATOM
      1 S1          4.5385   -3.1883   -5.9460 S.3        1 <1>        0.000
      2 S2          3.0701   -2.8012   -7.2862 S.3        1 <1>        0.000
      3 C1          1.8672   -2.0092   -6.2334 C.2        1 <1>        0.000
      4 C2          0.5654   -2.2604   -6.4239 C.2        1 <1>        0.000
      5 N1         -0.4865   -1.7921   -5.7104 N.am       1 <1>        0.000
      6 C9         -1.8084   -2.0072   -5.9048 C.2        1 <1>        0.000
      7 O1         -2.7102   -1.5922   -5.1972 O.2        1 <1>        0.000
      8 C20         5.7928   -2.0445   -6.4918 C.2        1 <1>        0.000
      9 C21         5.6004   -0.7310   -6.3001 C.2        1 <1>        0.000
     10 N5          6.4396    0.2838   -6.6169 N.am       1 <1>        0.000
     11 C28         7.7284    0.2199   -7.0312 C.2        1 <1>        0.000
     12 O4          8.4172   -0.7873   -7.0550 O.2        1 <1>        0.000
     13 H           2.1878   -1.3289   -5.4444 H.spc      1 <1>        0.000
     14 H           0.3227   -2.9228   -7.2548 H.spc      1 <1>        0.000
     15 H          -0.2497   -1.1954   -4.9178 H.spc      1 <1>        0.000
     16 H          -2.0920   -2.6047   -6.7712 H.spc      1 <1>        0.000
     17 H           6.7011   -2.4068   -6.9734 H.spc      1 <1>        0.000
     18 H           4.6569   -0.4466   -5.8342 H.spc      1 <1>        0.000
     19 H           6.0491    1.2223   -6.5323 H.spc      1 <1>        0.000
     20 H           8.1890    1.1471   -7.3722 H.spc      1 <1>        0.000
@<TRIPOS>BOND
     1    6    7 2  
     2   10   11 am 
     3    9   10 1  
     4    8    9 2  
     5    5    6 am 
     6    4    5 1  
     7    1    2 1  
     8    1    8 1  
     9    2    3 1  
    10    3    4 2  
    11   11   12 2  
    12    3   13 1  
    13    4   14 1  
    14    5   15 1  
    15    6   16 1  
    16    8   17 1  
    17    9   18 1  
    18   10   19 1  
    19   11   20 1  
# Name:          frag3-195-6/31924
# Creation time: Sat Jun  5 12:52:13 2010


@<TRIPOS>MOLECULE
frag3-195-6/31924
   20    19     1     1     1
SMALL
USER_CHARGES


@<TRIPOS>ATOM
      1 S1          2.9184   -1.8027   -6.7978 S.3        1 <1>        0.000
      2 S2          4.1826   -2.7176   -5.5019 S.3        1 <1>        0.000
      3 C1          5.4348   -1.4479   -5.3335 C.2        1 <1>        0.000
      4 C2          6.2732   -1.2311   -6.3576 C.2        1 <1>        0.000
      5 N1          7.2556   -0.2961   -6.4365 N.am       1 <1>        0.000
      6 C9          8.1683   -0.1126   -7.4192 C.2        1 <1>        0.000
      7 O1          8.2953   -0.8138   -8.4089 O.2        1 <1>        0.000
      8 C20         1.5157   -1.5030   -5.7258 C.2        1 <1>        0.000
      9 C21         0.3127   -1.9558   -6.1055 C.2        1 <1>        0.000
     10 N5         -0.8557   -1.8572   -5.4230 N.am       1 <1>        0.000
     11 C28        -2.0978   -2.2429   -5.8036 C.2        1 <1>        0.000
     12 O4         -2.3885   -2.7292   -6.8837 O.2        1 <1>        0.000
     13 H           5.5138   -0.8632   -4.4170 H.spc      1 <1>        0.000
     14 H           6.1526   -1.8791   -7.2257 H.spc      1 <1>        0.000
     15 H           7.3130    0.3532   -5.6519 H.spc      1 <1>        0.000
     16 H           8.8475    0.7338   -7.3173 H.spc      1 <1>        0.000
     17 H           1.6374   -0.9646   -4.7859 H.spc      1 <1>        0.000
     18 H           0.2681   -2.4598   -7.0709 H.spc      1 <1>        0.000
     19 H          -0.7903   -1.4350   -4.4968 H.spc      1 <1>        0.000
     20 H          -2.9050   -2.1071   -5.0839 H.spc      1 <1>        0.000
@<TRIPOS>BOND
     1    6    7 2  
     2   10   11 am 
     3    9   10 1  
     4    8    9 2  
     5    5    6 am 
     6    4    5 1  
     7    1    2 1  
     8    1    8 1  
     9    2    3 1  
    10    3    4 2  
    11   11   12 2  
    12    3   13 1  
    13    4   14 1  
    14    5   15 1  
    15    6   16 1  
    16    8   17 1  
    17    9   18 1  
    18   10   19 1  
    19   11   20 1  
# Name:          frag3-195-6/31924
# Creation time: Sat Jun  5 12:52:13 2010


@<TRIPOS>MOLECULE
frag3-195-6/31924
   20    19     1     1     1
SMALL
USER_CHARGES


@<TRIPOS>ATOM
      1 S1          4.2700   -3.7935   -5.6070 S.3        1 <1>        0.000
      2 S2          3.0432   -3.6121   -7.2088 S.3        1 <1>        0.000
      3 C1          1.7302   -2.6314   -6.4974 C.2        1 <1>        0.000
      4 C2          0.8255   -2.0651   -7.3071 C.2        1 <1>        0.000
      5 N1         -0.2551   -1.3235   -6.9563 N.am       1 <1>        0.000
      6 C9         -0.6327   -0.9190   -5.7208 C.2        1 <1>        0.000
      7 O1         -0.0939   -1.2380   -4.6734 O.2        1 <1>        0.000
      8 C20         4.6566   -2.0773   -5.2969 C.2        1 <1>        0.000
      9 C21         5.4682   -1.4351   -6.1490 C.2        1 <1>        0.000
     10 N5          5.8524   -0.1365   -6.1061 N.am       1 <1>        0.000
     11 C28         6.7462    0.5135   -6.8896 C.2        1 <1>        0.000
     12 O4          7.4040    0.0082   -7.7845 O.2        1 <1>        0.000
     13 H           1.6660   -2.4955   -5.4178 H.spc      1 <1>        0.000
     14 H           0.9756   -2.2185   -8.3758 H.spc      1 <1>        0.000
     15 H          -0.8618   -1.0330   -7.7231 H.spc      1 <1>        0.000
     16 H          -1.4917   -0.2511   -5.6560 H.spc      1 <1>        0.000
     17 H           4.2405   -1.5620   -4.4312 H.spc      1 <1>        0.000
     18 H           5.8658   -2.0273   -6.9733 H.spc      1 <1>        0.000
     19 H           5.4071    0.4300   -5.3841 H.spc      1 <1>        0.000
     20 H           6.8899    1.5781   -6.7049 H.spc      1 <1>        0.000
@<TRIPOS>BOND
     1    6    7 2  
     2   10   11 am 
     3    9   10 1  
     4    8    9 2  
     5    5    6 am 
     6    4    5 1  
     7    1    2 1  
     8    1    8 1  
     9    2    3 1  
    10    3    4 2  
    11   11   12 2  
    12    3   13 1  
    13    4   14 1  
    14    5   15 1  
    15    6   16 1  
    16    8   17 1  
    17    9   18 1  
    18   10   19 1  
    19   11   20 1  
# Name:          frag3-195-6/31924
# Creation time: Sat Jun  5 12:52:13 2010


@<TRIPOS>MOLECULE
frag3-195-6/31924
   20    19     1     1     1
SMALL
USER_CHARGES


@<TRIPOS>ATOM
      1 S1          2.8791   -2.2751   -7.0450 S.3        1 <1>        0.000
      2 S2          4.3805   -3.0676   -5.9359 S.3        1 <1>        0.000
      3 C1          5.3019   -1.5838   -5.5434 C.2        1 <1>        0.000
      4 C2          6.2958   -1.2068   -6.3610 C.2        1 <1>        0.000
      5 N1          7.0780   -0.1015   -6.2560 N.am       1 <1>        0.000
      6 C9          8.0570    0.3215   -7.0897 C.2        1 <1>        0.000
      7 O1          8.4112   -0.2426   -8.1114 O.2        1 <1>        0.000
      8 C20         1.4553   -2.9469   -6.1939 C.2        1 <1>        0.000
      9 C21         0.3054   -2.2599   -6.2273 C.2        1 <1>        0.000
     10 N5         -0.8817   -2.6145   -5.6748 N.am       1 <1>        0.000
     11 C28        -2.0472   -1.9240   -5.6479 C.2        1 <1>        0.000
     12 O4         -2.2208   -0.8088   -6.1106 O.2        1 <1>        0.000
     13 H           5.0597   -0.9979   -4.6567 H.spc      1 <1>        0.000
     14 H           6.4993   -1.8630   -7.2072 H.spc      1 <1>        0.000
     15 H           6.9049    0.4876   -5.4415 H.spc      1 <1>        0.000
     16 H           8.5726    1.2448   -6.8254 H.spc      1 <1>        0.000
     17 H           1.5221   -3.8947   -5.6598 H.spc      1 <1>        0.000
     18 H           0.3262   -1.3084   -6.7586 H.spc      1 <1>        0.000
     19 H          -0.8993   -3.5258   -5.2169 H.spc      1 <1>        0.000
     20 H          -2.9018   -2.4057   -5.1727 H.spc      1 <1>        0.000
@<TRIPOS>BOND
     1    6    7 2  
     2   10   11 am 
     3    9   10 1  
     4    8    9 2  
     5    5    6 am 
     6    4    5 1  
     7    1    2 1  
     8    1    8 1  
     9    2    3 1  
    10    3    4 2  
    11   11   12 2  
    12    3   13 1  
    13    4   14 1  
    14    5   15 1  
    15    6   16 1  
    16    8   17 1  
    17    9   18 1  
    18   10   19 1  
    19   11   20 1  
# Name:          frag3-195-6/31924
# Creation time: Sat Jun  5 12:52:13 2010


@<TRIPOS>MOLECULE
frag3-195-6/31924
   20    19     1     1     1
SMALL
USER_CHARGES


@<TRIPOS>ATOM
      1 S1          4.7084   -4.3121   -5.9561 S.3        1 <1>        0.000
      2 S2          2.9341   -3.9797   -6.8800 S.3        1 <1>        0.000
      3 C1          2.2024   -2.8009   -5.7483 C.2        1 <1>        0.000
      4 C2          1.0247   -2.2455   -6.0661 C.2        1 <1>        0.000
      5 N1          0.2984   -1.3674   -5.3271 N.am       1 <1>        0.000
      6 C9         -0.6653   -0.5115   -5.7407 C.2        1 <1>        0.000
      7 O1         -0.9973   -0.3235   -6.8991 O.2        1 <1>        0.000
      8 C20         5.7075   -3.0270   -6.7002 C.2        1 <1>        0.000
      9 C21         5.4685   -1.7523   -6.3606 C.2        1 <1>        0.000
     10 N5          6.1300   -0.6488   -6.7883 N.am       1 <1>        0.000
     11 C28         5.8145    0.6566   -6.6086 C.2        1 <1>        0.000
     12 O4          6.3885    1.6023   -7.1217 O.2        1 <1>        0.000
     13 H           2.7057   -2.5396   -4.8175 H.spc      1 <1>        0.000
     14 H           0.6009   -2.5316   -7.0287 H.spc      1 <1>        0.000
     15 H           0.5066   -1.3507   -4.3287 H.spc      1 <1>        0.000
     16 H          -1.1892    0.0582   -4.9731 H.spc      1 <1>        0.000
     17 H           6.4931   -3.2753   -7.4139 H.spc      1 <1>        0.000
     18 H           4.6495   -1.5840   -5.6613 H.spc      1 <1>        0.000
     19 H           6.9831   -0.8258   -7.3187 H.spc      1 <1>        0.000
     20 H           4.9760    0.8806   -5.9491 H.spc      1 <1>        0.000
@<TRIPOS>BOND
     1    6    7 2  
     2   10   11 am 
     3    9   10 1  
     4    8    9 2  
     5    5    6 am 
     6    4    5 1  
     7    1    2 1  
     8    1    8 1  
     9    2    3 1  
    10    3    4 2  
    11   11   12 2  
    12    3   13 1  
    13    4   14 1  
    14    5   15 1  
    15    6   16 1  
    16    8   17 1  
    17    9   18 1  
    18   10   19 1  
    19   11   20 1  
# Name:          frag3-195-6/31924
# Creation time: Sat Jun  5 12:52:13 2010


@<TRIPOS>MOLECULE
frag3-195-6/31924
   20    19     1     1     1
SMALL
USER_CHARGES


@<TRIPOS>ATOM
      1 S1          4.0976   -2.9071   -6.0570 S.3        1 <1>        0.000
      2 S2          2.9337   -2.8351   -7.7103 S.3        1 <1>        0.000
      3 C1          1.4673   -2.0767   -7.0433 C.2        1 <1>        0.000
      4 C2          0.4864   -2.8570   -6.5651 C.2        1 <1>        0.000
      5 N1         -0.6745   -2.4730   -5.9860 N.am       1 <1>        0.000
      6 C9         -1.0110   -1.2596   -5.4885 C.2        1 <1>        0.000
      7 O1         -2.0553   -0.9835   -4.9239 O.2        1 <1>        0.000
      8 C20         5.3412   -1.7013   -6.4662 C.2        1 <1>        0.000
      9 C21         6.3116   -1.4349   -5.5837 C.2        1 <1>        0.000
     10 N5          7.3538   -0.5824   -5.7247 N.am       1 <1>        0.000
     11 C28         7.6852    0.1800   -6.7949 C.2        1 <1>        0.000
     12 O4          7.0785    0.2207   -7.8535 O.2        1 <1>        0.000
     13 H           1.3678   -0.9914   -7.0238 H.spc      1 <1>        0.000
     14 H           0.6440   -3.9319   -6.6540 H.spc      1 <1>        0.000
     15 H          -1.3923   -3.1942   -5.9147 H.spc      1 <1>        0.000
     16 H          -0.2822   -0.4572   -5.6033 H.spc      1 <1>        0.000
     17 H           5.3128   -1.1850   -7.4258 H.spc      1 <1>        0.000
     18 H           6.2560   -1.9697   -4.6356 H.spc      1 <1>        0.000
     19 H           7.9723   -0.5034   -4.9175 H.spc      1 <1>        0.000
     20 H           8.5692    0.8110   -6.7026 H.spc      1 <1>        0.000
@<TRIPOS>BOND
     1    6    7 2  
     2   10   11 am 
     3    9   10 1  
     4    8    9 2  
     5    5    6 am 
     6    4    5 1  
     7    1    2 1  
     8    1    8 1  
     9    2    3 1  
    10    3    4 2  
    11   11   12 2  
    12    3   13 1  
    13    4   14 1  
    14    5   15 1  
    15    6   16 1  
    16    8   17 1  
    17    9   18 1  
    18   10   19 1  
    19   11   20 1  
# Name:          frag3-195-6/31924
# Creation time: Sat Jun  5 12:52:13 2010


@<TRIPOS>MOLECULE
frag3-195-6/31924
   20    19     1     1     1
SMALL
USER_CHARGES


@<TRIPOS>ATOM
      1 S1          4.0491   -3.8063   -5.7089 S.3        1 <1>        0.000
      2 S2          2.6374   -4.0408   -7.1382 S.3        1 <1>        0.000
      3 C1          1.3852   -2.9253   -6.5458 C.2        1 <1>        0.000
      4 C2          1.5678   -1.6011   -6.6685 C.2        1 <1>        0.000
      5 N1          0.7246   -0.6035   -6.3109 N.am       1 <1>        0.000
      6 C9         -0.4746   -0.7000   -5.6900 C.2        1 <1>        0.000
      7 O1         -1.0481   -1.7402   -5.4072 O.2        1 <1>        0.000
      8 C20         5.0219   -2.4897   -6.4033 C.2        1 <1>        0.000
      9 C21         5.3008   -1.4122   -5.6590 C.2        1 <1>        0.000
     10 N5          6.0405   -0.3355   -5.9999 N.am       1 <1>        0.000
     11 C28         6.6572   -0.0616   -7.1751 C.2        1 <1>        0.000
     12 O4          7.1528    1.0065   -7.4901 O.2        1 <1>        0.000
     13 H           0.4763   -3.3140   -6.0865 H.spc      1 <1>        0.000
     14 H           2.5137   -1.2896   -7.1117 H.spc      1 <1>        0.000
     15 H           1.0325    0.3419   -6.5386 H.spc      1 <1>        0.000
     16 H          -0.9712    0.2317   -5.4191 H.spc      1 <1>        0.000
     17 H           5.3885   -2.5593   -7.4274 H.spc      1 <1>        0.000
     18 H           4.8786   -1.4032   -4.6541 H.spc      1 <1>        0.000
     19 H           6.1505    0.3700   -5.2715 H.spc      1 <1>        0.000
     20 H           6.7153   -0.8694   -7.9046 H.spc      1 <1>        0.000
@<TRIPOS>BOND
     1    6    7 2  
     2   10   11 am 
     3    9   10 1  
     4    8    9 2  
     5    5    6 am 
     6    4    5 1  
     7    1    2 1  
     8    1    8 1  
     9    2    3 1  
    10    3    4 2  
    11   11   12 2  
    12    3   13 1  
    13    4   14 1  
    14    5   15 1  
    15    6   16 1  
    16    8   17 1  
    17    9   18 1  
    18   10   19 1  
    19   11   20 1  
# Name:          frag3-195-6/31924
# Creation time: Sat Jun  5 12:52:14 2010


@<TRIPOS>MOLECULE
frag3-195-6/31924
   20    19     1     1     1
SMALL
USER_CHARGES


@<TRIPOS>ATOM
      1 S1          3.1653   -2.0122   -4.4629 S.3        1 <1>        0.000
      2 S2          3.8652   -3.3687   -5.7975 S.3        1 <1>        0.000
      3 C1          5.5670   -2.8393   -5.9268 C.2        1 <1>        0.000
      4 C2          5.8458   -1.7038   -6.5836 C.2        1 <1>        0.000
      5 N1          7.0593   -1.1206   -6.7542 N.am       1 <1>        0.000
      6 C9          7.3664    0.0053   -7.4396 C.2        1 <1>        0.000
      7 O1          6.5806    0.6806   -8.0837 O.2        1 <1>        0.000
      8 C20         2.0187   -1.1037   -5.4881 C.2        1 <1>        0.000
      9 C21         0.8317   -1.6583   -5.7723 C.2        1 <1>        0.000
     10 N5         -0.1769   -1.1223   -6.5021 N.am       1 <1>        0.000
     11 C28        -1.3585   -1.6803   -6.8599 C.2        1 <1>        0.000
     12 O4         -1.7500   -2.7866   -6.5262 O.2        1 <1>        0.000
     13 H           6.3660   -3.4301   -5.4788 H.spc      1 <1>        0.000
     14 H           4.9974   -1.1883   -7.0337 H.spc      1 <1>        0.000
     15 H           7.8442   -1.5937   -6.3064 H.spc      1 <1>        0.000
     16 H           8.4044    0.3370   -7.4139 H.spc      1 <1>        0.000
     17 H           2.2789   -0.1184   -5.8748 H.spc      1 <1>        0.000
     18 H           0.6575   -2.6561   -5.3697 H.spc      1 <1>        0.000
     19 H          -0.0255   -0.1672   -6.8266 H.spc      1 <1>        0.000
     20 H          -2.0149   -1.0910   -7.5001 H.spc      1 <1>        0.000
@<TRIPOS>BOND
     1    6    7 2  
     2   10   11 am 
     3    9   10 1  
     4    8    9 2  
     5    5    6 am 
     6    4    5 1  
     7    1    2 1  
     8    1    8 1  
     9    2    3 1  
    10    3    4 2  
    11   11   12 2  
    12    3   13 1  
    13    4   14 1  
    14    5   15 1  
    15    6   16 1  
    16    8   17 1  
    17    9   18 1  
    18   10   19 1  
    19   11   20 1  
# Name:          frag3-195-6/31924
# Creation time: Sat Jun  5 12:52:14 2010


@<TRIPOS>MOLECULE
frag3-195-6/31924
   20    19     1     1     1
SMALL
USER_CHARGES


@<TRIPOS>ATOM
      1 S1          2.6989   -4.2240   -7.0235 S.3        1 <1>        0.000
      2 S2          4.3836   -4.1521   -5.9071 S.3        1 <1>        0.000
      3 C1          5.0899   -2.6222   -6.4883 C.2        1 <1>        0.000
      4 C2          4.8890   -1.4960   -5.7881 C.2        1 <1>        0.000
      5 N1          5.3675   -0.2579   -6.0483 N.am       1 <1>        0.000
      6 C9          6.3342    0.1092   -6.9222 C.2        1 <1>        0.000
      7 O1          6.7245    1.2467   -7.1199 O.2        1 <1>        0.000
      8 C20         1.8325   -2.7896   -6.4183 C.2        1 <1>        0.000
      9 C21         0.6586   -2.4529   -6.9655 C.2        1 <1>        0.000
     10 N5         -0.1556   -1.4269   -6.6236 N.am       1 <1>        0.000
     11 C28         0.0709   -0.4242   -5.7407 C.2        1 <1>        0.000
     12 O4          1.1206   -0.2200   -5.1514 O.2        1 <1>        0.000
     13 H           5.6798   -2.6021   -7.4046 H.spc      1 <1>        0.000
     14 H           4.2634   -1.5900   -4.9005 H.spc      1 <1>        0.000
     15 H           4.9432    0.5008   -5.5147 H.spc      1 <1>        0.000
     16 H           6.8062   -0.6845   -7.5014 H.spc      1 <1>        0.000
     17 H           2.2545   -2.1921   -5.6102 H.spc      1 <1>        0.000
     18 H           0.3161   -3.0819   -7.7872 H.spc      1 <1>        0.000
     19 H          -1.0607   -1.4057   -7.0934 H.spc      1 <1>        0.000
     20 H          -0.7546    0.2585   -5.5394 H.spc      1 <1>        0.000
@<TRIPOS>BOND
     1    6    7 2  
     2   10   11 am 
     3    9   10 1  
     4    8    9 2  
     5    5    6 am 
     6    4    5 1  
     7    1    2 1  
     8    1    8 1  
     9    2    3 1  
    10    3    4 2  
    11   11   12 2  
    12    3   13 1  
    13    4   14 1  
    14    5   15 1  
    15    6   16 1  
    16    8   17 1  
    17    9   18 1  
    18   10   19 1  
    19   11   20 1  
# Name:          frag3-195-6/31924
# Creation time: Sat Jun  5 12:52:14 2010


@<TRIPOS>MOLECULE
frag3-195-6/31924
   20    19     1     1     1
SMALL
USER_CHARGES


@<TRIPOS>ATOM
      1 S1          4.1052   -2.8349   -5.8952 S.3        1 <1>        0.000
      2 S2          2.9296   -1.6299   -4.7711 S.3        1 <1>        0.000
      3 C1          1.6847   -1.1860   -5.9692 C.2        1 <1>        0.000
      4 C2          0.5059   -1.8240   -5.9519 C.2        1 <1>        0.000
      5 N1         -0.5695   -1.6091   -6.7496 N.am       1 <1>        0.000
      6 C9         -1.8218   -2.1085   -6.6330 C.2        1 <1>        0.000
      7 O1         -2.2298   -2.7948   -5.7101 O.2        1 <1>        0.000
      8 C20         5.3541   -1.6786   -6.4266 C.2        1 <1>        0.000
      9 C21         6.6418   -1.9558   -6.1816 C.2        1 <1>        0.000
     10 N5          7.7278   -1.2237   -6.5267 N.am       1 <1>        0.000
     11 C28         7.7977   -0.1442   -7.3430 C.2        1 <1>        0.000
     12 O4          6.8888    0.2795   -8.0389 O.2        1 <1>        0.000
     13 H           1.8800   -0.4064   -6.7055 H.spc      1 <1>        0.000
     14 H           0.3987   -2.6114   -5.2058 H.spc      1 <1>        0.000
     15 H          -0.4136   -0.9881   -7.5436 H.spc      1 <1>        0.000
     16 H          -2.5265   -1.8780   -7.4319 H.spc      1 <1>        0.000
     17 H           5.0743   -0.7603   -6.9429 H.spc      1 <1>        0.000
     18 H           6.8390   -2.8809   -5.6399 H.spc      1 <1>        0.000
     19 H           8.6119   -1.5254   -6.1171 H.spc      1 <1>        0.000
     20 H           8.7463    0.3913   -7.3814 H.spc      1 <1>        0.000
@<TRIPOS>BOND
     1    6    7 2  
     2   10   11 am 
     3    9   10 1  
     4    8    9 2  
     5    5    6 am 
     6    4    5 1  
     7    1    2 1  
     8    1    8 1  
     9    2    3 1  
    10    3    4 2  
    11   11   12 2  
    12    3   13 1  
    13    4   14 1  
    14    5   15 1  
    15    6   16 1  
    16    8   17 1  
    17    9   18 1  
    18   10   19 1  
    19   11   20 1  
# Name:          frag3-195-6/31924
# Creation time: Sat Jun  5 12:52:14 2010


@<TRIPOS>MOLECULE
frag3-195-6/31924
   20    19     1     1     1
SMALL
USER_CHARGES


@<TRIPOS>ATOM
      1 S1          4.3763   -4.3394   -6.2750 S.3        1 <1>        0.000
      2 S2          2.6275   -4.6159   -7.2598 S.3        1 <1>        0.000
      3 C1          1.5321   -3.6326   -6.2475 C.2        1 <1>        0.000
      4 C2          1.5332   -2.2992   -6.3919 C.2        1 <1>        0.000
      5 N1          0.7571   -1.3928   -5.7467 N.am       1 <1>        0.000
      6 C9          0.8555   -0.0431   -5.7477 C.2        1 <1>        0.000
      7 O1          1.6745    0.6086   -6.3749 O.2        1 <1>        0.000
      8 C20         4.7268   -2.6397   -6.6957 C.2        1 <1>        0.000
      9 C21         4.8038   -1.7314   -5.7134 C.2        1 <1>        0.000
     10 N5          5.0860   -0.4127   -5.8285 N.am       1 <1>        0.000
     11 C28         5.3842    0.3003   -6.9417 C.2        1 <1>        0.000
     12 O4          5.6575    1.4880   -6.9739 O.2        1 <1>        0.000
     13 H           0.8722   -4.1095   -5.5228 H.spc      1 <1>        0.000
     14 H           2.2427   -1.8955   -7.1142 H.spc      1 <1>        0.000
     15 H          -0.0018   -1.7802   -5.1860 H.spc      1 <1>        0.000
     16 H           0.1421    0.5091   -5.1359 H.spc      1 <1>        0.000
     17 H           4.8757   -2.3457   -7.7347 H.spc      1 <1>        0.000
     18 H           4.6174   -2.0974   -4.7037 H.spc      1 <1>        0.000
     19 H           5.0723    0.1175   -4.9573 H.spc      1 <1>        0.000
     20 H           5.3793   -0.2349   -7.8913 H.spc      1 <1>        0.000
@<TRIPOS>BOND
     1    6    7 2  
     2   10   11 am 
     3    9   10 1  
     4    8    9 2  
     5    5    6 am 
     6    4    5 1  
     7    1    2 1  
     8    1    8 1  
     9    2    3 1  
    10    3    4 2  
    11   11   12 2  
    12    3   13 1  
    13    4   14 1  
    14    5   15 1  
    15    6   16 1  
    16    8   17 1  
    17    9   18 1  
    18   10   19 1  
    19   11   20 1  
# Name:          frag3-195-6/31924
# Creation time: Sat Jun  5 12:52:14 2010


@<TRIPOS>MOLECULE
frag3-195-6/31924
   20    19     1     1     1
SMALL
USER_CHARGES


@<TRIPOS>ATOM
      1 S1          4.6430   -3.9614   -5.5000 S.3        1 <1>        0.000
      2 S2          3.0752   -3.6947   -6.7559 S.3        1 <1>        0.000
      3 C1          2.3700   -2.1990   -6.0780 C.2        1 <1>        0.000
      4 C2          1.0566   -1.9766   -6.2194 C.2        1 <1>        0.000
      5 N1          0.3357   -0.9293   -5.7449 N.am       1 <1>        0.000
      6 C9         -1.0008   -0.7256   -5.8091 C.2        1 <1>        0.000
      7 O1         -1.8001   -1.4385   -6.3934 O.2        1 <1>        0.000
      8 C20         5.9034   -3.0207   -6.3474 C.2        1 <1>        0.000
      9 C21         5.7753   -1.6879   -6.4183 C.2        1 <1>        0.000
     10 N5          6.6311   -0.8046   -6.9875 N.am       1 <1>        0.000
     11 C28         6.5075    0.5383   -7.1167 C.2        1 <1>        0.000
     12 O4          5.5177    1.1902   -6.8266 O.2        1 <1>        0.000
     13 H           2.9997   -1.4779   -5.5568 H.spc      1 <1>        0.000
     14 H           0.5007   -2.7261   -6.7827 H.spc      1 <1>        0.000
     15 H           0.8724   -0.1985   -5.2778 H.spc      1 <1>        0.000
     16 H          -1.3968    0.1501   -5.2949 H.spc      1 <1>        0.000
     17 H           6.7605   -3.5209   -6.7983 H.spc      1 <1>        0.000
     18 H           4.8783   -1.2656   -5.9653 H.spc      1 <1>        0.000
     19 H           7.4863   -1.2063   -7.3717 H.spc      1 <1>        0.000
     20 H           7.3647    1.0824   -7.5133 H.spc      1 <1>        0.000
@<TRIPOS>BOND
     1    6    7 2  
     2   10   11 am 
     3    9   10 1  
     4    8    9 2  
     5    5    6 am 
     6    4    5 1  
     7    1    2 1  
     8    1    8 1  
     9    2    3 1  
    10    3    4 2  
    11   11   12 2  
    12    3   13 1  
    13    4   14 1  
    14    5   15 1  
    15    6   16 1  
    16    8   17 1  
    17    9   18 1  
    18   10   19 1  
    19   11   20 1  
# Name:          frag3-195-6/31924
# Creation time: Sat Jun  5 12:52:14 2010


@<TRIPOS>MOLECULE
frag3-195-6/31924
   20    19     1     1     1
SMALL
USER_CHARGES


@<TRIPOS>ATOM
      1 S1          4.5616   -3.8294   -6.4830 S.3        1 <1>        0.000
      2 S2          2.8157   -4.2832   -7.4115 S.3        1 <1>        0.000
      3 C1          1.6471   -3.6219   -6.2241 C.2        1 <1>        0.000
      4 C2          1.0996   -2.4209   -6.4615 C.2        1 <1>        0.000
      5 N1          0.1738   -1.7731   -5.7071 N.am       1 <1>        0.000
      6 C9         -0.4255   -0.5829   -5.9454 C.2        1 <1>        0.000
      7 O1         -1.2343   -0.0371   -5.2141 O.2        1 <1>        0.000
      8 C20         4.4363   -2.0432   -6.4141 C.2        1 <1>        0.000
      9 C21         5.5596   -1.3201   -6.5230 C.2        1 <1>        0.000
     10 N5          5.6683    0.0326   -6.5255 N.am       1 <1>        0.000
     11 C28         6.7869    0.7952   -6.5845 C.2        1 <1>        0.000
     12 O4          7.9254    0.3743   -6.7031 O.2        1 <1>        0.000
     13 H           1.3868   -4.1844   -5.3275 H.spc      1 <1>        0.000
     14 H           1.4354   -1.9061   -7.3617 H.spc      1 <1>        0.000
     15 H          -0.1067   -2.2459   -4.8479 H.spc      1 <1>        0.000
     16 H          -0.1627   -0.0686   -6.8698 H.spc      1 <1>        0.000
     17 H           3.4695   -1.5562   -6.2866 H.spc      1 <1>        0.000
     18 H           6.4892   -1.8809   -6.6204 H.spc      1 <1>        0.000
     19 H           4.7879    0.5453   -6.4762 H.spc      1 <1>        0.000
     20 H           6.6583    1.8757   -6.5206 H.spc      1 <1>        0.000
@<TRIPOS>BOND
     1    6    7 2  
     2   10   11 am 
     3    9   10 1  
     4    8    9 2  
     5    5    6 am 
     6    4    5 1  
     7    1    2 1  
     8    1    8 1  
     9    2    3 1  
    10    3    4 2  
    11   11   12 2  
    12    3   13 1  
    13    4   14 1  
    14    5   15 1  
    15    6   16 1  
    16    8   17 1  
    17    9   18 1  
    18   10   19 1  
    19   11   20 1  
# Name:          frag3-195-6/31924
# Creation time: Sat Jun  5 12:52:14 2010


@<TRIPOS>MOLECULE
frag3-195-6/31924
   20    19     1     1     1
SMALL
USER_CHARGES


@<TRIPOS>ATOM
      1 S1          4.0660   -4.2361   -6.7708 S.3        1 <1>        0.000
      2 S2          2.7201   -4.2713   -5.2583 S.3        1 <1>        0.000
      3 C1          1.6593   -2.9201   -5.7417 C.2        1 <1>        0.000
      4 C2          1.9265   -1.6847   -5.2922 C.2        1 <1>        0.000
      5 N1          1.2679   -0.5344   -5.5776 N.am       1 <1>        0.000
      6 C9          0.2080   -0.3544   -6.4006 C.2        1 <1>        0.000
      7 O1         -0.3320   -1.2245   -7.0646 O.2        1 <1>        0.000
      8 C20         4.8611   -2.6674   -6.4712 C.2        1 <1>        0.000
      9 C21         4.9349   -1.7739   -7.4665 C.2        1 <1>        0.000
     10 N5          5.4647   -0.5301   -7.4242 N.am       1 <1>        0.000
     11 C28         5.8813    0.1824   -6.3496 C.2        1 <1>        0.000
     12 O4          6.3568    1.3045   -6.3796 O.2        1 <1>        0.000
     13 H           0.8044   -3.0965   -6.3945 H.spc      1 <1>        0.000
     14 H           2.7762   -1.5947   -4.6154 H.spc      1 <1>        0.000
     15 H           1.6160    0.3038   -5.1121 H.spc      1 <1>        0.000
     16 H          -0.1979    0.6543   -6.4767 H.spc      1 <1>        0.000
     17 H           5.2811   -2.4391   -5.4916 H.spc      1 <1>        0.000
     18 H           4.5186   -2.0863   -8.4242 H.spc      1 <1>        0.000
     19 H           5.5644   -0.0640   -8.3260 H.spc      1 <1>        0.000
     20 H           5.7825   -0.2894   -5.3720 H.spc      1 <1>        0.000
@<TRIPOS>BOND
     1    6    7 2  
     2   10   11 am 
     3    9   10 1  
     4    8    9 2  
     5    5    6 am 
     6    4    5 1  
     7    1    2 1  
     8    1    8 1  
     9    2    3 1  
    10    3    4 2  
    11   11   12 2  
    12    3   13 1  
    13    4   14 1  
    14    5   15 1  
    15    6   16 1  
    16    8   17 1  
    17    9   18 1  
    18   10   19 1  
    19   11   20 1  
# Name:          frag3-195-6/31924
# Creation time: Sat Jun  5 12:52:14 2010


@<TRIPOS>MOLECULE
frag3-195-6/31924
   20    19     1     1     1
SMALL
USER_CHARGES


@<TRIPOS>ATOM
      1 S1          3.8437   -3.4329   -6.2477 S.3        1 <1>        0.000
      2 S2          2.8492   -2.9947   -4.5416 S.3        1 <1>        0.000
      3 C1          1.2770   -2.4898   -5.1994 C.2        1 <1>        0.000
      4 C2          1.1740   -1.3121   -5.8350 C.2        1 <1>        0.000
      5 N1          0.0839   -0.7776   -6.4351 N.am       1 <1>        0.000
      6 C9         -1.1296   -1.3452   -6.6309 C.2        1 <1>        0.000
      7 O1         -1.4613   -2.4609   -6.2622 O.2        1 <1>        0.000
      8 C20         5.0867   -2.1630   -6.2583 C.2        1 <1>        0.000
      9 C21         5.6667   -1.8167   -7.4133 C.2        1 <1>        0.000
     10 N5          6.5996   -0.8633   -7.6221 N.am       1 <1>        0.000
     11 C28         7.1355    0.0140   -6.7392 C.2        1 <1>        0.000
     12 O4          7.8891    0.9323   -7.0121 O.2        1 <1>        0.000
     13 H           0.4032   -3.1317   -5.0875 H.spc      1 <1>        0.000
     14 H           2.0819   -0.7102   -5.8729 H.spc      1 <1>        0.000
     15 H           0.1908    0.1748   -6.7844 H.spc      1 <1>        0.000
     16 H          -1.8750   -0.7550   -7.1639 H.spc      1 <1>        0.000
     17 H           5.3747   -1.6695   -5.3301 H.spc      1 <1>        0.000
     18 H           5.3465   -2.3729   -8.2943 H.spc      1 <1>        0.000
     19 H           6.9498   -0.7937   -8.5776 H.spc      1 <1>        0.000
     20 H           6.8685   -0.1130   -5.6901 H.spc      1 <1>        0.000
@<TRIPOS>BOND
     1    6    7 2  
     2   10   11 am 
     3    9   10 1  
     4    8    9 2  
     5    5    6 am 
     6    4    5 1  
     7    1    2 1  
     8    1    8 1  
     9    2    3 1  
    10    3    4 2  
    11   11   12 2  
    12    3   13 1  
    13    4   14 1  
    14    5   15 1  
    15    6   16 1  
    16    8   17 1  
    17    9   18 1  
    18   10   19 1  
    19   11   20 1  
# Name:          frag3-195-6/31924
# Creation time: Sat Jun  5 12:52:14 2010


@<TRIPOS>MOLECULE
frag3-195-6/31924
   20    19     1     1     1
SMALL
USER_CHARGES


@<TRIPOS>ATOM
      1 S1          4.5861   -3.8549   -6.3474 S.3        1 <1>        0.000
      2 S2          3.0213   -3.8505   -7.6300 S.3        1 <1>        0.000
      3 C1          2.0348   -2.5377   -6.9303 C.2        1 <1>        0.000
      4 C2          0.7145   -2.7150   -6.7887 C.2        1 <1>        0.000
      5 N1         -0.1853   -1.8601   -6.2469 N.am       1 <1>        0.000
      6 C9          0.0392   -0.7917   -5.4463 C.2        1 <1>        0.000
      7 O1         -0.8141   -0.0510   -4.9892 O.2        1 <1>        0.000
      8 C20         5.2104   -2.2000   -6.5817 C.2        1 <1>        0.000
      9 C21         5.8609   -1.6004   -5.5765 C.2        1 <1>        0.000
     10 N5          6.4289   -0.3708   -5.5723 N.am       1 <1>        0.000
     11 C28         6.4000    0.5793   -6.5382 C.2        1 <1>        0.000
     12 O4          5.7178    0.5428   -7.5496 O.2        1 <1>        0.000
     13 H           2.5014   -1.6022   -6.6217 H.spc      1 <1>        0.000
     14 H           0.3163   -3.6618   -7.1537 H.spc      1 <1>        0.000
     15 H          -1.1626   -2.0460   -6.4721 H.spc      1 <1>        0.000
     16 H           1.0755   -0.5745   -5.1874 H.spc      1 <1>        0.000
     17 H           5.0642   -1.6839   -7.5306 H.spc      1 <1>        0.000
     18 H           5.9432   -2.1700   -4.6508 H.spc      1 <1>        0.000
     19 H           6.9481   -0.1272   -4.7288 H.spc      1 <1>        0.000
     20 H           7.0406    1.4503   -6.4001 H.spc      1 <1>        0.000
@<TRIPOS>BOND
     1    6    7 2  
     2   10   11 am 
     3    9   10 1  
     4    8    9 2  
     5    5    6 am 
     6    4    5 1  
     7    1    2 1  
     8    1    8 1  
     9    2    3 1  
    10    3    4 2  
    11   11   12 2  
    12    3   13 1  
    13    4   14 1  
    14    5   15 1  
    15    6   16 1  
    16    8   17 1  
    17    9   18 1  
    18   10   19 1  
    19   11   20 1  
# Name:          frag3-195-6/31924
# Creation time: Sat Jun  5 12:52:14 2010


@<TRIPOS>MOLECULE
frag3-195-6/31924
   20    19     1     1     1
SMALL
USER_CHARGES


@<TRIPOS>ATOM
      1 S1          4.0673   -3.8054   -6.0862 S.3        1 <1>        0.000
      2 S2          2.5647   -3.9066   -7.4380 S.3        1 <1>        0.000
      3 C1          1.5230   -2.5831   -6.8563 C.2        1 <1>        0.000
      4 C2          0.8216   -2.7504   -5.7245 C.2        1 <1>        0.000
      5 N1          0.0135   -1.8578   -5.1032 N.am       1 <1>        0.000
      6 C9         -0.3733   -0.6336   -5.5330 C.2        1 <1>        0.000
      7 O1         -0.0930   -0.1376   -6.6127 O.2        1 <1>        0.000
      8 C20         4.7152   -2.1818   -6.4293 C.2        1 <1>        0.000
      9 C21         6.0096   -1.9308   -6.1997 C.2        1 <1>        0.000
     10 N5          6.6854   -0.7831   -6.4260 N.am       1 <1>        0.000
     11 C28         6.2074    0.4282   -6.8011 C.2        1 <1>        0.000
     12 O4          6.8733    1.4321   -6.9870 O.2        1 <1>        0.000
     13 H           1.4563   -1.6485   -7.4133 H.spc      1 <1>        0.000
     14 H           0.9134   -3.7253   -5.2457 H.spc      1 <1>        0.000
     15 H          -0.3503   -2.1451   -4.1946 H.spc      1 <1>        0.000
     16 H          -0.9880   -0.0396   -4.8567 H.spc      1 <1>        0.000
     17 H           4.0641   -1.4009   -6.8222 H.spc      1 <1>        0.000
     18 H           6.5891   -2.7525   -5.7789 H.spc      1 <1>        0.000
     19 H           7.6958   -0.8356   -6.2965 H.spc      1 <1>        0.000
     20 H           5.1309    0.5123   -6.9499 H.spc      1 <1>        0.000
@<TRIPOS>BOND
     1    6    7 2  
     2   10   11 am 
     3    9   10 1  
     4    8    9 2  
     5    5    6 am 
     6    4    5 1  
     7    1    2 1  
     8    1    8 1  
     9    2    3 1  
    10    3    4 2  
    11   11   12 2  
    12    3   13 1  
    13    4   14 1  
    14    5   15 1  
    15    6   16 1  
    16    8   17 1  
    17    9   18 1  
    18   10   19 1  
    19   11   20 1  
# Name:          frag3-195-6/31924
# Creation time: Sat Jun  5 12:52:14 2010


@<TRIPOS>MOLECULE
frag3-195-6/31924
   20    19     1     1     1
SMALL
USER_CHARGES


@<TRIPOS>ATOM
      1 S1          2.9494   -2.6679   -7.6127 S.3        1 <1>        0.000
      2 S2          3.9525   -3.2493   -5.9506 S.3        1 <1>        0.000
      3 C1          4.7516   -1.7192   -5.5076 C.2        1 <1>        0.000
      4 C2          5.7797   -1.2806   -6.2493 C.2        1 <1>        0.000
      5 N1          6.4861   -0.1334   -6.1017 N.am       1 <1>        0.000
      6 C9          7.5146    0.3290   -6.8495 C.2        1 <1>        0.000
      7 O1          8.0488   -0.2683   -7.7701 O.2        1 <1>        0.000
      8 C20         1.4322   -2.0768   -6.8908 C.2        1 <1>        0.000
      9 C21         0.5630   -2.9668   -6.3881 C.2        1 <1>        0.000
     10 N5         -0.6179   -2.7191   -5.7744 N.am       1 <1>        0.000
     11 C28        -1.1897   -1.5241   -5.4890 C.2        1 <1>        0.000
     12 O4         -0.6557   -0.4333   -5.6130 O.2        1 <1>        0.000
     13 H           4.4094   -1.1472   -4.6452 H.spc      1 <1>        0.000
     14 H           6.0847   -1.9267   -7.0725 H.spc      1 <1>        0.000
     15 H           6.2046    0.4613   -5.3222 H.spc      1 <1>        0.000
     16 H           7.8991    1.3202   -6.6091 H.spc      1 <1>        0.000
     17 H           1.2134   -1.0095   -6.8579 H.spc      1 <1>        0.000
     18 H           0.8414   -4.0161   -6.4857 H.spc      1 <1>        0.000
     19 H          -1.1483   -3.5421   -5.4885 H.spc      1 <1>        0.000
     20 H          -2.2141   -1.5380   -5.1169 H.spc      1 <1>        0.000
@<TRIPOS>BOND
     1    6    7 2  
     2   10   11 am 
     3    9   10 1  
     4    8    9 2  
     5    5    6 am 
     6    4    5 1  
     7    1    2 1  
     8    1    8 1  
     9    2    3 1  
    10    3    4 2  
    11   11   12 2  
    12    3   13 1  
    13    4   14 1  
    14    5   15 1  
    15    6   16 1  
    16    8   17 1  
    17    9   18 1  
    18   10   19 1  
    19   11   20 1  
# Name:          frag3-195-6/31924
# Creation time: Sat Jun  5 12:52:14 2010


@<TRIPOS>MOLECULE
frag3-195-6/31924
   20    19     1     1     1
SMALL
USER_CHARGES


@<TRIPOS>ATOM
      1 S1          2.9814   -2.3853   -6.9201 S.3        1 <1>        0.000
      2 S2          4.2072   -2.9292   -5.3983 S.3        1 <1>        0.000
      3 C1          5.8022   -2.6170   -6.1503 C.2        1 <1>        0.000
      4 C2          6.1598   -1.3486   -6.3993 C.2        1 <1>        0.000
      5 N1          7.3322   -0.9092   -6.9254 N.am       1 <1>        0.000
      6 C9          7.7488    0.3650   -7.1127 C.2        1 <1>        0.000
      7 O1          8.8205    0.6986   -7.5889 O.2        1 <1>        0.000
      8 C20         1.5885   -1.7375   -6.0007 C.2        1 <1>        0.000
      9 C21         0.3571   -2.1527   -6.3283 C.2        1 <1>        0.000
     10 N5         -0.8125   -1.8055   -5.7358 N.am       1 <1>        0.000
     11 C28        -2.0756   -2.1655   -6.0696 C.2        1 <1>        0.000
     12 O4         -3.0949   -1.7229   -5.5676 O.2        1 <1>        0.000
     13 H           6.4694   -3.4418   -6.4008 H.spc      1 <1>        0.000
     14 H           5.4252   -0.5826   -6.1509 H.spc      1 <1>        0.000
     15 H           7.9855   -1.6357   -7.2182 H.spc      1 <1>        0.000
     16 H           7.0677    1.1611   -6.8120 H.spc      1 <1>        0.000
     17 H           1.7386   -1.0215   -5.1927 H.spc      1 <1>        0.000
     18 H           0.2877   -2.8477   -7.1651 H.spc      1 <1>        0.000
     19 H          -0.7300   -1.1885   -4.9278 H.spc      1 <1>        0.000
     20 H          -2.1901   -2.9143   -6.8534 H.spc      1 <1>        0.000
@<TRIPOS>BOND
     1    6    7 2  
     2   10   11 am 
     3    9   10 1  
     4    8    9 2  
     5    5    6 am 
     6    4    5 1  
     7    1    2 1  
     8    1    8 1  
     9    2    3 1  
    10    3    4 2  
    11   11   12 2  
    12    3   13 1  
    13    4   14 1  
    14    5   15 1  
    15    6   16 1  
    16    8   17 1  
    17    9   18 1  
    18   10   19 1  
    19   11   20 1  
# Name:          frag3-195-6/31924
# Creation time: Sat Jun  5 12:52:14 2010


@<TRIPOS>MOLECULE
frag3-195-6/31924
   20    19     1     1     1
SMALL
USER_CHARGES


@<TRIPOS>ATOM
      1 S1          2.8553   -3.3579   -7.3404 S.3        1 <1>        0.000
      2 S2          4.1781   -3.2902   -5.8128 S.3        1 <1>        0.000
      3 C1          5.1205   -1.8471   -6.2597 C.2        1 <1>        0.000
      4 C2          6.4442   -1.8345   -6.0552 C.2        1 <1>        0.000
      5 N1          7.3289   -0.8558   -6.3647 N.am       1 <1>        0.000
      6 C9          7.0803    0.3630   -6.8989 C.2        1 <1>        0.000
      7 O1          5.9763    0.8616   -7.0504 O.2        1 <1>        0.000
      8 C20         1.5416   -2.3474   -6.6910 C.2        1 <1>        0.000
      9 C21         0.2898   -2.8236   -6.6907 C.2        1 <1>        0.000
     10 N5         -0.8278   -2.2272   -6.2140 N.am       1 <1>        0.000
     11 C28        -0.9489   -1.0281   -5.5945 C.2        1 <1>        0.000
     12 O4         -0.0236   -0.3226   -5.2245 O.2        1 <1>        0.000
     13 H           4.6240   -0.9805   -6.6964 H.spc      1 <1>        0.000
     14 H           6.8619   -2.7224   -5.5806 H.spc      1 <1>        0.000
     15 H           8.3082   -1.0643   -6.1701 H.spc      1 <1>        0.000
     16 H           7.9402    0.9499   -7.2217 H.spc      1 <1>        0.000
     17 H           1.7534   -1.3529   -6.2983 H.spc      1 <1>        0.000
     18 H           0.1544   -3.8128   -7.1280 H.spc      1 <1>        0.000
     19 H          -1.6947   -2.7502   -6.3376 H.spc      1 <1>        0.000
     20 H          -1.9590   -0.6620   -5.4107 H.spc      1 <1>        0.000
@<TRIPOS>BOND
     1    6    7 2  
     2   10   11 am 
     3    9   10 1  
     4    8    9 2  
     5    5    6 am 
     6    4    5 1  
     7    1    2 1  
     8    1    8 1  
     9    2    3 1  
    10    3    4 2  
    11   11   12 2  
    12    3   13 1  
    13    4   14 1  
    14    5   15 1  
    15    6   16 1  
    16    8   17 1  
    17    9   18 1  
    18   10   19 1  
    19   11   20 1  
# Name:          frag3-195-6/31924
# Creation time: Sat Jun  5 12:52:14 2010


@<TRIPOS>MOLECULE
frag3-195-6/31924
   20    19     1     1     1
SMALL
USER_CHARGES


@<TRIPOS>ATOM
      1 S1          4.2459   -1.8679   -5.3652 S.3        1 <1>        0.000
      2 S2          2.7701   -0.8292   -6.2834 S.3        1 <1>        0.000
      3 C1          1.4908   -2.0733   -6.3495 C.2        1 <1>        0.000
      4 C2          0.2233   -1.7176   -6.0999 C.2        1 <1>        0.000
      5 N1         -0.8819   -2.5018   -6.1355 N.am       1 <1>        0.000
      6 C9         -2.1714   -2.1610   -5.9057 C.2        1 <1>        0.000
      7 O1         -3.1274   -2.9160   -5.9557 O.2        1 <1>        0.000
      8 C20         5.6696   -1.3059   -6.2832 C.2        1 <1>        0.000
      9 C21         6.8752   -1.3550   -5.7014 C.2        1 <1>        0.000
     10 N5          8.0683   -1.0042   -6.2402 N.am       1 <1>        0.000
     11 C28         8.3347   -0.5535   -7.4902 C.2        1 <1>        0.000
     12 O4          7.5172   -0.4245   -8.3870 O.2        1 <1>        0.000
     13 H           1.7375   -3.1075   -6.5895 H.spc      1 <1>        0.000
     14 H           0.0614   -0.6723   -5.8367 H.spc      1 <1>        0.000
     15 H          -0.7196   -3.4819   -6.3669 H.spc      1 <1>        0.000
     16 H          -2.3730   -1.1199   -5.6537 H.spc      1 <1>        0.000
     17 H           5.5599   -0.9291   -7.3001 H.spc      1 <1>        0.000
     18 H           6.8995   -1.7198   -4.6745 H.spc      1 <1>        0.000
     19 H           8.8745   -1.0911   -5.6214 H.spc      1 <1>        0.000
     20 H           9.3668   -0.2833   -7.7135 H.spc      1 <1>        0.000
@<TRIPOS>BOND
     1    6    7 2  
     2   10   11 am 
     3    9   10 1  
     4    8    9 2  
     5    5    6 am 
     6    4    5 1  
     7    1    2 1  
     8    1    8 1  
     9    2    3 1  
    10    3    4 2  
    11   11   12 2  
    12    3   13 1  
    13    4   14 1  
    14    5   15 1  
    15    6   16 1  
    16    8   17 1  
    17    9   18 1  
    18   10   19 1  
    19   11   20 1  
# Name:          frag3-195-6/31924
# Creation time: Sat Jun  5 12:52:14 2010


@<TRIPOS>MOLECULE
frag3-195-6/31924
   20    19     1     1     1
SMALL
USER_CHARGES


@<TRIPOS>ATOM
      1 S1          4.7772   -4.0691   -6.5869 S.3        1 <1>        0.000
      2 S2          3.1668   -4.3045   -7.7936 S.3        1 <1>        0.000
      3 C1          1.8868   -3.6140   -6.7557 C.2        1 <1>        0.000
      4 C2          1.7683   -2.2808   -6.6679 C.2        1 <1>        0.000
      5 N1          0.8487   -1.5729   -5.9680 N.am       1 <1>        0.000
      6 C9          0.8077   -0.2423   -5.7248 C.2        1 <1>        0.000
      7 O1         -0.1383    0.3676   -5.2563 O.2        1 <1>        0.000
      8 C20         4.9940   -2.2983   -6.6678 C.2        1 <1>        0.000
      9 C21         4.8857   -1.5802   -5.5415 C.2        1 <1>        0.000
     10 N5          5.0436   -0.2424   -5.3951 N.am       1 <1>        0.000
     11 C28         5.3742    0.6799   -6.3314 C.2        1 <1>        0.000
     12 O4          5.5999    0.4472   -7.5078 O.2        1 <1>        0.000
     13 H           1.2120   -4.2667   -6.2019 H.spc      1 <1>        0.000
     14 H           2.4995   -1.6966   -7.2266 H.spc      1 <1>        0.000
     15 H           0.0832   -2.1172   -5.5704 H.spc      1 <1>        0.000
     16 H           1.6992    0.3352   -5.9694 H.spc      1 <1>        0.000
     17 H           5.2108   -1.8096   -7.6177 H.spc      1 <1>        0.000
     18 H           4.6420   -2.1377   -4.6371 H.spc      1 <1>        0.000
     19 H           4.8934    0.1192   -4.4533 H.spc      1 <1>        0.000
     20 H           5.4445    1.7178   -6.0060 H.spc      1 <1>        0.000
@<TRIPOS>BOND
     1    6    7 2  
     2   10   11 am 
     3    9   10 1  
     4    8    9 2  
     5    5    6 am 
     6    4    5 1  
     7    1    2 1  
     8    1    8 1  
     9    2    3 1  
    10    3    4 2  
    11   11   12 2  
    12    3   13 1  
    13    4   14 1  
    14    5   15 1  
    15    6   16 1  
    16    8   17 1  
    17    9   18 1  
    18   10   19 1  
    19   11   20 1  
# Name:          frag3-195-6/31924
# Creation time: Sat Jun  5 12:52:14 2010


@<TRIPOS>MOLECULE
frag3-195-6/31924
   20    19     1     1     1
SMALL
USER_CHARGES


@<TRIPOS>ATOM
      1 S1          2.9835   -4.0589   -7.7614 S.3        1 <1>        0.000
      2 S2          4.6123   -3.9515   -6.5638 S.3        1 <1>        0.000
      3 C1          5.0385   -2.2306   -6.7471 C.2        1 <1>        0.000
      4 C2          4.6981   -1.3625   -5.7834 C.2        1 <1>        0.000
      5 N1          4.9617   -0.0341   -5.7267 N.am       1 <1>        0.000
      6 C9          5.8532    0.6778   -6.4557 C.2        1 <1>        0.000
      7 O1          6.7143    0.2076   -7.1821 O.2        1 <1>        0.000
      8 C20         1.6928   -3.6395   -6.6064 C.2        1 <1>        0.000
      9 C21         1.3507   -2.3533   -6.4494 C.2        1 <1>        0.000
     10 N5          0.3862   -1.8415   -5.6490 N.am       1 <1>        0.000
     11 C28         0.0411   -0.5469   -5.4505 C.2        1 <1>        0.000
     12 O4          0.6821    0.4234   -5.8213 O.2        1 <1>        0.000
     13 H           5.5708   -1.8871   -7.6341 H.spc      1 <1>        0.000
     14 H           4.1411   -1.7758   -4.9425 H.spc      1 <1>        0.000
     15 H           4.4182    0.4979   -5.0470 H.spc      1 <1>        0.000
     16 H           5.7973    1.7643   -6.3882 H.spc      1 <1>        0.000
     17 H           1.1883   -4.4188   -6.0352 H.spc      1 <1>        0.000
     18 H           1.9178   -1.6317   -7.0375 H.spc      1 <1>        0.000
     19 H          -0.1561   -2.5261   -5.1221 H.spc      1 <1>        0.000
     20 H          -0.8881   -0.3552   -4.9140 H.spc      1 <1>        0.000
@<TRIPOS>BOND
     1    6    7 2  
     2   10   11 am 
     3    9   10 1  
     4    8    9 2  
     5    5    6 am 
     6    4    5 1  
     7    1    2 1  
     8    1    8 1  
     9    2    3 1  
    10    3    4 2  
    11   11   12 2  
    12    3   13 1  
    13    4   14 1  
    14    5   15 1  
    15    6   16 1  
    16    8   17 1  
    17    9   18 1  
    18   10   19 1  
    19   11   20 1  
# Name:          frag3-195-6/31924
# Creation time: Sat Jun  5 12:52:14 2010


@<TRIPOS>MOLECULE
frag3-195-6/31924
   20    19     1     1     1
SMALL
USER_CHARGES


@<TRIPOS>ATOM
      1 S1          2.8445   -2.3904   -6.9853 S.3        1 <1>        0.000
      2 S2          4.1897   -2.3431   -5.4723 S.3        1 <1>        0.000
      3 C1          5.5304   -1.4652   -6.2591 C.2        1 <1>        0.000
      4 C2          6.7923   -1.8357   -6.0013 C.2        1 <1>        0.000
      5 N1          7.9329   -1.3224   -6.5273 N.am       1 <1>        0.000
      6 C9          8.0774   -0.2413   -7.3293 C.2        1 <1>        0.000
      7 O1          7.1763    0.4928   -7.7008 O.2        1 <1>        0.000
      8 C20         1.5217   -1.4194   -6.2828 C.2        1 <1>        0.000
      9 C21         0.2994   -1.9606   -6.1948 C.2        1 <1>        0.000
     10 N5         -0.8170   -1.4022   -5.6674 N.am       1 <1>        0.000
     11 C28        -2.0742   -1.9036   -5.6097 C.2        1 <1>        0.000
     12 O4         -2.4590   -2.9188   -6.1667 O.2        1 <1>        0.000
     13 H           5.3254   -0.6390   -6.9399 H.spc      1 <1>        0.000
     14 H           6.9173   -2.6462   -5.2833 H.spc      1 <1>        0.000
     15 H           8.7932   -1.8150   -6.2873 H.spc      1 <1>        0.000
     16 H           9.0850   -0.0065   -7.6725 H.spc      1 <1>        0.000
     17 H           1.7052   -0.4040   -5.9316 H.spc      1 <1>        0.000
     18 H           0.1900   -2.9688   -6.5945 H.spc      1 <1>        0.000
     19 H          -0.6937   -0.4765   -5.2572 H.spc      1 <1>        0.000
     20 H          -2.8038   -1.3536   -5.0154 H.spc      1 <1>        0.000
@<TRIPOS>BOND
     1    6    7 2  
     2   10   11 am 
     3    9   10 1  
     4    8    9 2  
     5    5    6 am 
     6    4    5 1  
     7    1    2 1  
     8    1    8 1  
     9    2    3 1  
    10    3    4 2  
    11   11   12 2  
    12    3   13 1  
    13    4   14 1  
    14    5   15 1  
    15    6   16 1  
    16    8   17 1  
    17    9   18 1  
    18   10   19 1  
    19   11   20 1  
# Name:          frag3-195-6/31924
# Creation time: Sat Jun  5 12:52:14 2010


@<TRIPOS>MOLECULE
frag3-195-6/31924
   20    19     1     1     1
SMALL
USER_CHARGES


@<TRIPOS>ATOM
      1 S1          3.2242   -2.0305   -6.6788 S.3        1 <1>        0.000
      2 S2          4.3648   -3.0103   -5.3182 S.3        1 <1>        0.000
      3 C1          5.7191   -1.8538   -5.1484 C.2        1 <1>        0.000
      4 C2          6.3233   -1.4003   -6.2570 C.2        1 <1>        0.000
      5 N1          7.3346   -0.4979   -6.3380 N.am       1 <1>        0.000
      6 C9          7.9057    0.0326   -7.4446 C.2        1 <1>        0.000
      7 O1          7.5006   -0.1040   -8.5870 O.2        1 <1>        0.000
      8 C20         1.7064   -1.8348   -5.7536 C.2        1 <1>        0.000
      9 C21         0.5397   -2.0000   -6.3915 C.2        1 <1>        0.000
     10 N5         -0.7063   -1.9259   -5.8632 N.am       1 <1>        0.000
     11 C28        -1.9039   -2.0702   -6.4803 C.2        1 <1>        0.000
     12 O4         -2.9939   -2.0147   -5.9364 O.2        1 <1>        0.000
     13 H           6.0472   -1.5238   -4.1627 H.spc      1 <1>        0.000
     14 H           5.9602   -1.8030   -7.2025 H.spc      1 <1>        0.000
     15 H           7.7141   -0.1774   -5.4471 H.spc      1 <1>        0.000
     16 H           8.8042    0.6331   -7.3028 H.spc      1 <1>        0.000
     17 H           1.7299   -1.5862   -4.6926 H.spc      1 <1>        0.000
     18 H           0.5995   -2.2191   -7.4576 H.spc      1 <1>        0.000
     19 H          -0.7482   -1.7350   -4.8621 H.spc      1 <1>        0.000
     20 H          -1.8920   -2.2514   -7.5551 H.spc      1 <1>        0.000
@<TRIPOS>BOND
     1    6    7 2  
     2   10   11 am 
     3    9   10 1  
     4    8    9 2  
     5    5    6 am 
     6    4    5 1  
     7    1    2 1  
     8    1    8 1  
     9    2    3 1  
    10    3    4 2  
    11   11   12 2  
    12    3   13 1  
    13    4   14 1  
    14    5   15 1  
    15    6   16 1  
    16    8   17 1  
    17    9   18 1  
    18   10   19 1  
    19   11   20 1  
# Name:          frag3-195-6/31924
# Creation time: Sat Jun  5 12:52:14 2010


@<TRIPOS>MOLECULE
frag3-195-6/31924
   20    19     1     1     1
SMALL
USER_CHARGES


@<TRIPOS>ATOM
      1 S1          3.5444   -0.8891   -5.2366 S.3        1 <1>        0.000
      2 S2          2.7246   -0.6020   -7.0691 S.3        1 <1>        0.000
      3 C1          1.6115   -2.0011   -7.1404 C.2        1 <1>        0.000
      4 C2          0.4821   -1.9652   -6.4179 C.2        1 <1>        0.000
      5 N1         -0.4983   -2.9032   -6.3675 N.am       1 <1>        0.000
      6 C9         -1.6805   -2.8540   -5.7102 C.2        1 <1>        0.000
      7 O1         -2.0408   -1.9584   -4.9645 O.2        1 <1>        0.000
      8 C20         5.0136   -1.8088   -5.6782 C.2        1 <1>        0.000
      9 C21         6.0539   -1.1432   -6.1997 C.2        1 <1>        0.000
     10 N5          7.2562   -1.6510   -6.5678 N.am       1 <1>        0.000
     11 C28         8.2891   -1.0290   -7.1860 C.2        1 <1>        0.000
     12 O4          8.2587    0.0951   -7.6589 O.2        1 <1>        0.000
     13 H           1.8470   -2.8667   -7.7596 H.spc      1 <1>        0.000
     14 H           0.3341   -1.0801   -5.7992 H.spc      1 <1>        0.000
     15 H          -0.3204   -3.7580   -6.8947 H.spc      1 <1>        0.000
     16 H          -2.3692   -3.6855   -5.8600 H.spc      1 <1>        0.000
     17 H           5.0620   -2.8871   -5.5266 H.spc      1 <1>        0.000
     18 H           5.9178   -0.0715   -6.3444 H.spc      1 <1>        0.000
     19 H           7.4032   -2.6364   -6.3493 H.spc      1 <1>        0.000
     20 H           9.2263   -1.5795   -7.2677 H.spc      1 <1>        0.000
@<TRIPOS>BOND
     1    6    7 2  
     2   10   11 am 
     3    9   10 1  
     4    8    9 2  
     5    5    6 am 
     6    4    5 1  
     7    1    2 1  
     8    1    8 1  
     9    2    3 1  
    10    3    4 2  
    11   11   12 2  
    12    3   13 1  
    13    4   14 1  
    14    5   15 1  
    15    6   16 1  
    16    8   17 1  
    17    9   18 1  
    18   10   19 1  
    19   11   20 1  
# Name:          frag3-195-6/31924
# Creation time: Sat Jun  5 12:52:14 2010


@<TRIPOS>MOLECULE
frag3-195-6/31924
   20    19     1     1     1
SMALL
USER_CHARGES


@<TRIPOS>ATOM
      1 S1          3.2849   -4.4778   -5.9815 S.3        1 <1>        0.000
      2 S2          4.6250   -4.2728   -7.4879 S.3        1 <1>        0.000
      3 C1          5.5997   -2.9113   -6.8639 C.2        1 <1>        0.000
      4 C2          5.0452   -1.6918   -6.7959 C.2        1 <1>        0.000
      5 N1          5.6035   -0.5510   -6.3189 N.am       1 <1>        0.000
      6 C9          5.0367    0.6689   -6.1700 C.2        1 <1>        0.000
      7 O1          3.9105    0.9764   -6.5246 O.2        1 <1>        0.000
      8 C20         2.1995   -3.0991   -6.3157 C.2        1 <1>        0.000
      9 C21         1.9694   -2.2058   -5.3438 C.2        1 <1>        0.000
     10 N5          1.2097   -1.0875   -5.4137 N.am       1 <1>        0.000
     11 C28         0.5961   -0.5410   -6.4914 C.2        1 <1>        0.000
     12 O4         -0.0657    0.4830   -6.4897 O.2        1 <1>        0.000
     13 H           6.6294   -3.0694   -6.5433 H.spc      1 <1>        0.000
     14 H           4.0243   -1.6073   -7.1683 H.spc      1 <1>        0.000
     15 H           6.5805   -0.6222   -6.0347 H.spc      1 <1>        0.000
     16 H           5.6377    1.4428   -5.6925 H.spc      1 <1>        0.000
     17 H           1.7321   -2.9863   -7.2939 H.spc      1 <1>        0.000
     18 H           2.4498   -2.4025   -4.3854 H.spc      1 <1>        0.000
     19 H           1.0814   -0.5873   -4.5341 H.spc      1 <1>        0.000
     20 H           0.7036   -1.0623   -7.4426 H.spc      1 <1>        0.000
@<TRIPOS>BOND
     1    6    7 2  
     2   10   11 am 
     3    9   10 1  
     4    8    9 2  
     5    5    6 am 
     6    4    5 1  
     7    1    2 1  
     8    1    8 1  
     9    2    3 1  
    10    3    4 2  
    11   11   12 2  
    12    3   13 1  
    13    4   14 1  
    14    5   15 1  
    15    6   16 1  
    16    8   17 1  
    17    9   18 1  
    18   10   19 1  
    19   11   20 1  
# Name:          frag3-195-6/31924
# Creation time: Sat Jun  5 12:52:14 2010


@<TRIPOS>MOLECULE
frag3-195-6/31924
   20    19     1     1     1
SMALL
USER_CHARGES


@<TRIPOS>ATOM
      1 S1          3.9662   -3.9033   -6.5682 S.3        1 <1>        0.000
      2 S2          2.8946   -3.6959   -4.8638 S.3        1 <1>        0.000
      3 C1          1.4977   -2.7750   -5.4664 C.2        1 <1>        0.000
      4 C2          1.6517   -1.4843   -5.8018 C.2        1 <1>        0.000
      5 N1          0.7280   -0.6367   -6.3139 N.am       1 <1>        0.000
      6 C9         -0.5961   -0.8502   -6.4991 C.2        1 <1>        0.000
      7 O1         -1.2020   -1.8666   -6.1979 O.2        1 <1>        0.000
      8 C20         5.0815   -2.5248   -6.4384 C.2        1 <1>        0.000
      9 C21         5.0272   -1.5448   -7.3499 C.2        1 <1>        0.000
     10 N5          5.7622   -0.4135   -7.3985 N.am       1 <1>        0.000
     11 C28         6.7870   -0.0269   -6.6004 C.2        1 <1>        0.000
     12 O4          7.4166    1.0121   -6.6986 O.2        1 <1>        0.000
     13 H           0.5238   -3.2549   -5.5627 H.spc      1 <1>        0.000
     14 H           2.6454   -1.0658   -5.6418 H.spc      1 <1>        0.000
     15 H           1.0742    0.2802   -6.5963 H.spc      1 <1>        0.000
     16 H          -1.1710   -0.0451   -6.9567 H.spc      1 <1>        0.000
     17 H           5.8038   -2.4775   -5.6235 H.spc      1 <1>        0.000
     18 H           4.3000   -1.6770   -8.1510 H.spc      1 <1>        0.000
     19 H           5.5113    0.2415   -8.1390 H.spc      1 <1>        0.000
     20 H           7.0742   -0.7066   -5.7981 H.spc      1 <1>        0.000
@<TRIPOS>BOND
     1    6    7 2  
     2   10   11 am 
     3    9   10 1  
     4    8    9 2  
     5    5    6 am 
     6    4    5 1  
     7    1    2 1  
     8    1    8 1  
     9    2    3 1  
    10    3    4 2  
    11   11   12 2  
    12    3   13 1  
    13    4   14 1  
    14    5   15 1  
    15    6   16 1  
    16    8   17 1  
    17    9   18 1  
    18   10   19 1  
    19   11   20 1  
# Name:          frag3-195-6/31924
# Creation time: Sat Jun  5 12:52:14 2010


@<TRIPOS>MOLECULE
frag3-195-6/31924
   20    19     1     1     1
SMALL
USER_CHARGES


@<TRIPOS>ATOM
      1 S1          4.3792   -4.2085   -6.0848 S.3        1 <1>        0.000
      2 S2          2.8128   -4.4101   -7.3507 S.3        1 <1>        0.000
      3 C1          1.6646   -3.2533   -6.6292 C.2        1 <1>        0.000
      4 C2          1.8249   -1.9403   -6.8557 C.2        1 <1>        0.000
      5 N1          1.0455   -0.9213   -6.4265 N.am       1 <1>        0.000
      6 C9         -0.0289   -0.9664   -5.6039 C.2        1 <1>        0.000
      7 O1         -0.5794   -0.0058   -5.0945 O.2        1 <1>        0.000
      8 C20         5.0028   -2.6130   -6.5755 C.2        1 <1>        0.000
      9 C21         5.0144   -1.6125   -5.6845 C.2        1 <1>        0.000
     10 N5          5.4699   -0.3523   -5.8596 N.am       1 <1>        0.000
     11 C28         6.0466    0.2015   -6.9537 C.2        1 <1>        0.000
     12 O4          6.3623    1.3722   -7.0783 O.2        1 <1>        0.000
     13 H           0.8407   -3.6087   -6.0104 H.spc      1 <1>        0.000
     14 H           2.6885   -1.6608   -7.4592 H.spc      1 <1>        0.000
     15 H           1.3015    0.0050   -6.7684 H.spc      1 <1>        0.000
     16 H          -0.4385   -1.9506   -5.3767 H.spc      1 <1>        0.000
     17 H           5.3706   -2.4528   -7.5890 H.spc      1 <1>        0.000
     18 H           4.6075   -1.8427   -4.6999 H.spc      1 <1>        0.000
     19 H           5.3651    0.2681   -5.0568 H.spc      1 <1>        0.000
     20 H           6.2460   -0.4589   -7.7977 H.spc      1 <1>        0.000
@<TRIPOS>BOND
     1    6    7 2  
     2   10   11 am 
     3    9   10 1  
     4    8    9 2  
     5    5    6 am 
     6    4    5 1  
     7    1    2 1  
     8    1    8 1  
     9    2    3 1  
    10    3    4 2  
    11   11   12 2  
    12    3   13 1  
    13    4   14 1  
    14    5   15 1  
    15    6   16 1  
    16    8   17 1  
    17    9   18 1  
    18   10   19 1  
    19   11   20 1  
# Name:          frag3-195-6/31924
# Creation time: Sat Jun  5 12:52:14 2010


@<TRIPOS>MOLECULE
frag3-195-6/31924
   20    19     1     1     1
SMALL
USER_CHARGES


@<TRIPOS>ATOM
      1 S1          3.7784   -2.9740   -5.7896 S.3        1 <1>        0.000
      2 S2          3.0210   -1.4693   -4.6633 S.3        1 <1>        0.000
      3 C1          1.6887   -0.9223   -5.7109 C.2        1 <1>        0.000
      4 C2          0.5770   -1.6680   -5.7978 C.2        1 <1>        0.000
      5 N1         -0.5490   -1.4096   -6.5060 N.am       1 <1>        0.000
      6 C9         -1.6358   -2.1957   -6.6841 C.2        1 <1>        0.000
      7 O1         -1.8248   -3.2782   -6.1529 O.2        1 <1>        0.000
      8 C20         5.0634   -2.1112   -6.6691 C.2        1 <1>        0.000
      9 C21         5.9634   -1.4009   -5.9706 C.2        1 <1>        0.000
     10 N5          7.0201   -0.7069   -6.4463 N.am       1 <1>        0.000
     11 C28         7.4748   -0.6124   -7.7194 C.2        1 <1>        0.000
     12 O4          8.4373    0.0388   -8.0870 O.2        1 <1>        0.000
     13 H           1.7755    0.0067   -6.2744 H.spc      1 <1>        0.000
     14 H           0.5798   -2.5972   -5.2280 H.spc      1 <1>        0.000
     15 H          -0.5817   -0.5002   -6.9668 H.spc      1 <1>        0.000
     16 H          -2.4091   -1.8308   -7.3601 H.spc      1 <1>        0.000
     17 H           5.1186   -2.1588   -7.7567 H.spc      1 <1>        0.000
     18 H           5.8247   -1.3820   -4.8896 H.spc      1 <1>        0.000
     19 H           7.5492   -0.1810   -5.7507 H.spc      1 <1>        0.000
     20 H           6.9311   -1.1686   -8.4830 H.spc      1 <1>        0.000
@<TRIPOS>BOND
     1    6    7 2  
     2   10   11 am 
     3    9   10 1  
     4    8    9 2  
     5    5    6 am 
     6    4    5 1  
     7    1    2 1  
     8    1    8 1  
     9    2    3 1  
    10    3    4 2  
    11   11   12 2  
    12    3   13 1  
    13    4   14 1  
    14    5   15 1  
    15    6   16 1  
    16    8   17 1  
    17    9   18 1  
    18   10   19 1  
    19   11   20 1  
# Name:          frag3-195-6/31924
# Creation time: Sat Jun  5 12:52:14 2010


@<TRIPOS>MOLECULE
frag3-195-6/31924
   20    19     1     1     1
SMALL
USER_CHARGES


@<TRIPOS>ATOM
      1 S1          3.0890   -4.3624   -5.7268 S.3        1 <1>        0.000
      2 S2          3.6671   -3.6796   -7.5453 S.3        1 <1>        0.000
      3 C1          4.8784   -2.4603   -7.0575 C.2        1 <1>        0.000
      4 C2          4.6656   -1.1716   -7.3594 C.2        1 <1>        0.000
      5 N1          5.4418   -0.1067   -7.0429 N.am       1 <1>        0.000
      6 C9          6.5892   -0.0812   -6.3247 C.2        1 <1>        0.000
      7 O1          7.3498    0.8667   -6.2307 O.2        1 <1>        0.000
      8 C20         2.3883   -2.8755   -5.0277 C.2        1 <1>        0.000
      9 C21         1.3753   -2.2764   -5.6705 C.2        1 <1>        0.000
     10 N5          0.6957   -1.1672   -5.2919 N.am       1 <1>        0.000
     11 C28        -0.3292   -0.5409   -5.9184 C.2        1 <1>        0.000
     12 O4         -0.7965   -0.8548   -7.0010 O.2        1 <1>        0.000
     13 H           5.7788   -2.7603   -6.5214 H.spc      1 <1>        0.000
     14 H           3.7607   -0.9545   -7.9269 H.spc      1 <1>        0.000
     15 H           5.1186    0.7955   -7.3922 H.spc      1 <1>        0.000
     16 H           6.8564   -0.9884   -5.7827 H.spc      1 <1>        0.000
     17 H           2.7767   -2.4630   -4.0965 H.spc      1 <1>        0.000
     18 H           1.0618   -2.7359   -6.6079 H.spc      1 <1>        0.000
     19 H           0.9975   -0.7453   -4.4136 H.spc      1 <1>        0.000
     20 H          -0.7741    0.3160   -5.4126 H.spc      1 <1>        0.000
@<TRIPOS>BOND
     1    6    7 2  
     2   10   11 am 
     3    9   10 1  
     4    8    9 2  
     5    5    6 am 
     6    4    5 1  
     7    1    2 1  
     8    1    8 1  
     9    2    3 1  
    10    3    4 2  
    11   11   12 2  
    12    3   13 1  
    13    4   14 1  
    14    5   15 1  
    15    6   16 1  
    16    8   17 1  
    17    9   18 1  
    18   10   19 1  
    19   11   20 1  
# Name:          frag3-195-6/31924
# Creation time: Sat Jun  5 12:52:14 2010


@<TRIPOS>MOLECULE
frag3-195-6/31924
   20    19     1     1     1
SMALL
USER_CHARGES


@<TRIPOS>ATOM
      1 S1          3.0611   -3.0305   -6.7207 S.3        1 <1>        0.000
      2 S2          4.6568   -3.2361   -5.4912 S.3        1 <1>        0.000
      3 C1          5.6355   -1.8340   -5.9972 C.2        1 <1>        0.000
      4 C2          6.2601   -1.8703   -7.1846 C.2        1 <1>        0.000
      5 N1          7.0110   -0.8986   -7.7598 N.am       1 <1>        0.000
      6 C9          7.2847    0.3412   -7.2902 C.2        1 <1>        0.000
      7 O1          6.8454    0.8235   -6.2587 O.2        1 <1>        0.000
      8 C20         1.8243   -2.4584   -5.5709 C.2        1 <1>        0.000
      9 C21         0.5793   -2.2381   -6.0098 C.2        1 <1>        0.000
     10 N5         -0.4957   -1.8364   -5.2903 N.am       1 <1>        0.000
     11 C28        -1.6662   -1.3134   -5.7274 C.2        1 <1>        0.000
     12 O4         -1.9819   -1.1588   -6.8961 O.2        1 <1>        0.000
     13 H           5.7252   -0.9603   -5.3517 H.spc      1 <1>        0.000
     14 H           6.1505   -2.7923   -7.7556 H.spc      1 <1>        0.000
     15 H           7.4229   -1.1321   -8.6632 H.spc      1 <1>        0.000
     16 H           7.9551    0.9622   -7.8844 H.spc      1 <1>        0.000
     17 H           2.0788   -2.2903   -4.5244 H.spc      1 <1>        0.000
     18 H           0.4101   -2.4016   -7.0741 H.spc      1 <1>        0.000
     19 H          -0.4122   -1.9424   -4.2793 H.spc      1 <1>        0.000
     20 H          -2.3876   -1.0043   -4.9710 H.spc      1 <1>        0.000
@<TRIPOS>BOND
     1    6    7 2  
     2   10   11 am 
     3    9   10 1  
     4    8    9 2  
     5    5    6 am 
     6    4    5 1  
     7    1    2 1  
     8    1    8 1  
     9    2    3 1  
    10    3    4 2  
    11   11   12 2  
    12    3   13 1  
    13    4   14 1  
    14    5   15 1  
    15    6   16 1  
    16    8   17 1  
    17    9   18 1  
    18   10   19 1  
    19   11   20 1  
# Name:          frag3-195-6/31924
# Creation time: Sat Jun  5 12:52:14 2010


@<TRIPOS>MOLECULE
frag3-195-6/31924
   20    19     1     1     1
SMALL
USER_CHARGES


@<TRIPOS>ATOM
      1 S1          4.2265   -3.3397   -6.0950 S.3        1 <1>        0.000
      2 S2          2.9601   -3.3803   -7.6703 S.3        1 <1>        0.000
      3 C1          1.4305   -2.9570   -6.8730 C.2        1 <1>        0.000
      4 C2          1.2510   -1.7129   -6.4018 C.2        1 <1>        0.000
      5 N1          0.1563   -1.1984   -5.8007 N.am       1 <1>        0.000
      6 C9         -1.0922   -1.7168   -5.7271 C.2        1 <1>        0.000
      7 O1         -2.0616   -1.1813   -5.2187 O.2        1 <1>        0.000
      8 C20         5.1901   -1.8941   -6.4607 C.2        1 <1>        0.000
      9 C21         6.1032   -1.4669   -5.5812 C.2        1 <1>        0.000
     10 N5          6.9472   -0.4162   -5.6955 N.am       1 <1>        0.000
     11 C28         7.2031    0.3485   -6.7846 C.2        1 <1>        0.000
     12 O4          6.7005    0.2052   -7.8884 O.2        1 <1>        0.000
     13 H           0.6426   -3.7027   -6.7670 H.spc      1 <1>        0.000
     14 H           2.0945   -1.0325   -6.5190 H.spc      1 <1>        0.000
     15 H           0.2880   -0.2979   -5.3401 H.spc      1 <1>        0.000
     16 H          -1.2443   -2.7043   -6.1628 H.spc      1 <1>        0.000
     17 H           5.0385   -1.3573   -7.3972 H.spc      1 <1>        0.000
     18 H           6.1762   -2.0377   -4.6555 H.spc      1 <1>        0.000
     19 H           7.4591   -0.1662   -4.8495 H.spc      1 <1>        0.000
     20 H           7.9192    1.1615   -6.6652 H.spc      1 <1>        0.000
@<TRIPOS>BOND
     1    6    7 2  
     2   10   11 am 
     3    9   10 1  
     4    8    9 2  
     5    5    6 am 
     6    4    5 1  
     7    1    2 1  
     8    1    8 1  
     9    2    3 1  
    10    3    4 2  
    11   11   12 2  
    12    3   13 1  
    13    4   14 1  
    14    5   15 1  
    15    6   16 1  
    16    8   17 1  
    17    9   18 1  
    18   10   19 1  
    19   11   20 1  
# Name:          frag3-195-6/31924
# Creation time: Sat Jun  5 12:52:14 2010


@<TRIPOS>MOLECULE
frag3-195-6/31924
   20    19     1     1     1
SMALL
USER_CHARGES


@<TRIPOS>ATOM
      1 S1          2.9315   -1.1023   -4.8616 S.3        1 <1>        0.000
      2 S2          4.2891   -2.5340   -5.3004 S.3        1 <1>        0.000
      3 C1          5.5677   -1.5582   -6.0623 C.2        1 <1>        0.000
      4 C2          6.6333   -2.1675   -6.5972 C.2        1 <1>        0.000
      5 N1          7.6808   -1.6026   -7.2458 N.am       1 <1>        0.000
      6 C9          7.7765   -0.3534   -7.7590 C.2        1 <1>        0.000
      7 O1          6.9160    0.5100   -7.6941 O.2        1 <1>        0.000
      8 C20         1.4526   -1.8107   -5.5520 C.2        1 <1>        0.000
      9 C21         0.2954   -1.1469   -5.4433 C.2        1 <1>        0.000
     10 N5         -0.9154   -1.5066   -5.9241 N.am       1 <1>        0.000
     11 C28        -1.2535   -2.5981   -6.6525 C.2        1 <1>        0.000
     12 O4         -2.3595   -2.8396   -7.1046 O.2        1 <1>        0.000
     13 H           5.4839   -0.4719   -6.0933 H.spc      1 <1>        0.000
     14 H           6.6619   -3.2527   -6.4988 H.spc      1 <1>        0.000
     15 H           8.5030   -2.1949   -7.3623 H.spc      1 <1>        0.000
     16 H           8.7018   -0.0965   -8.2746 H.spc      1 <1>        0.000
     17 H           1.4886   -2.7753   -6.0583 H.spc      1 <1>        0.000
     18 H           0.3342   -0.2019   -4.9015 H.spc      1 <1>        0.000
     19 H          -1.6809   -0.8678   -5.7088 H.spc      1 <1>        0.000
     20 H          -0.4662   -3.3251   -6.8520 H.spc      1 <1>        0.000
@<TRIPOS>BOND
     1    6    7 2  
     2   10   11 am 
     3    9   10 1  
     4    8    9 2  
     5    5    6 am 
     6    4    5 1  
     7    1    2 1  
     8    1    8 1  
     9    2    3 1  
    10    3    4 2  
    11   11   12 2  
    12    3   13 1  
    13    4   14 1  
    14    5   15 1  
    15    6   16 1  
    16    8   17 1  
    17    9   18 1  
    18   10   19 1  
    19   11   20 1  
# Name:          frag3-195-6/31924
# Creation time: Sat Jun  5 12:52:14 2010


@<TRIPOS>MOLECULE
frag3-195-6/31924
   20    19     1     1     1
SMALL
USER_CHARGES


@<TRIPOS>ATOM
      1 S1          4.9759   -4.0600   -6.0864 S.3        1 <1>        0.000
      2 S2          3.1492   -4.1866   -6.9531 S.3        1 <1>        0.000
      3 C1          2.1614   -3.3157   -5.7464 C.2        1 <1>        0.000
      4 C2          1.4063   -2.2823   -6.1428 C.2        1 <1>        0.000
      5 N1          0.5689   -1.5264   -5.3895 N.am       1 <1>        0.000
      6 C9         -0.1049   -0.4065   -5.7403 C.2        1 <1>        0.000
      7 O1          0.0003    0.1815   -6.8043 O.2        1 <1>        0.000
      8 C20         5.2363   -2.2943   -6.1294 C.2        1 <1>        0.000
      9 C21         5.4901   -1.7076   -7.3084 C.2        1 <1>        0.000
     10 N5          5.6823   -0.3890   -7.5523 N.am       1 <1>        0.000
     11 C28         5.4894    0.6638   -6.7210 C.2        1 <1>        0.000
     12 O4          4.9592    0.6131   -5.6229 O.2        1 <1>        0.000
     13 H           2.1727   -3.6212   -4.7002 H.spc      1 <1>        0.000
     14 H           1.4729   -2.0170   -7.1979 H.spc      1 <1>        0.000
     15 H           0.4283   -1.8446   -4.4307 H.spc      1 <1>        0.000
     16 H          -0.8012    0.0056   -5.0099 H.spc      1 <1>        0.000
     17 H           5.1899   -1.7040   -5.2143 H.spc      1 <1>        0.000
     18 H           5.5486   -2.3698   -8.1722 H.spc      1 <1>        0.000
     19 H           6.0173   -0.1574   -8.4875 H.spc      1 <1>        0.000
     20 H           5.8374    1.6388   -7.0621 H.spc      1 <1>        0.000
@<TRIPOS>BOND
     1    6    7 2  
     2   10   11 am 
     3    9   10 1  
     4    8    9 2  
     5    5    6 am 
     6    4    5 1  
     7    1    2 1  
     8    1    8 1  
     9    2    3 1  
    10    3    4 2  
    11   11   12 2  
    12    3   13 1  
    13    4   14 1  
    14    5   15 1  
    15    6   16 1  
    16    8   17 1  
    17    9   18 1  
    18   10   19 1  
    19   11   20 1  
# Name:          frag3-195-6/31924
# Creation time: Sat Jun  5 12:52:14 2010


@<TRIPOS>MOLECULE
frag3-195-6/31924
   20    19     1     1     1
SMALL
USER_CHARGES


@<TRIPOS>ATOM
      1 S1          4.1872   -3.8997   -6.5862 S.3        1 <1>        0.000
      2 S2          3.2973   -2.9660   -5.0246 S.3        1 <1>        0.000
      3 C1          1.7260   -2.5369   -5.7500 C.2        1 <1>        0.000
      4 C2          0.8265   -1.8674   -5.0175 C.2        1 <1>        0.000
      5 N1         -0.3950   -1.4261   -5.4019 N.am       1 <1>        0.000
      6 C9         -0.9885   -1.5303   -6.6143 C.2        1 <1>        0.000
      7 O1         -1.9755   -0.9158   -6.9803 O.2        1 <1>        0.000
      8 C20         5.7097   -2.9792   -6.6986 C.2        1 <1>        0.000
      9 C21         5.6535   -1.6603   -6.9357 C.2        1 <1>        0.000
     10 N5          6.6845   -0.7890   -7.0220 N.am       1 <1>        0.000
     11 C28         6.6586    0.5628   -7.1051 C.2        1 <1>        0.000
     12 O4          7.6303    1.2979   -7.0608 O.2        1 <1>        0.000
     13 H           1.4998   -2.8166   -6.7789 H.spc      1 <1>        0.000
     14 H           1.1119   -1.6517   -3.9879 H.spc      1 <1>        0.000
     15 H          -0.9404   -0.9521   -4.6820 H.spc      1 <1>        0.000
     16 H          -0.5441   -2.2256   -7.3265 H.spc      1 <1>        0.000
     17 H           6.6702   -3.4799   -6.5767 H.spc      1 <1>        0.000
     18 H           4.6575   -1.2402   -7.0756 H.spc      1 <1>        0.000
     19 H           7.6137   -1.2097   -7.0249 H.spc      1 <1>        0.000
     20 H           5.6831    1.0350   -7.2219 H.spc      1 <1>        0.000
@<TRIPOS>BOND
     1    6    7 2  
     2   10   11 am 
     3    9   10 1  
     4    8    9 2  
     5    5    6 am 
     6    4    5 1  
     7    1    2 1  
     8    1    8 1  
     9    2    3 1  
    10    3    4 2  
    11   11   12 2  
    12    3   13 1  
    13    4   14 1  
    14    5   15 1  
    15    6   16 1  
    16    8   17 1  
    17    9   18 1  
    18   10   19 1  
    19   11   20 1  
# Name:          frag3-195-6/31924
# Creation time: Sat Jun  5 12:52:14 2010


@<TRIPOS>MOLECULE
frag3-195-6/31924
   20    19     1     1     1
SMALL
USER_CHARGES


@<TRIPOS>ATOM
      1 S1          3.2819   -3.7543   -5.6782 S.3        1 <1>        0.000
      2 S2          3.9928   -3.4719   -7.5532 S.3        1 <1>        0.000
      3 C1          5.3266   -2.3406   -7.2249 C.2        1 <1>        0.000
      4 C2          5.0474   -1.0718   -6.8876 C.2        1 <1>        0.000
      5 N1          5.9141   -0.0861   -6.5642 N.am       1 <1>        0.000
      6 C9          7.2617   -0.0674   -6.6933 C.2        1 <1>        0.000
      7 O1          7.9982    0.8500   -6.3755 O.2        1 <1>        0.000
      8 C20         1.9660   -2.5580   -5.6341 C.2        1 <1>        0.000
      9 C21         0.7367   -2.9267   -6.0226 C.2        1 <1>        0.000
     10 N5         -0.3878   -2.1790   -6.0368 N.am       1 <1>        0.000
     11 C28        -0.5325   -0.8514   -5.8073 C.2        1 <1>        0.000
     12 O4         -1.5905   -0.2527   -5.7192 O.2        1 <1>        0.000
     13 H           6.3615   -2.6752   -7.2971 H.spc      1 <1>        0.000
     14 H           3.9912   -0.8030   -6.8726 H.spc      1 <1>        0.000
     15 H           5.4967    0.7569   -6.1699 H.spc      1 <1>        0.000
     16 H           7.7307   -0.9538   -7.1205 H.spc      1 <1>        0.000
     17 H           2.1564   -1.5394   -5.2960 H.spc      1 <1>        0.000
     18 H           0.6324   -3.9549   -6.3691 H.spc      1 <1>        0.000
     19 H          -1.2480   -2.6839   -6.2500 H.spc      1 <1>        0.000
     20 H           0.3796   -0.2660   -5.6910 H.spc      1 <1>        0.000
@<TRIPOS>BOND
     1    6    7 2  
     2   10   11 am 
     3    9   10 1  
     4    8    9 2  
     5    5    6 am 
     6    4    5 1  
     7    1    2 1  
     8    1    8 1  
     9    2    3 1  
    10    3    4 2  
    11   11   12 2  
    12    3   13 1  
    13    4   14 1  
    14    5   15 1  
    15    6   16 1  
    16    8   17 1  
    17    9   18 1  
    18   10   19 1  
    19   11   20 1  
# Name:          frag3-195-6/31924
# Creation time: Sat Jun  5 12:52:14 2010


@<TRIPOS>MOLECULE
frag3-195-6/31924
   20    19     1     1     1
SMALL
USER_CHARGES


@<TRIPOS>ATOM
      1 S1          4.7405   -4.2753   -5.7902 S.3        1 <1>        0.000
      2 S2          3.4548   -4.1199   -7.3488 S.3        1 <1>        0.000
      3 C1          2.0113   -3.4827   -6.5166 C.2        1 <1>        0.000
      4 C2          1.7315   -2.1745   -6.5990 C.2        1 <1>        0.000
      5 N1          0.6738   -1.5141   -6.0707 N.am       1 <1>        0.000
      6 C9          0.4376   -0.1821   -6.0298 C.2        1 <1>        0.000
      7 O1         -0.5110    0.3577   -5.4865 O.2        1 <1>        0.000
      8 C20         5.8067   -2.8800   -6.1010 C.2        1 <1>        0.000
      9 C21         5.2550   -1.6713   -6.2848 C.2        1 <1>        0.000
     10 N5          5.8893   -0.4951   -6.5041 N.am       1 <1>        0.000
     11 C28         5.3584    0.7332   -6.7146 C.2        1 <1>        0.000
     12 O4          4.1667    0.9943   -6.7507 O.2        1 <1>        0.000
     13 H           1.3640   -4.1499   -5.9474 H.spc      1 <1>        0.000
     14 H           2.4424   -1.5678   -7.1600 H.spc      1 <1>        0.000
     15 H          -0.0435   -2.1013   -5.6451 H.spc      1 <1>        0.000
     16 H           1.1597    0.4657   -6.5268 H.spc      1 <1>        0.000
     17 H           6.8885   -3.0073   -6.1409 H.spc      1 <1>        0.000
     18 H           4.1662   -1.6310   -6.2540 H.spc      1 <1>        0.000
     19 H           6.9083   -0.5404   -6.5118 H.spc      1 <1>        0.000
     20 H           6.0546    1.5584   -6.8645 H.spc      1 <1>        0.000
@<TRIPOS>BOND
     1    6    7 2  
     2   10   11 am 
     3    9   10 1  
     4    8    9 2  
     5    5    6 am 
     6    4    5 1  
     7    1    2 1  
     8    1    8 1  
     9    2    3 1  
    10    3    4 2  
    11   11   12 2  
    12    3   13 1  
    13    4   14 1  
    14    5   15 1  
    15    6   16 1  
    16    8   17 1  
    17    9   18 1  
    18   10   19 1  
    19   11   20 1  
# Name:          frag3-195-6/31924
# Creation time: Sat Jun  5 12:52:14 2010


@<TRIPOS>MOLECULE
frag3-195-6/31924
   20    19     1     1     1
SMALL
USER_CHARGES


@<TRIPOS>ATOM
      1 S1          3.4313   -3.8421   -5.8993 S.3        1 <1>        0.000
      2 S2          3.9881   -3.1895   -7.7356 S.3        1 <1>        0.000
      3 C1          4.9421   -1.7504   -7.2843 C.2        1 <1>        0.000
      4 C2          6.0129   -1.9019   -6.4891 C.2        1 <1>        0.000
      5 N1          6.8773   -0.9466   -6.0667 N.am       1 <1>        0.000
      6 C9          6.8816    0.3742   -6.3640 C.2        1 <1>        0.000
      7 O1          6.1698    0.9185   -7.1926 O.2        1 <1>        0.000
      8 C20         2.3525   -2.5136   -5.3941 C.2        1 <1>        0.000
      9 C21         1.1171   -2.4516   -5.9112 C.2        1 <1>        0.000
     10 N5          0.1484   -1.5480   -5.6383 N.am       1 <1>        0.000
     11 C28        -1.0368   -1.3478   -6.2628 C.2        1 <1>        0.000
     12 O4         -1.8699   -0.5110   -5.9590 O.2        1 <1>        0.000
     13 H           4.6594   -0.7629   -7.6490 H.spc      1 <1>        0.000
     14 H           6.2115   -2.9155   -6.1409 H.spc      1 <1>        0.000
     15 H           7.6205   -1.2641   -5.4444 H.spc      1 <1>        0.000
     16 H           7.5809    1.0058   -5.8162 H.spc      1 <1>        0.000
     17 H           2.6920   -1.7656   -4.6776 H.spc      1 <1>        0.000
     18 H           0.8628   -3.2221   -6.6391 H.spc      1 <1>        0.000
     19 H           0.3373   -0.9291   -4.8498 H.spc      1 <1>        0.000
     20 H          -1.2660   -1.9917   -7.1119 H.spc      1 <1>        0.000
@<TRIPOS>BOND
     1    6    7 2  
     2   10   11 am 
     3    9   10 1  
     4    8    9 2  
     5    5    6 am 
     6    4    5 1  
     7    1    2 1  
     8    1    8 1  
     9    2    3 1  
    10    3    4 2  
    11   11   12 2  
    12    3   13 1  
    13    4   14 1  
    14    5   15 1  
    15    6   16 1  
    16    8   17 1  
    17    9   18 1  
    18   10   19 1  
    19   11   20 1  
# Name:          frag3-195-6/31924
# Creation time: Sat Jun  5 12:52:14 2010


@<TRIPOS>MOLECULE
frag3-195-6/31924
   20    19     1     1     1
SMALL
USER_CHARGES


@<TRIPOS>ATOM
      1 S1          4.2133   -4.1534   -5.7863 S.3        1 <1>        0.000
      2 S2          2.5225   -4.4210   -6.8667 S.3        1 <1>        0.000
      3 C1          1.5918   -2.9820   -6.3669 C.2        1 <1>        0.000
      4 C2          1.5372   -1.9211   -7.1855 C.2        1 <1>        0.000
      5 N1          0.8597   -0.7611   -7.0001 N.am       1 <1>        0.000
      6 C9          0.1824   -0.3490   -5.9027 C.2        1 <1>        0.000
      7 O1          0.2250   -0.8751   -4.8023 O.2        1 <1>        0.000
      8 C20         4.7758   -2.5881   -6.4330 C.2        1 <1>        0.000
      9 C21         5.2223   -1.6550   -5.5822 C.2        1 <1>        0.000
     10 N5          5.7125   -0.4300   -5.8809 N.am       1 <1>        0.000
     11 C28         5.8621    0.1551   -7.0940 C.2        1 <1>        0.000
     12 O4          6.3099    1.2708   -7.2963 O.2        1 <1>        0.000
     13 H           1.0741   -2.9658   -5.4078 H.spc      1 <1>        0.000
     14 H           2.1062   -2.0009   -8.1118 H.spc      1 <1>        0.000
     15 H           0.8605   -0.1154   -7.7897 H.spc      1 <1>        0.000
     16 H          -0.4558    0.5280   -6.0113 H.spc      1 <1>        0.000
     17 H           4.7563   -2.3941   -7.5054 H.spc      1 <1>        0.000
     18 H           5.1865   -1.9132   -4.5238 H.spc      1 <1>        0.000
     19 H           6.0107    0.1307   -5.0827 H.spc      1 <1>        0.000
     20 H           5.5550   -0.4227   -7.9657 H.spc      1 <1>        0.000
@<TRIPOS>BOND
     1    6    7 2  
     2   10   11 am 
     3    9   10 1  
     4    8    9 2  
     5    5    6 am 
     6    4    5 1  
     7    1    2 1  
     8    1    8 1  
     9    2    3 1  
    10    3    4 2  
    11   11   12 2  
    12    3   13 1  
    13    4   14 1  
    14    5   15 1  
    15    6   16 1  
    16    8   17 1  
    17    9   18 1  
    18   10   19 1  
    19   11   20 1  
# Name:          frag3-195-6/31924
# Creation time: Sat Jun  5 12:52:14 2010


@<TRIPOS>MOLECULE
frag3-195-6/31924
   20    19     1     1     1
SMALL
USER_CHARGES


@<TRIPOS>ATOM
      1 S1          2.4232   -0.9785   -6.7640 S.3        1 <1>        0.000
      2 S2          3.9931   -1.2072   -5.5021 S.3        1 <1>        0.000
      3 C1          5.2696   -1.6788   -6.6647 C.2        1 <1>        0.000
      4 C2          6.4902   -1.1395   -6.5379 C.2        1 <1>        0.000
      5 N1          7.5903   -1.3962   -7.2916 N.am       1 <1>        0.000
      6 C9          8.7802   -0.7510   -7.2951 C.2        1 <1>        0.000
      7 O1          9.0042    0.3268   -6.7698 O.2        1 <1>        0.000
      8 C20         1.3688   -2.3176   -6.2197 C.2        1 <1>        0.000
      9 C21         0.0626   -2.0749   -6.0450 C.2        1 <1>        0.000
     10 N5         -0.8960   -2.9576   -5.6687 N.am       1 <1>        0.000
     11 C28        -2.2277   -2.7555   -5.5217 C.2        1 <1>        0.000
     12 O4         -2.8441   -1.7798   -5.9165 O.2        1 <1>        0.000
     13 H           5.0582   -2.3918   -7.4616 H.spc      1 <1>        0.000
     14 H           6.6141   -0.4105   -5.7371 H.spc      1 <1>        0.000
     15 H           7.5092   -2.1786   -7.9409 H.spc      1 <1>        0.000
     16 H           9.6088   -1.2359   -7.8113 H.spc      1 <1>        0.000
     17 H           1.7802   -3.3098   -6.0341 H.spc      1 <1>        0.000
     18 H          -0.2670   -1.0518   -6.2259 H.spc      1 <1>        0.000
     19 H          -0.5697   -3.9031   -5.4690 H.spc      1 <1>        0.000
     20 H          -2.7962   -3.5302   -5.0072 H.spc      1 <1>        0.000
@<TRIPOS>BOND
     1    6    7 2  
     2   10   11 am 
     3    9   10 1  
     4    8    9 2  
     5    5    6 am 
     6    4    5 1  
     7    1    2 1  
     8    1    8 1  
     9    2    3 1  
    10    3    4 2  
    11   11   12 2  
    12    3   13 1  
    13    4   14 1  
    14    5   15 1  
    15    6   16 1  
    16    8   17 1  
    17    9   18 1  
    18   10   19 1  
    19   11   20 1  
# Name:          frag3-195-6/31924
# Creation time: Sat Jun  5 12:52:14 2010


@<TRIPOS>MOLECULE
frag3-195-6/31924
   20    19     1     1     1
SMALL
USER_CHARGES


@<TRIPOS>ATOM
      1 S1          4.3647   -3.7905   -6.3711 S.3        1 <1>        0.000
      2 S2          2.8734   -3.6536   -7.7302 S.3        1 <1>        0.000
      3 C1          1.8194   -2.4568   -6.9416 C.2        1 <1>        0.000
      4 C2          0.6173   -2.8339   -6.4850 C.2        1 <1>        0.000
      5 N1         -0.3009   -2.0879   -5.8258 N.am       1 <1>        0.000
      6 C9         -0.1833   -0.8162   -5.3768 C.2        1 <1>        0.000
      7 O1          0.7938   -0.0979   -5.5204 O.2        1 <1>        0.000
      8 C20         5.1698   -2.2218   -6.6030 C.2        1 <1>        0.000
      9 C21         4.8906   -1.2087   -5.7703 C.2        1 <1>        0.000
     10 N5          5.4140    0.0385   -5.7690 N.am       1 <1>        0.000
     11 C28         6.4182    0.5353   -6.5311 C.2        1 <1>        0.000
     12 O4          7.1375   -0.1162   -7.2725 O.2        1 <1>        0.000
     13 H           2.1492   -1.4238   -6.8306 H.spc      1 <1>        0.000
     14 H           0.3437   -3.8731   -6.6673 H.spc      1 <1>        0.000
     15 H          -1.1958   -2.5425   -5.6444 H.spc      1 <1>        0.000
     16 H          -1.0347   -0.3970   -4.8405 H.spc      1 <1>        0.000
     17 H           5.8840   -2.0851   -7.4150 H.spc      1 <1>        0.000
     18 H           4.1496   -1.4160   -4.9983 H.spc      1 <1>        0.000
     19 H           4.9973    0.6921   -5.1060 H.spc      1 <1>        0.000
     20 H           6.5996    1.6088   -6.4779 H.spc      1 <1>        0.000
@<TRIPOS>BOND
     1    6    7 2  
     2   10   11 am 
     3    9   10 1  
     4    8    9 2  
     5    5    6 am 
     6    4    5 1  
     7    1    2 1  
     8    1    8 1  
     9    2    3 1  
    10    3    4 2  
    11   11   12 2  
    12    3   13 1  
    13    4   14 1  
    14    5   15 1  
    15    6   16 1  
    16    8   17 1  
    17    9   18 1  
    18   10   19 1  
    19   11   20 1  
# Name:          frag3-195-6/31924
# Creation time: Sat Jun  5 12:52:14 2010


@<TRIPOS>MOLECULE
frag3-195-6/31924
   20    19     1     1     1
SMALL
USER_CHARGES


@<TRIPOS>ATOM
      1 S1          3.2515   -3.3830   -5.4637 S.3        1 <1>        0.000
      2 S2          4.4308   -3.7517   -7.0693 S.3        1 <1>        0.000
      3 C1          5.6838   -2.5007   -6.8388 C.2        1 <1>        0.000
      4 C2          5.3469   -1.2088   -6.9727 C.2        1 <1>        0.000
      5 N1          6.1393   -0.1233   -6.7995 N.am       1 <1>        0.000
      6 C9          7.4894   -0.0441   -6.8610 C.2        1 <1>        0.000
      7 O1          8.1569    0.9460   -6.6155 O.2        1 <1>        0.000
      8 C20         2.0154   -2.3226   -6.1949 C.2        1 <1>        0.000
      9 C21         0.7880   -2.2946   -5.6607 C.2        1 <1>        0.000
     10 N5         -0.2679   -1.5427   -6.0504 N.am       1 <1>        0.000
     11 C28        -1.5572   -1.6001   -5.6385 C.2        1 <1>        0.000
     12 O4         -2.4625   -0.8844   -6.0320 O.2        1 <1>        0.000
     13 H           6.7076   -2.7824   -6.5929 H.spc      1 <1>        0.000
     14 H           4.3131   -1.0087   -7.2542 H.spc      1 <1>        0.000
     15 H           5.6540    0.7504   -6.5957 H.spc      1 <1>        0.000
     16 H           8.0271   -0.9452   -7.1561 H.spc      1 <1>        0.000
     17 H           2.2560   -1.7079   -7.0623 H.spc      1 <1>        0.000
     18 H           0.6190   -2.9560   -4.8109 H.spc      1 <1>        0.000
     19 H          -0.0640   -0.8325   -6.7536 H.spc      1 <1>        0.000
     20 H          -1.8071   -2.3519   -4.8898 H.spc      1 <1>        0.000
@<TRIPOS>BOND
     1    6    7 2  
     2   10   11 am 
     3    9   10 1  
     4    8    9 2  
     5    5    6 am 
     6    4    5 1  
     7    1    2 1  
     8    1    8 1  
     9    2    3 1  
    10    3    4 2  
    11   11   12 2  
    12    3   13 1  
    13    4   14 1  
    14    5   15 1  
    15    6   16 1  
    16    8   17 1  
    17    9   18 1  
    18   10   19 1  
    19   11   20 1  
# Name:          frag3-195-6/31924
# Creation time: Sat Jun  5 12:52:14 2010


@<TRIPOS>MOLECULE
frag3-195-6/31924
   20    19     1     1     1
SMALL
USER_CHARGES


@<TRIPOS>ATOM
      1 S1          2.8470   -3.3350   -7.6465 S.3        1 <1>        0.000
      2 S2          4.2470   -3.5058   -6.1986 S.3        1 <1>        0.000
      3 C1          5.2342   -2.0610   -6.5247 C.2        1 <1>        0.000
      4 C2          5.7820   -1.3884   -5.5043 C.2        1 <1>        0.000
      5 N1          6.5848   -0.2982   -5.5556 N.am       1 <1>        0.000
      6 C9          6.9092    0.4563   -6.6318 C.2        1 <1>        0.000
      7 O1          6.6791    0.1710   -7.7963 O.2        1 <1>        0.000
      8 C20         1.6202   -2.3501   -6.8150 C.2        1 <1>        0.000
      9 C21         0.3523   -2.7797   -6.7763 C.2        1 <1>        0.000
     10 N5         -0.7070   -2.1968   -6.1683 N.am       1 <1>        0.000
     11 C28        -0.7266   -1.1060   -5.3644 C.2        1 <1>        0.000
     12 O4          0.1924   -0.3162   -5.2151 O.2        1 <1>        0.000
     13 H           5.3921   -1.7254   -7.5497 H.spc      1 <1>        0.000
     14 H           5.5533   -1.7654   -4.5075 H.spc      1 <1>        0.000
     15 H           6.9980   -0.0086   -4.6691 H.spc      1 <1>        0.000
     16 H           7.4201    1.4003   -6.4422 H.spc      1 <1>        0.000
     17 H           1.8975   -1.4078   -6.3425 H.spc      1 <1>        0.000
     18 H           0.1484   -3.7142   -7.2990 H.spc      1 <1>        0.000
     19 H          -1.6113   -2.6373   -6.3377 H.spc      1 <1>        0.000
     20 H          -1.6416   -0.9175   -4.8028 H.spc      1 <1>        0.000
@<TRIPOS>BOND
     1    6    7 2  
     2   10   11 am 
     3    9   10 1  
     4    8    9 2  
     5    5    6 am 
     6    4    5 1  
     7    1    2 1  
     8    1    8 1  
     9    2    3 1  
    10    3    4 2  
    11   11   12 2  
    12    3   13 1  
    13    4   14 1  
    14    5   15 1  
    15    6   16 1  
    16    8   17 1  
    17    9   18 1  
    18   10   19 1  
    19   11   20 1  
# Name:          frag3-195-6/31924
# Creation time: Sat Jun  5 12:52:14 2010


@<TRIPOS>MOLECULE
frag3-195-6/31924
   20    19     1     1     1
SMALL
USER_CHARGES


@<TRIPOS>ATOM
      1 S1          4.1110   -3.9050   -5.5686 S.3        1 <1>        0.000
      2 S2          3.0143   -3.6231   -7.2500 S.3        1 <1>        0.000
      3 C1          1.8122   -2.4440   -6.6518 C.2        1 <1>        0.000
      4 C2          0.5358   -2.8299   -6.5136 C.2        1 <1>        0.000
      5 N1         -0.5060   -2.0998   -6.0417 N.am       1 <1>        0.000
      6 C9         -0.5337   -0.7862   -5.7157 C.2        1 <1>        0.000
      7 O1          0.4001   -0.0081   -5.8231 O.2        1 <1>        0.000
      8 C20         4.7698   -2.2612   -5.3320 C.2        1 <1>        0.000
      9 C21         5.4268   -1.6788   -6.3459 C.2        1 <1>        0.000
     10 N5          5.9682   -0.4385   -6.3763 N.am       1 <1>        0.000
     11 C28         6.7824    0.1162   -7.3061 C.2        1 <1>        0.000
     12 O4          7.2335    1.2485   -7.2719 O.2        1 <1>        0.000
     13 H           2.1123   -1.4261   -6.4030 H.spc      1 <1>        0.000
     14 H           0.3077   -3.8519   -6.8164 H.spc      1 <1>        0.000
     15 H          -1.3822   -2.6066   -5.9163 H.spc      1 <1>        0.000
     16 H          -1.4703   -0.3896   -5.3237 H.spc      1 <1>        0.000
     17 H           4.6403   -1.7419   -4.3824 H.spc      1 <1>        0.000
     18 H           5.5379   -2.2743   -7.2521 H.spc      1 <1>        0.000
     19 H           5.7295    0.1632   -5.5880 H.spc      1 <1>        0.000
     20 H           7.0583   -0.5037   -8.1592 H.spc      1 <1>        0.000
@<TRIPOS>BOND
     1    6    7 2  
     2   10   11 am 
     3    9   10 1  
     4    8    9 2  
     5    5    6 am 
     6    4    5 1  
     7    1    2 1  
     8    1    8 1  
     9    2    3 1  
    10    3    4 2  
    11   11   12 2  
    12    3   13 1  
    13    4   14 1  
    14    5   15 1  
    15    6   16 1  
    16    8   17 1  
    17    9   18 1  
    18   10   19 1  
    19   11   20 1  
# Name:          frag3-195-6/31924
# Creation time: Sat Jun  5 12:52:14 2010


@<TRIPOS>MOLECULE
frag3-195-6/31924
   20    19     1     1     1
SMALL
USER_CHARGES


@<TRIPOS>ATOM
      1 S1          3.8273   -3.4697   -7.1444 S.3        1 <1>        0.000
      2 S2          2.6858   -4.0074   -5.5610 S.3        1 <1>        0.000
      3 C1          1.2830   -2.9351   -5.7924 C.2        1 <1>        0.000
      4 C2          1.4125   -1.6220   -5.5473 C.2        1 <1>        0.000
      5 N1          0.4821   -0.6488   -5.7025 N.am       1 <1>        0.000
      6 C9         -0.7572   -0.7488   -6.2384 C.2        1 <1>        0.000
      7 O1         -1.2693   -1.7739   -6.6593 O.2        1 <1>        0.000
      8 C20         5.2101   -2.7073   -6.3217 C.2        1 <1>        0.000
      9 C21         5.6302   -1.5028   -6.7271 C.2        1 <1>        0.000
     10 N5          6.6344   -0.7548   -6.2122 N.am       1 <1>        0.000
     11 C28         7.1433    0.4162   -6.6640 C.2        1 <1>        0.000
     12 O4          6.7323    1.0445   -7.6264 O.2        1 <1>        0.000
     13 H           0.3292   -3.3410   -6.1296 H.spc      1 <1>        0.000
     14 H           2.3856   -1.2984   -5.1780 H.spc      1 <1>        0.000
     15 H           0.7501    0.2786   -5.3731 H.spc      1 <1>        0.000
     16 H          -1.3487    0.1647   -6.2993 H.spc      1 <1>        0.000
     17 H           5.7091   -3.2159   -5.4969 H.spc      1 <1>        0.000
     18 H           5.0989   -1.0714   -7.5755 H.spc      1 <1>        0.000
     19 H           7.0680   -1.1246   -5.3663 H.spc      1 <1>        0.000
     20 H           7.9922    0.8331   -6.1220 H.spc      1 <1>        0.000
@<TRIPOS>BOND
     1    6    7 2  
     2   10   11 am 
     3    9   10 1  
     4    8    9 2  
     5    5    6 am 
     6    4    5 1  
     7    1    2 1  
     8    1    8 1  
     9    2    3 1  
    10    3    4 2  
    11   11   12 2  
    12    3   13 1  
    13    4   14 1  
    14    5   15 1  
    15    6   16 1  
    16    8   17 1  
    17    9   18 1  
    18   10   19 1  
    19   11   20 1  
# Name:          frag3-195-6/31924
# Creation time: Sat Jun  5 12:52:14 2010


@<TRIPOS>MOLECULE
frag3-195-6/31924
   20    19     1     1     1
SMALL
USER_CHARGES


@<TRIPOS>ATOM
      1 S1          3.8665   -3.0630   -6.1134 S.3        1 <1>        0.000
      2 S2          2.5973   -3.0056   -7.6880 S.3        1 <1>        0.000
      3 C1          1.1655   -2.2746   -6.9279 C.2        1 <1>        0.000
      4 C2          0.4299   -3.0063   -6.0758 C.2        1 <1>        0.000
      5 N1         -0.6617   -2.6226   -5.3716 N.am       1 <1>        0.000
      6 C9         -1.2523   -1.4049   -5.3353 C.2        1 <1>        0.000
      7 O1         -0.8102   -0.3843   -5.8390 O.2        1 <1>        0.000
      8 C20         5.1485   -1.9643   -6.6695 C.2        1 <1>        0.000
      9 C21         5.7669   -1.1723   -5.7852 C.2        1 <1>        0.000
     10 N5          6.7750   -0.3026   -6.0116 N.am       1 <1>        0.000
     11 C28         7.5246   -0.1378   -7.1284 C.2        1 <1>        0.000
     12 O4          8.4647    0.6284   -7.2511 O.2        1 <1>        0.000
     13 H           0.8883   -1.2444   -7.1512 H.spc      1 <1>        0.000
     14 H           0.7513   -4.0380   -5.9328 H.spc      1 <1>        0.000
     15 H          -1.0944   -3.3438   -4.7945 H.spc      1 <1>        0.000
     16 H          -2.2049   -1.3291   -4.8110 H.spc      1 <1>        0.000
     17 H           5.4288   -1.9358   -7.7224 H.spc      1 <1>        0.000
     18 H           5.4135   -1.2373   -4.7561 H.spc      1 <1>        0.000
     19 H           7.0040    0.3163   -5.2338 H.spc      1 <1>        0.000
     20 H           7.2634   -0.7451   -7.9951 H.spc      1 <1>        0.000
@<TRIPOS>BOND
     1    6    7 2  
     2   10   11 am 
     3    9   10 1  
     4    8    9 2  
     5    5    6 am 
     6    4    5 1  
     7    1    2 1  
     8    1    8 1  
     9    2    3 1  
    10    3    4 2  
    11   11   12 2  
    12    3   13 1  
    13    4   14 1  
    14    5   15 1  
    15    6   16 1  
    16    8   17 1  
    17    9   18 1  
    18   10   19 1  
    19   11   20 1  
# Name:          frag3-195-6/31924
# Creation time: Sat Jun  5 12:52:14 2010


@<TRIPOS>MOLECULE
frag3-195-6/31924
   20    19     1     1     1
SMALL
USER_CHARGES


@<TRIPOS>ATOM
      1 S1          3.0535   -3.7701   -5.3397 S.3        1 <1>        0.000
      2 S2          4.1036   -3.6559   -7.0632 S.3        1 <1>        0.000
      3 C1          4.8666   -2.0577   -6.8789 C.2        1 <1>        0.000
      4 C2          6.1405   -1.8872   -7.2562 C.2        1 <1>        0.000
      5 N1          6.8772   -0.7504   -7.2250 N.am       1 <1>        0.000
      6 C9          6.5495    0.4484   -6.6882 C.2        1 <1>        0.000
      7 O1          5.4675    0.7390   -6.2032 O.2        1 <1>        0.000
      8 C20         1.5909   -2.8549   -5.7776 C.2        1 <1>        0.000
      9 C21         1.1501   -1.8901   -4.9601 C.2        1 <1>        0.000
     10 N5          0.0859   -1.0723   -5.1346 N.am       1 <1>        0.000
     11 C28        -0.5978   -0.8039   -6.2734 C.2        1 <1>        0.000
     12 O4         -0.2728   -1.1547   -7.3968 O.2        1 <1>        0.000
     13 H           4.3012   -1.2242   -6.4621 H.spc      1 <1>        0.000
     14 H           6.6480   -2.7740   -7.6359 H.spc      1 <1>        0.000
     15 H           7.7971   -0.8049   -7.6623 H.spc      1 <1>        0.000
     16 H           7.3183    1.2211   -6.6891 H.spc      1 <1>        0.000
     17 H           1.0590   -3.0777   -6.7026 H.spc      1 <1>        0.000
     18 H           1.7183   -1.7457   -4.0412 H.spc      1 <1>        0.000
     19 H          -0.2459   -0.5941   -4.2970 H.spc      1 <1>        0.000
     20 H          -1.5166   -0.2252   -6.1783 H.spc      1 <1>        0.000
@<TRIPOS>BOND
     1    6    7 2  
     2   10   11 am 
     3    9   10 1  
     4    8    9 2  
     5    5    6 am 
     6    4    5 1  
     7    1    2 1  
     8    1    8 1  
     9    2    3 1  
    10    3    4 2  
    11   11   12 2  
    12    3   13 1  
    13    4   14 1  
    14    5   15 1  
    15    6   16 1  
    16    8   17 1  
    17    9   18 1  
    18   10   19 1  
    19   11   20 1  
# Name:          frag3-195-6/31924
# Creation time: Sat Jun  5 12:52:14 2010


@<TRIPOS>MOLECULE
frag3-195-6/31924
   20    19     1     1     1
SMALL
USER_CHARGES


@<TRIPOS>ATOM
      1 S1          4.2231   -2.9104   -6.1538 S.3        1 <1>        0.000
      2 S2          2.9745   -1.5711   -5.2905 S.3        1 <1>        0.000
      3 C1          1.6287   -1.5794   -6.4577 C.2        1 <1>        0.000
      4 C2          0.3852   -1.8228   -6.0235 C.2        1 <1>        0.000
      5 N1         -0.7629   -1.8392   -6.7439 N.am       1 <1>        0.000
      6 C9         -2.0024   -2.2143   -6.3517 C.2        1 <1>        0.000
      7 O1         -2.3103   -2.5899   -5.2320 O.2        1 <1>        0.000
      8 C20         5.5334   -1.8366   -6.7016 C.2        1 <1>        0.000
      9 C21         6.3441   -1.2837   -5.7863 C.2        1 <1>        0.000
     10 N5          7.4044   -0.4697   -5.9999 N.am       1 <1>        0.000
     11 C28         7.9469   -0.0772   -7.1780 C.2        1 <1>        0.000
     12 O4          7.6498   -0.5155   -8.2780 O.2        1 <1>        0.000
     13 H           1.8153   -1.3883   -7.5145 H.spc      1 <1>        0.000
     14 H           0.2839   -2.0338   -4.9589 H.spc      1 <1>        0.000
     15 H          -0.6816   -1.5269   -7.7115 H.spc      1 <1>        0.000
     16 H          -2.7940   -2.1779   -7.1001 H.spc      1 <1>        0.000
     17 H           5.6747   -1.6317   -7.7628 H.spc      1 <1>        0.000
     18 H           6.1221   -1.5183   -4.7453 H.spc      1 <1>        0.000
     19 H           7.8554   -0.1026   -5.1619 H.spc      1 <1>        0.000
     20 H           8.7142    0.6960   -7.1403 H.spc      1 <1>        0.000
@<TRIPOS>BOND
     1    6    7 2  
     2   10   11 am 
     3    9   10 1  
     4    8    9 2  
     5    5    6 am 
     6    4    5 1  
     7    1    2 1  
     8    1    8 1  
     9    2    3 1  
    10    3    4 2  
    11   11   12 2  
    12    3   13 1  
    13    4   14 1  
    14    5   15 1  
    15    6   16 1  
    16    8   17 1  
    17    9   18 1  
    18   10   19 1  
    19   11   20 1  
# Name:          frag3-195-6/31924
# Creation time: Sat Jun  5 12:52:14 2010


@<TRIPOS>MOLECULE
frag3-195-6/31924
   20    19     1     1     1
SMALL
USER_CHARGES


@<TRIPOS>ATOM
      1 S1          4.2956   -3.3941   -5.4164 S.3        1 <1>        0.000
      2 S2          3.3933   -1.6606   -4.8867 S.3        1 <1>        0.000
      3 C1          1.8287   -1.8387   -5.7167 C.2        1 <1>        0.000
      4 C2          0.7002   -1.5187   -5.0697 C.2        1 <1>        0.000
      5 N1         -0.5679   -1.5549   -5.5390 N.am       1 <1>        0.000
      6 C9         -1.0032   -1.8922   -6.7758 C.2        1 <1>        0.000
      7 O1         -2.1643   -2.0673   -7.1020 O.2        1 <1>        0.000
      8 C20         5.2386   -2.8568   -6.8275 C.2        1 <1>        0.000
      9 C21         5.9141   -1.6993   -6.7537 C.2        1 <1>        0.000
     10 N5          6.7047   -1.1359   -7.6960 N.am       1 <1>        0.000
     11 C28         7.3579    0.0501   -7.6636 C.2        1 <1>        0.000
     12 O4          7.3170    0.8586   -6.7499 O.2        1 <1>        0.000
     13 H           1.7892   -2.2050   -6.7426 H.spc      1 <1>        0.000
     14 H           0.8184   -1.1884   -4.0377 H.spc      1 <1>        0.000
     15 H          -1.2934   -1.2930   -4.8716 H.spc      1 <1>        0.000
     16 H          -0.2465   -2.0186   -7.5501 H.spc      1 <1>        0.000
     17 H           5.2670   -3.4578   -7.7364 H.spc      1 <1>        0.000
     18 H           5.8134   -1.1454   -5.8203 H.spc      1 <1>        0.000
     19 H           6.8257   -1.6803   -8.5500 H.spc      1 <1>        0.000
     20 H           7.9726    0.3044   -8.5271 H.spc      1 <1>        0.000
@<TRIPOS>BOND
     1    6    7 2  
     2   10   11 am 
     3    9   10 1  
     4    8    9 2  
     5    5    6 am 
     6    4    5 1  
     7    1    2 1  
     8    1    8 1  
     9    2    3 1  
    10    3    4 2  
    11   11   12 2  
    12    3   13 1  
    13    4   14 1  
    14    5   15 1  
    15    6   16 1  
    16    8   17 1  
    17    9   18 1  
    18   10   19 1  
    19   11   20 1  
# Name:          frag3-195-6/31924
# Creation time: Sat Jun  5 12:52:14 2010


@<TRIPOS>MOLECULE
frag3-195-6/31924
   20    19     1     1     1
SMALL
USER_CHARGES


@<TRIPOS>ATOM
      1 S1          3.2435   -3.2827   -4.8535 S.3        1 <1>        0.000
      2 S2          3.7295   -3.5957   -6.7961 S.3        1 <1>        0.000
      3 C1          4.7168   -2.1449   -7.1136 C.2        1 <1>        0.000
      4 C2          5.8188   -1.9313   -6.3774 C.2        1 <1>        0.000
      5 N1          6.7085   -0.9177   -6.4886 N.am       1 <1>        0.000
      6 C9          6.7222    0.1018   -7.3792 C.2        1 <1>        0.000
      7 O1          7.4625    1.0694   -7.3456 O.2        1 <1>        0.000
      8 C20         2.2021   -1.8434   -5.0058 C.2        1 <1>        0.000
      9 C21         1.0118   -1.9660   -5.6111 C.2        1 <1>        0.000
     10 N5          0.0733   -1.0087   -5.7996 N.am       1 <1>        0.000
     11 C28        -1.1200   -1.0980   -6.4342 C.2        1 <1>        0.000
     12 O4         -1.5545   -2.0927   -6.9922 O.2        1 <1>        0.000
     13 H           4.4294   -1.4412   -7.8948 H.spc      1 <1>        0.000
     14 H           6.0216   -2.6629   -5.5953 H.spc      1 <1>        0.000
     15 H           7.4707   -0.9225   -5.8108 H.spc      1 <1>        0.000
     16 H           6.0068    0.0529   -8.2001 H.spc      1 <1>        0.000
     17 H           2.5276   -0.8800   -4.6134 H.spc      1 <1>        0.000
     18 H           0.7708   -2.9561   -5.9981 H.spc      1 <1>        0.000
     19 H           0.2957   -0.0929   -5.4095 H.spc      1 <1>        0.000
     20 H          -1.7455   -0.2055   -6.4477 H.spc      1 <1>        0.000
@<TRIPOS>BOND
     1    6    7 2  
     2   10   11 am 
     3    9   10 1  
     4    8    9 2  
     5    5    6 am 
     6    4    5 1  
     7    1    2 1  
     8    1    8 1  
     9    2    3 1  
    10    3    4 2  
    11   11   12 2  
    12    3   13 1  
    13    4   14 1  
    14    5   15 1  
    15    6   16 1  
    16    8   17 1  
    17    9   18 1  
    18   10   19 1  
    19   11   20 1  
# Name:          frag3-195-6/31924
# Creation time: Sat Jun  5 12:52:14 2010


@<TRIPOS>MOLECULE
frag3-195-6/31924
   20    19     1     1     1
SMALL
USER_CHARGES


@<TRIPOS>ATOM
      1 S1          4.3799   -3.7327   -5.9529 S.3        1 <1>        0.000
      2 S2          3.0825   -3.8639   -7.5008 S.3        1 <1>        0.000
      3 C1          1.9298   -2.5812   -7.0603 C.2        1 <1>        0.000
      4 C2          1.0839   -2.7799   -6.0374 C.2        1 <1>        0.000
      5 N1          0.1726   -1.9207   -5.5302 N.am       1 <1>        0.000
      6 C9         -0.1940   -0.7032   -5.9950 C.2        1 <1>        0.000
      7 O1         -1.0064    0.0450   -5.4800 O.2        1 <1>        0.000
      8 C20         4.9684   -2.0657   -6.1545 C.2        1 <1>        0.000
      9 C21         6.2241   -1.8597   -6.5734 C.2        1 <1>        0.000
     10 N5          6.8391   -0.6801   -6.8192 N.am       1 <1>        0.000
     11 C28         6.3302    0.5729   -6.7349 C.2        1 <1>        0.000
     12 O4          5.2044    0.8595   -6.3582 O.2        1 <1>        0.000
     13 H           1.9111   -1.6436   -7.6158 H.spc      1 <1>        0.000
     14 H           1.1389   -3.7561   -5.5557 H.spc      1 <1>        0.000
     15 H          -0.3031   -2.2313   -4.6831 H.spc      1 <1>        0.000
     16 H           0.2811   -0.3607   -6.9143 H.spc      1 <1>        0.000
     17 H           4.3141   -1.2209   -5.9394 H.spc      1 <1>        0.000
     18 H           6.8253   -2.7542   -6.7365 H.spc      1 <1>        0.000
     19 H           7.8159   -0.7422   -7.1062 H.spc      1 <1>        0.000
     20 H           6.9817    1.3959   -7.0286 H.spc      1 <1>        0.000
@<TRIPOS>BOND
     1    6    7 2  
     2   10   11 am 
     3    9   10 1  
     4    8    9 2  
     5    5    6 am 
     6    4    5 1  
     7    1    2 1  
     8    1    8 1  
     9    2    3 1  
    10    3    4 2  
    11   11   12 2  
    12    3   13 1  
    13    4   14 1  
    14    5   15 1  
    15    6   16 1  
    16    8   17 1  
    17    9   18 1  
    18   10   19 1  
    19   11   20 1  
# Name:          frag3-195-6/31924
# Creation time: Sat Jun  5 12:52:14 2010


@<TRIPOS>MOLECULE
frag3-195-6/31924
   20    19     1     1     1
SMALL
USER_CHARGES


@<TRIPOS>ATOM
      1 S1          3.0255   -2.1358   -6.6169 S.3        1 <1>        0.000
      2 S2          4.1615   -2.9005   -5.1215 S.3        1 <1>        0.000
      3 C1          5.5768   -1.8119   -5.2095 C.2        1 <1>        0.000
      4 C2          6.0858   -1.5092   -6.4136 C.2        1 <1>        0.000
      5 N1          7.1226   -0.6798   -6.6902 N.am       1 <1>        0.000
      6 C9          7.6735   -0.3839   -7.8905 C.2        1 <1>        0.000
      7 O1          8.5802    0.4086   -8.0811 O.2        1 <1>        0.000
      8 C20         1.6046   -1.5691   -5.6935 C.2        1 <1>        0.000
      9 C21         0.3840   -1.9519   -6.0917 C.2        1 <1>        0.000
     10 N5         -0.8045   -1.6571   -5.5099 N.am       1 <1>        0.000
     11 C28        -2.0543   -1.9962   -5.9081 C.2        1 <1>        0.000
     12 O4         -2.3413   -2.5232   -6.9704 O.2        1 <1>        0.000
     13 H           6.0183   -1.4014   -4.3014 H.spc      1 <1>        0.000
     14 H           5.6099   -1.9861   -7.2704 H.spc      1 <1>        0.000
     15 H           7.5440   -0.2166   -5.8851 H.spc      1 <1>        0.000
     16 H           7.2715   -0.8991   -8.7629 H.spc      1 <1>        0.000
     17 H           1.7285   -0.9246   -4.8233 H.spc      1 <1>        0.000
     18 H           0.3416   -2.5721   -6.9870 H.spc      1 <1>        0.000
     19 H          -0.7503   -1.1039   -4.6547 H.spc      1 <1>        0.000
     20 H          -2.8726   -1.7799   -5.2213 H.spc      1 <1>        0.000
@<TRIPOS>BOND
     1    6    7 2  
     2   10   11 am 
     3    9   10 1  
     4    8    9 2  
     5    5    6 am 
     6    4    5 1  
     7    1    2 1  
     8    1    8 1  
     9    2    3 1  
    10    3    4 2  
    11   11   12 2  
    12    3   13 1  
    13    4   14 1  
    14    5   15 1  
    15    6   16 1  
    16    8   17 1  
    17    9   18 1  
    18   10   19 1  
    19   11   20 1  
# Name:          frag3-195-6/31924
# Creation time: Sat Jun  5 12:52:14 2010


@<TRIPOS>MOLECULE
frag3-195-6/31924
   20    19     1     1     1
SMALL
USER_CHARGES


@<TRIPOS>ATOM
      1 S1          4.3778   -3.8628   -6.4396 S.3        1 <1>        0.000
      2 S2          3.0462   -3.8204   -7.9635 S.3        1 <1>        0.000
      3 C1          1.9020   -2.6002   -7.3561 C.2        1 <1>        0.000
      4 C2          1.4108   -2.7225   -6.1116 C.2        1 <1>        0.000
      5 N1          0.5709   -1.8878   -5.4615 N.am       1 <1>        0.000
      6 C9         -0.0244   -0.7608   -5.9179 C.2        1 <1>        0.000
      7 O1         -0.7084    0.0043   -5.2608 O.2        1 <1>        0.000
      8 C20         5.1182   -2.2533   -6.5983 C.2        1 <1>        0.000
      9 C21         5.1136   -1.4184   -5.5510 C.2        1 <1>        0.000
     10 N5          5.6467   -0.1777   -5.4702 N.am       1 <1>        0.000
     11 C28         6.2397    0.5534   -6.4449 C.2        1 <1>        0.000
     12 O4          6.3214    0.2365   -7.6215 O.2        1 <1>        0.000
     13 H           1.6030   -1.7629   -7.9867 H.spc      1 <1>        0.000
     14 H           1.7298   -3.6053   -5.5574 H.spc      1 <1>        0.000
     15 H           0.3563   -2.1407   -4.4969 H.spc      1 <1>        0.000
     16 H           0.1215   -0.5152   -6.9698 H.spc      1 <1>        0.000
     17 H           5.5724   -1.9486   -7.5411 H.spc      1 <1>        0.000
     18 H           4.6185   -1.7843   -4.6515 H.spc      1 <1>        0.000
     19 H           5.5955    0.2666   -4.5535 H.spc      1 <1>        0.000
     20 H           6.6818    1.5062   -6.1538 H.spc      1 <1>        0.000
@<TRIPOS>BOND
     1    6    7 2  
     2   10   11 am 
     3    9   10 1  
     4    8    9 2  
     5    5    6 am 
     6    4    5 1  
     7    1    2 1  
     8    1    8 1  
     9    2    3 1  
    10    3    4 2  
    11   11   12 2  
    12    3   13 1  
    13    4   14 1  
    14    5   15 1  
    15    6   16 1  
    16    8   17 1  
    17    9   18 1  
    18   10   19 1  
    19   11   20 1  
# Name:          frag3-195-6/31924
# Creation time: Sat Jun  5 12:52:14 2010


@<TRIPOS>MOLECULE
frag3-195-6/31924
   20    19     1     1     1
SMALL
USER_CHARGES


@<TRIPOS>ATOM
      1 S1          3.2763   -3.7886   -5.8300 S.3        1 <1>        0.000
      2 S2          3.4343   -2.9957   -7.6884 S.3        1 <1>        0.000
      3 C1          4.9482   -2.0779   -7.5195 C.2        1 <1>        0.000
      4 C2          4.9615   -0.9544   -6.7851 C.2        1 <1>        0.000
      5 N1          6.0136   -0.1523   -6.5082 N.am       1 <1>        0.000
      6 C9          7.3169   -0.3231   -6.8328 C.2        1 <1>        0.000
      7 O1          8.2371    0.4063   -6.5068 O.2        1 <1>        0.000
      8 C20         2.2133   -2.5961   -5.0478 C.2        1 <1>        0.000
      9 C21         1.0513   -2.2751   -5.6376 C.2        1 <1>        0.000
     10 N5          0.1003   -1.4208   -5.1956 N.am       1 <1>        0.000
     11 C28        -1.0574   -1.0498   -5.7923 C.2        1 <1>        0.000
     12 O4         -1.4806   -1.4823   -6.8527 O.2        1 <1>        0.000
     13 H           5.8583   -2.4251   -8.0086 H.spc      1 <1>        0.000
     14 H           4.0051   -0.6513   -6.3591 H.spc      1 <1>        0.000
     15 H           5.7965    0.6955   -5.9843 H.spc      1 <1>        0.000
     16 H           7.5658   -1.1925   -7.4413 H.spc      1 <1>        0.000
     17 H           2.5012   -2.1332   -4.1039 H.spc      1 <1>        0.000
     18 H           0.8488   -2.7633   -6.5909 H.spc      1 <1>        0.000
     19 H           0.2803   -0.9967   -4.2856 H.spc      1 <1>        0.000
     20 H          -1.6633   -0.3009   -5.2822 H.spc      1 <1>        0.000
@<TRIPOS>BOND
     1    6    7 2  
     2   10   11 am 
     3    9   10 1  
     4    8    9 2  
     5    5    6 am 
     6    4    5 1  
     7    1    2 1  
     8    1    8 1  
     9    2    3 1  
    10    3    4 2  
    11   11   12 2  
    12    3   13 1  
    13    4   14 1  
    14    5   15 1  
    15    6   16 1  
    16    8   17 1  
    17    9   18 1  
    18   10   19 1  
    19   11   20 1  
# Name:          frag3-195-6/31924
# Creation time: Sat Jun  5 12:52:14 2010


@<TRIPOS>MOLECULE
frag3-195-6/31924
   20    19     1     1     1
SMALL
USER_CHARGES


@<TRIPOS>ATOM
      1 S1          2.9992   -2.4301   -4.6851 S.3        1 <1>        0.000
      2 S2          4.1136   -3.2583   -6.1522 S.3        1 <1>        0.000
      3 C1          5.1731   -1.8952   -6.5768 C.2        1 <1>        0.000
      4 C2          6.4681   -2.1193   -6.8348 C.2        1 <1>        0.000
      5 N1          7.4163   -1.2243   -7.2020 N.am       1 <1>        0.000
      6 C9          7.3164    0.1240   -7.2715 C.2        1 <1>        0.000
      7 O1          6.2782    0.7645   -7.2207 O.2        1 <1>        0.000
      8 C20         1.4249   -2.2786   -5.4957 C.2        1 <1>        0.000
      9 C21         0.5344   -1.3865   -5.0466 C.2        1 <1>        0.000
     10 N5         -0.6920   -1.1074   -5.5455 N.am       1 <1>        0.000
     11 C28        -1.2670   -1.5665   -6.6835 C.2        1 <1>        0.000
     12 O4         -0.7506   -2.3321   -7.4824 O.2        1 <1>        0.000
     13 H           4.7712   -0.8832   -6.6268 H.spc      1 <1>        0.000
     14 H           6.8012   -3.1525   -6.7369 H.spc      1 <1>        0.000
     15 H           8.3220   -1.6167   -7.4592 H.spc      1 <1>        0.000
     16 H           8.2433    0.6866   -7.3824 H.spc      1 <1>        0.000
     17 H           1.1863   -2.9081   -6.3529 H.spc      1 <1>        0.000
     18 H           0.8344   -0.8131   -4.1695 H.spc      1 <1>        0.000
     19 H          -1.2593   -0.4660   -4.9912 H.spc      1 <1>        0.000
     20 H          -2.2774   -1.2228   -6.9047 H.spc      1 <1>        0.000
@<TRIPOS>BOND
     1    6    7 2  
     2   10   11 am 
     3    9   10 1  
     4    8    9 2  
     5    5    6 am 
     6    4    5 1  
     7    1    2 1  
     8    1    8 1  
     9    2    3 1  
    10    3    4 2  
    11   11   12 2  
    12    3   13 1  
    13    4   14 1  
    14    5   15 1  
    15    6   16 1  
    16    8   17 1  
    17    9   18 1  
    18   10   19 1  
    19   11   20 1  
# Name:          frag3-195-6/31924
# Creation time: Sat Jun  5 12:52:14 2010


@<TRIPOS>MOLECULE
frag3-195-6/31924
   20    19     1     1     1
SMALL
USER_CHARGES


@<TRIPOS>ATOM
      1 S1          2.9164   -3.2779   -7.0512 S.3        1 <1>        0.000
      2 S2          4.3550   -3.5338   -5.6490 S.3        1 <1>        0.000
      3 C1          5.6173   -2.4449   -6.2833 C.2        1 <1>        0.000
      4 C2          5.4592   -1.1181   -6.1603 C.2        1 <1>        0.000
      5 N1          6.3142   -0.1411   -6.5445 N.am       1 <1>        0.000
      6 C9          7.4959   -0.2593   -7.1948 C.2        1 <1>        0.000
      7 O1          8.2666    0.6512   -7.4450 O.2        1 <1>        0.000
      8 C20         1.9814   -1.9411   -6.3308 C.2        1 <1>        0.000
      9 C21         0.6553   -2.0726   -6.2004 C.2        1 <1>        0.000
     10 N5         -0.2165   -1.1926   -5.6528 N.am       1 <1>        0.000
     11 C28        -1.5662   -1.2704   -5.5690 C.2        1 <1>        0.000
     12 O4         -2.2639   -2.1093   -6.1157 O.2        1 <1>        0.000
     13 H           6.5062   -2.8523   -6.7649 H.spc      1 <1>        0.000
     14 H           4.5307   -0.7870   -5.6951 H.spc      1 <1>        0.000
     15 H           6.0303    0.8109   -6.3132 H.spc      1 <1>        0.000
     16 H           7.7837   -1.2578   -7.5239 H.spc      1 <1>        0.000
     17 H           2.4820   -1.0305   -6.0015 H.spc      1 <1>        0.000
     18 H           0.2257   -2.9994   -6.5807 H.spc      1 <1>        0.000
     19 H           0.2012   -0.3551   -5.2472 H.spc      1 <1>        0.000
     20 H          -2.0722   -0.5199   -4.9616 H.spc      1 <1>        0.000
@<TRIPOS>BOND
     1    6    7 2  
     2   10   11 am 
     3    9   10 1  
     4    8    9 2  
     5    5    6 am 
     6    4    5 1  
     7    1    2 1  
     8    1    8 1  
     9    2    3 1  
    10    3    4 2  
    11   11   12 2  
    12    3   13 1  
    13    4   14 1  
    14    5   15 1  
    15    6   16 1  
    16    8   17 1  
    17    9   18 1  
    18   10   19 1  
    19   11   20 1  
# Name:          frag3-195-6/31924
# Creation time: Sat Jun  5 12:52:14 2010


@<TRIPOS>MOLECULE
frag3-195-6/31924
   20    19     1     1     1
SMALL
USER_CHARGES


@<TRIPOS>ATOM
      1 S1          3.0629   -4.0975   -5.5864 S.3        1 <1>        0.000
      2 S2          3.5298   -3.3025   -7.3902 S.3        1 <1>        0.000
      3 C1          4.5798   -1.9510   -6.8836 C.2        1 <1>        0.000
      4 C2          5.7548   -1.7688   -7.5010 C.2        1 <1>        0.000
      5 N1          6.6642   -0.7890   -7.2835 N.am       1 <1>        0.000
      6 C9          6.5954    0.2519   -6.4207 C.2        1 <1>        0.000
      7 O1          7.4222    1.1404   -6.3074 O.2        1 <1>        0.000
      8 C20         2.0859   -2.7757   -4.8915 C.2        1 <1>        0.000
      9 C21         1.0823   -2.2629   -5.6190 C.2        1 <1>        0.000
     10 N5          0.2153   -1.2856   -5.2627 N.am       1 <1>        0.000
     11 C28        -0.8414   -0.7912   -5.9511 C.2        1 <1>        0.000
     12 O4         -1.1367   -1.0782   -7.0999 O.2        1 <1>        0.000
     13 H           4.2688   -1.2818   -6.0814 H.spc      1 <1>        0.000
     14 H           6.0096   -2.4969   -8.2712 H.spc      1 <1>        0.000
     15 H           7.5143   -0.8425   -7.8446 H.spc      1 <1>        0.000
     16 H           5.7228    0.2998   -5.7692 H.spc      1 <1>        0.000
     17 H           2.3007   -2.3920   -3.8941 H.spc      1 <1>        0.000
     18 H           0.9487   -2.6830   -6.6159 H.spc      1 <1>        0.000
     19 H           0.3809   -0.8631   -4.3492 H.spc      1 <1>        0.000
     20 H          -1.4824   -0.0763   -5.4351 H.spc      1 <1>        0.000
@<TRIPOS>BOND
     1    6    7 2  
     2   10   11 am 
     3    9   10 1  
     4    8    9 2  
     5    5    6 am 
     6    4    5 1  
     7    1    2 1  
     8    1    8 1  
     9    2    3 1  
    10    3    4 2  
    11   11   12 2  
    12    3   13 1  
    13    4   14 1  
    14    5   15 1  
    15    6   16 1  
    16    8   17 1  
    17    9   18 1  
    18   10   19 1  
    19   11   20 1  
# Name:          frag3-195-6/31924
# Creation time: Sat Jun  5 12:52:14 2010


@<TRIPOS>MOLECULE
frag3-195-6/31924
   20    19     1     1     1
SMALL
USER_CHARGES


@<TRIPOS>ATOM
      1 S1          3.4127   -3.5796   -7.6634 S.3        1 <1>        0.000
      2 S2          4.1389   -3.9376   -5.8048 S.3        1 <1>        0.000
      3 C1          4.5105   -2.2746   -5.2793 C.2        1 <1>        0.000
      4 C2          5.2367   -1.4837   -6.0847 C.2        1 <1>        0.000
      5 N1          5.5887   -0.1900   -5.8860 N.am       1 <1>        0.000
      6 C9          6.2845    0.6327   -6.7046 C.2        1 <1>        0.000
      7 O1          6.8486    0.2995   -7.7343 O.2        1 <1>        0.000
      8 C20         1.6843   -3.3394   -7.3005 C.2        1 <1>        0.000
      9 C21         1.2923   -2.1908   -6.7309 C.2        1 <1>        0.000
     10 N5          0.0336   -1.8123   -6.4057 N.am       1 <1>        0.000
     11 C28        -0.3725   -0.7743   -5.6363 C.2        1 <1>        0.000
     12 O4          0.3561   -0.0597   -4.9665 O.2        1 <1>        0.000
     13 H           4.1531   -1.9057   -4.3179 H.spc      1 <1>        0.000
     14 H           5.5862   -1.9374   -7.0121 H.spc      1 <1>        0.000
     15 H           5.2889    0.2182   -5.0006 H.spc      1 <1>        0.000
     16 H           6.3465    1.6830   -6.4200 H.spc      1 <1>        0.000
     17 H           0.9565   -4.1152   -7.5382 H.spc      1 <1>        0.000
     18 H           2.0821   -1.4754   -6.5020 H.spc      1 <1>        0.000
     19 H          -0.7125   -2.3891   -6.7942 H.spc      1 <1>        0.000
     20 H          -1.4407   -0.5587   -5.6132 H.spc      1 <1>        0.000
@<TRIPOS>BOND
     1    6    7 2  
     2   10   11 am 
     3    9   10 1  
     4    8    9 2  
     5    5    6 am 
     6    4    5 1  
     7    1    2 1  
     8    1    8 1  
     9    2    3 1  
    10    3    4 2  
    11   11   12 2  
    12    3   13 1  
    13    4   14 1  
    14    5   15 1  
    15    6   16 1  
    16    8   17 1  
    17    9   18 1  
    18   10   19 1  
    19   11   20 1  
# Name:          frag3-195-6/31924
# Creation time: Sat Jun  5 12:52:14 2010


@<TRIPOS>MOLECULE
frag3-195-6/31924
   20    19     1     1     1
SMALL
USER_CHARGES


@<TRIPOS>ATOM
      1 S1          2.8417   -4.1246   -7.1973 S.3        1 <1>        0.000
      2 S2          4.5136   -4.0186   -6.0640 S.3        1 <1>        0.000
      3 C1          5.0522   -2.3597   -6.4359 C.2        1 <1>        0.000
      4 C2          5.2470   -1.4907   -5.4343 C.2        1 <1>        0.000
      5 N1          5.6840   -0.2100   -5.5141 N.am       1 <1>        0.000
      6 C9          5.8876    0.5412   -6.6218 C.2        1 <1>        0.000
      7 O1          5.7794    0.1529   -7.7740 O.2        1 <1>        0.000
      8 C20         1.8744   -2.8057   -6.4880 C.2        1 <1>        0.000
      9 C21         1.2949   -1.9108   -7.2988 C.2        1 <1>        0.000
     10 N5          0.5066   -0.8653   -6.9543 N.am       1 <1>        0.000
     11 C28         0.0902   -0.4889   -5.7210 C.2        1 <1>        0.000
     12 O4          0.2428   -1.1298   -4.6933 O.2        1 <1>        0.000
     13 H           5.2215   -2.0552   -7.4687 H.spc      1 <1>        0.000
     14 H           5.0270   -1.8591   -4.4323 H.spc      1 <1>        0.000
     15 H           5.8855    0.2467   -4.6246 H.spc      1 <1>        0.000
     16 H           6.1727    1.5825   -6.4719 H.spc      1 <1>        0.000
     17 H           1.7560   -2.7285   -5.4072 H.spc      1 <1>        0.000
     18 H           1.4804   -2.0399   -8.3651 H.spc      1 <1>        0.000
     19 H           0.1828   -0.2830   -7.7266 H.spc      1 <1>        0.000
     20 H          -0.4252    0.4681   -5.6396 H.spc      1 <1>        0.000
@<TRIPOS>BOND
     1    6    7 2  
     2   10   11 am 
     3    9   10 1  
     4    8    9 2  
     5    5    6 am 
     6    4    5 1  
     7    1    2 1  
     8    1    8 1  
     9    2    3 1  
    10    3    4 2  
    11   11   12 2  
    12    3   13 1  
    13    4   14 1  
    14    5   15 1  
    15    6   16 1  
    16    8   17 1  
    17    9   18 1  
    18   10   19 1  
    19   11   20 1  
# Name:          frag3-195-6/31924
# Creation time: Sat Jun  5 12:52:14 2010


@<TRIPOS>MOLECULE
frag3-195-6/31924
   20    19     1     1     1
SMALL
USER_CHARGES


@<TRIPOS>ATOM
      1 S1          3.9925   -2.6922   -7.4589 S.3        1 <1>        0.000
      2 S2          2.8771   -3.3618   -5.9040 S.3        1 <1>        0.000
      3 C1          1.7421   -1.9901   -5.7152 C.2        1 <1>        0.000
      4 C2          0.4278   -2.2157   -5.8524 C.2        1 <1>        0.000
      5 N1         -0.5841   -1.3211   -5.7110 N.am       1 <1>        0.000
      6 C9         -1.9186   -1.5411   -5.7658 C.2        1 <1>        0.000
      7 O1         -2.4526   -2.6254   -5.9298 O.2        1 <1>        0.000
      8 C20         4.7901   -1.2798   -6.7024 C.2        1 <1>        0.000
      9 C21         6.0967   -1.0852   -6.9263 C.2        1 <1>        0.000
     10 N5          6.8674   -0.0662   -6.4710 N.am       1 <1>        0.000
     11 C28         8.1971    0.1347   -6.6377 C.2        1 <1>        0.000
     12 O4          8.9792   -0.6660   -7.1223 O.2        1 <1>        0.000
     13 H           2.1131   -0.9896   -5.4927 H.spc      1 <1>        0.000
     14 H           0.1378   -3.2351   -6.1069 H.spc      1 <1>        0.000
     15 H          -0.3012   -0.3560   -5.5411 H.spc      1 <1>        0.000
     16 H          -2.5716   -0.6756   -5.6538 H.spc      1 <1>        0.000
     17 H           4.2249   -0.5925   -6.0729 H.spc      1 <1>        0.000
     18 H           6.5971   -1.8305   -7.5446 H.spc      1 <1>        0.000
     19 H           6.3792    0.6466   -5.9288 H.spc      1 <1>        0.000
     20 H           8.6019    1.0926   -6.3112 H.spc      1 <1>        0.000
@<TRIPOS>BOND
     1    6    7 2  
     2   10   11 am 
     3    9   10 1  
     4    8    9 2  
     5    5    6 am 
     6    4    5 1  
     7    1    2 1  
     8    1    8 1  
     9    2    3 1  
    10    3    4 2  
    11   11   12 2  
    12    3   13 1  
    13    4   14 1  
    14    5   15 1  
    15    6   16 1  
    16    8   17 1  
    17    9   18 1  
    18   10   19 1  
    19   11   20 1  
# Name:          frag3-195-6/31924
# Creation time: Sat Jun  5 12:52:14 2010


@<TRIPOS>MOLECULE
frag3-195-6/31924
   20    19     1     1     1
SMALL
USER_CHARGES


@<TRIPOS>ATOM
      1 S1          4.5402   -3.0911   -5.6865 S.3        1 <1>        0.000
      2 S2          2.9461   -2.8469   -6.9104 S.3        1 <1>        0.000
      3 C1          1.6361   -2.6838   -5.7089 C.2        1 <1>        0.000
      4 C2          0.4350   -2.2449   -6.1069 C.2        1 <1>        0.000
      5 N1         -0.6853   -2.0922   -5.3571 N.am       1 <1>        0.000
      6 C9         -1.8676   -1.5349   -5.7081 C.2        1 <1>        0.000
      7 O1         -2.0671   -0.8631   -6.7068 O.2        1 <1>        0.000
      8 C20         5.5442   -1.6962   -6.1656 C.2        1 <1>        0.000
      9 C21         6.8125   -1.9106   -6.5411 C.2        1 <1>        0.000
     10 N5          7.7155   -0.9947   -6.9675 N.am       1 <1>        0.000
     11 C28         7.5303    0.3231   -7.2234 C.2        1 <1>        0.000
     12 O4          6.4746    0.9255   -7.1146 O.2        1 <1>        0.000
     13 H           1.8116   -2.9384   -4.6637 H.spc      1 <1>        0.000
     14 H           0.3469   -1.9783   -7.1601 H.spc      1 <1>        0.000
     15 H          -0.6290   -2.4444   -4.4015 H.spc      1 <1>        0.000
     16 H          -2.7140   -1.7004   -5.0415 H.spc      1 <1>        0.000
     17 H           5.1329   -0.6869   -6.1531 H.spc      1 <1>        0.000
     18 H           7.1585   -2.9433   -6.4985 H.spc      1 <1>        0.000
     19 H           8.6622   -1.3443   -7.1158 H.spc      1 <1>        0.000
     20 H           8.3981    0.8935   -7.5546 H.spc      1 <1>        0.000
@<TRIPOS>BOND
     1    6    7 2  
     2   10   11 am 
     3    9   10 1  
     4    8    9 2  
     5    5    6 am 
     6    4    5 1  
     7    1    2 1  
     8    1    8 1  
     9    2    3 1  
    10    3    4 2  
    11   11   12 2  
    12    3   13 1  
    13    4   14 1  
    14    5   15 1  
    15    6   16 1  
    16    8   17 1  
    17    9   18 1  
    18   10   19 1  
    19   11   20 1  
# Name:          frag3-195-6/31924
# Creation time: Sat Jun  5 12:52:14 2010


@<TRIPOS>MOLECULE
frag3-195-6/31924
   20    19     1     1     1
SMALL
USER_CHARGES


@<TRIPOS>ATOM
      1 S1          4.6139   -4.0939   -6.5880 S.3        1 <1>        0.000
      2 S2          2.9758   -4.2801   -7.7637 S.3        1 <1>        0.000
      3 C1          1.7247   -3.6155   -6.6784 C.2        1 <1>        0.000
      4 C2          1.6159   -2.2856   -6.5423 C.2        1 <1>        0.000
      5 N1          0.7163   -1.5949   -5.7995 N.am       1 <1>        0.000
      6 C9          0.6668   -0.2655   -5.5520 C.2        1 <1>        0.000
      7 O1          1.5045    0.5527   -5.8956 O.2        1 <1>        0.000
      8 C20         4.8731   -2.3306   -6.6557 C.2        1 <1>        0.000
      9 C21         4.8040   -1.6179   -5.5231 C.2        1 <1>        0.000
     10 N5          4.9970   -0.2865   -5.3677 N.am       1 <1>        0.000
     11 C28         5.1787    0.6603   -6.3201 C.2        1 <1>        0.000
     12 O4          5.3438    0.4473   -7.5107 O.2        1 <1>        0.000
     13 H           1.0571   -4.2823   -6.1327 H.spc      1 <1>        0.000
     14 H           2.3389   -1.6871   -7.0965 H.spc      1 <1>        0.000
     15 H          -0.0221   -2.1520   -5.3696 H.spc      1 <1>        0.000
     16 H          -0.1952    0.1065   -4.9982 H.spc      1 <1>        0.000
     17 H           5.0848   -1.8394   -7.6054 H.spc      1 <1>        0.000
     18 H           4.5637   -2.1766   -4.6186 H.spc      1 <1>        0.000
     19 H           5.0069    0.0487   -4.4044 H.spc      1 <1>        0.000
     20 H           5.1773    1.7008   -5.9953 H.spc      1 <1>        0.000
@<TRIPOS>BOND
     1    6    7 2  
     2   10   11 am 
     3    9   10 1  
     4    8    9 2  
     5    5    6 am 
     6    4    5 1  
     7    1    2 1  
     8    1    8 1  
     9    2    3 1  
    10    3    4 2  
    11   11   12 2  
    12    3   13 1  
    13    4   14 1  
    14    5   15 1  
    15    6   16 1  
    16    8   17 1  
    17    9   18 1  
    18   10   19 1  
    19   11   20 1  
# Name:          frag3-195-6/31924
# Creation time: Sat Jun  5 12:52:14 2010


@<TRIPOS>MOLECULE
frag3-195-6/31924
   20    19     1     1     1
SMALL
USER_CHARGES


@<TRIPOS>ATOM
      1 S1          3.1611   -3.1412   -7.0415 S.3        1 <1>        0.000
      2 S2          4.1639   -3.5332   -5.3267 S.3        1 <1>        0.000
      3 C1          4.9946   -1.9767   -5.0774 C.2        1 <1>        0.000
      4 C2          5.6918   -1.4391   -6.0907 C.2        1 <1>        0.000
      5 N1          6.3541   -0.2573   -6.1140 N.am       1 <1>        0.000
      6 C9          7.0264    0.3160   -7.1389 C.2        1 <1>        0.000
      7 O1          7.2738   -0.2128   -8.2107 O.2        1 <1>        0.000
      8 C20         1.6429   -2.4710   -6.3964 C.2        1 <1>        0.000
      9 C21         0.9798   -1.5487   -7.1049 C.2        1 <1>        0.000
     10 N5         -0.1947   -0.9495   -6.7980 N.am       1 <1>        0.000
     11 C28        -1.0679   -1.2553   -5.8078 C.2        1 <1>        0.000
     12 O4         -1.0113   -2.2412   -5.0899 O.2        1 <1>        0.000
     13 H           4.9374   -1.4680   -4.1151 H.spc      1 <1>        0.000
     14 H           5.7298   -2.0260   -7.0084 H.spc      1 <1>        0.000
     15 H           6.3446    0.2713   -5.2417 H.spc      1 <1>        0.000
     16 H           7.3772    1.3379   -6.9949 H.spc      1 <1>        0.000
     17 H           1.2572   -2.8082   -5.4343 H.spc      1 <1>        0.000
     18 H           1.4420   -1.2429   -8.0435 H.spc      1 <1>        0.000
     19 H          -0.4576   -0.1626   -7.3914 H.spc      1 <1>        0.000
     20 H          -1.8913   -0.5616   -5.6377 H.spc      1 <1>        0.000
@<TRIPOS>BOND
     1    6    7 2  
     2   10   11 am 
     3    9   10 1  
     4    8    9 2  
     5    5    6 am 
     6    4    5 1  
     7    1    2 1  
     8    1    8 1  
     9    2    3 1  
    10    3    4 2  
    11   11   12 2  
    12    3   13 1  
    13    4   14 1  
    14    5   15 1  
    15    6   16 1  
    16    8   17 1  
    17    9   18 1  
    18   10   19 1  
    19   11   20 1  
# Name:          frag3-195-6/31924
# Creation time: Sat Jun  5 12:52:14 2010


@<TRIPOS>MOLECULE
frag3-195-6/31924
   20    19     1     1     1
SMALL
USER_CHARGES


@<TRIPOS>ATOM
      1 S1          3.2137   -4.2123   -5.3228 S.3        1 <1>        0.000
      2 S2          3.6289   -3.8807   -7.2793 S.3        1 <1>        0.000
      3 C1          5.1659   -2.9829   -7.1309 C.2        1 <1>        0.000
      4 C2          5.1344   -1.6447   -7.0528 C.2        1 <1>        0.000
      5 N1          6.1817   -0.7963   -6.8985 N.am       1 <1>        0.000
      6 C9          6.1621    0.5388   -6.6777 C.2        1 <1>        0.000
      7 O1          5.1810    1.1920   -6.3623 O.2        1 <1>        0.000
      8 C20         2.5000   -2.6396   -4.8685 C.2        1 <1>        0.000
      9 C21         1.4885   -2.1548   -5.6038 C.2        1 <1>        0.000
     10 N5          0.7997   -1.0049   -5.4071 N.am       1 <1>        0.000
     11 C28        -0.0979   -0.3998   -6.2215 C.2        1 <1>        0.000
     12 O4         -0.3436   -0.7247   -7.3718 O.2        1 <1>        0.000
     13 H           6.1165   -3.5156   -7.1042 H.spc      1 <1>        0.000
     14 H           4.1493   -1.1832   -7.1215 H.spc      1 <1>        0.000
     15 H           7.1071   -1.2212   -6.9566 H.spc      1 <1>        0.000
     16 H           7.1034    1.0766   -6.7914 H.spc      1 <1>        0.000
     17 H           2.8790   -2.0845   -4.0104 H.spc      1 <1>        0.000
     18 H           1.1850   -2.7567   -6.4603 H.spc      1 <1>        0.000
     19 H           0.9822   -0.5289   -4.5236 H.spc      1 <1>        0.000
     20 H          -0.6473    0.4493   -5.8148 H.spc      1 <1>        0.000
@<TRIPOS>BOND
     1    6    7 2  
     2   10   11 am 
     3    9   10 1  
     4    8    9 2  
     5    5    6 am 
     6    4    5 1  
     7    1    2 1  
     8    1    8 1  
     9    2    3 1  
    10    3    4 2  
    11   11   12 2  
    12    3   13 1  
    13    4   14 1  
    14    5   15 1  
    15    6   16 1  
    16    8   17 1  
    17    9   18 1  
    18   10   19 1  
    19   11   20 1  
# Name:          frag3-195-6/31924
# Creation time: Sat Jun  5 12:52:14 2010


@<TRIPOS>MOLECULE
frag3-195-6/31924
   20    19     1     1     1
SMALL
USER_CHARGES


@<TRIPOS>ATOM
      1 S1          2.7401   -0.3457   -5.2507 S.3        1 <1>        0.000
      2 S2          3.7610   -2.0628   -4.9123 S.3        1 <1>        0.000
      3 C1          5.3621   -1.6177   -5.5526 C.2        1 <1>        0.000
      4 C2          5.5308   -1.5052   -6.8791 C.2        1 <1>        0.000
      5 N1          6.6497   -1.1404   -7.5469 N.am       1 <1>        0.000
      6 C9          7.8770   -0.8576   -7.0502 C.2        1 <1>        0.000
      7 O1          8.8316   -0.4542   -7.6916 O.2        1 <1>        0.000
      8 C20         1.5715   -0.8879   -6.4799 C.2        1 <1>        0.000
      9 C21         0.5119   -1.6126   -6.0921 C.2        1 <1>        0.000
     10 N5         -0.4937   -2.0919   -6.8613 N.am       1 <1>        0.000
     11 C28        -1.5389   -2.8767   -6.5063 C.2        1 <1>        0.000
     12 O4         -1.7886   -3.2571   -5.3737 O.2        1 <1>        0.000
     13 H           6.1962   -1.4385   -4.8742 H.spc      1 <1>        0.000
     14 H           4.6605   -1.7358   -7.4935 H.spc      1 <1>        0.000
     15 H           6.5559   -1.0689   -8.5601 H.spc      1 <1>        0.000
     16 H           8.0247   -1.0039   -5.9802 H.spc      1 <1>        0.000
     17 H           1.7150   -0.6349   -7.5304 H.spc      1 <1>        0.000
     18 H           0.4532   -1.8438   -5.0285 H.spc      1 <1>        0.000
     19 H          -0.4595   -1.8248   -7.8451 H.spc      1 <1>        0.000
     20 H          -2.2147   -3.1958   -7.2997 H.spc      1 <1>        0.000
@<TRIPOS>BOND
     1    6    7 2  
     2   10   11 am 
     3    9   10 1  
     4    8    9 2  
     5    5    6 am 
     6    4    5 1  
     7    1    2 1  
     8    1    8 1  
     9    2    3 1  
    10    3    4 2  
    11   11   12 2  
    12    3   13 1  
    13    4   14 1  
    14    5   15 1  
    15    6   16 1  
    16    8   17 1  
    17    9   18 1  
    18   10   19 1  
    19   11   20 1  
# Name:          frag3-195-6/31924
# Creation time: Sat Jun  5 12:52:14 2010


@<TRIPOS>MOLECULE
frag3-195-6/31924
   20    19     1     1     1
SMALL
USER_CHARGES


@<TRIPOS>ATOM
      1 S1          3.0221   -3.9687   -5.3865 S.3        1 <1>        0.000
      2 S2          4.2305   -4.1755   -6.9972 S.3        1 <1>        0.000
      3 C1          5.5274   -3.0261   -6.5761 C.2        1 <1>        0.000
      4 C2          5.3565   -1.7215   -6.8345 C.2        1 <1>        0.000
      5 N1          6.2011   -0.6984   -6.5551 N.am       1 <1>        0.000
      6 C9          6.0113    0.6289   -6.7380 C.2        1 <1>        0.000
      7 O1          4.9320    1.1790   -6.8847 O.2        1 <1>        0.000
      8 C20         1.9513   -2.6538   -5.9352 C.2        1 <1>        0.000
      9 C21         0.9723   -2.2286   -5.1272 C.2        1 <1>        0.000
     10 N5          0.0838   -1.2317   -5.3519 N.am       1 <1>        0.000
     11 C28         0.0027   -0.3925   -6.4129 C.2        1 <1>        0.000
     12 O4          0.7234   -0.4210   -7.3976 O.2        1 <1>        0.000
     13 H           6.4488   -3.3802   -6.1138 H.spc      1 <1>        0.000
     14 H           4.4242   -1.4503   -7.3299 H.spc      1 <1>        0.000
     15 H           7.0999   -0.9648   -6.1532 H.spc      1 <1>        0.000
     16 H           6.8990    1.2611   -6.7558 H.spc      1 <1>        0.000
     17 H           2.0919   -2.2013   -6.9168 H.spc      1 <1>        0.000
     18 H           0.8791   -2.7475   -4.1732 H.spc      1 <1>        0.000
     19 H          -0.6186   -1.0940   -4.6252 H.spc      1 <1>        0.000
     20 H          -0.7724    0.3734   -6.3845 H.spc      1 <1>        0.000
@<TRIPOS>BOND
     1    6    7 2  
     2   10   11 am 
     3    9   10 1  
     4    8    9 2  
     5    5    6 am 
     6    4    5 1  
     7    1    2 1  
     8    1    8 1  
     9    2    3 1  
    10    3    4 2  
    11   11   12 2  
    12    3   13 1  
    13    4   14 1  
    14    5   15 1  
    15    6   16 1  
    16    8   17 1  
    17    9   18 1  
    18   10   19 1  
    19   11   20 1  
# Name:          frag3-195-6/31924
# Creation time: Sat Jun  5 12:52:14 2010


@<TRIPOS>MOLECULE
frag3-195-6/31924
   20    19     1     1     1
SMALL
USER_CHARGES


@<TRIPOS>ATOM
      1 S1          4.1312   -0.9186   -5.1890 S.3        1 <1>        0.000
      2 S2          2.7597   -0.7844   -6.6729 S.3        1 <1>        0.000
      3 C1          1.5759   -2.0071   -6.1328 C.2        1 <1>        0.000
      4 C2          0.2675   -1.7452   -6.2549 C.2        1 <1>        0.000
      5 N1         -0.7745   -2.5523   -5.9380 N.am       1 <1>        0.000
      6 C9         -2.0981   -2.3420   -6.1264 C.2        1 <1>        0.000
      7 O1         -2.9956   -3.0847   -5.7666 O.2        1 <1>        0.000
      8 C20         5.6460   -0.7897   -6.1237 C.2        1 <1>        0.000
      9 C21         6.6169   -1.6879   -5.9105 C.2        1 <1>        0.000
     10 N5          7.8151   -1.7753   -6.5378 N.am       1 <1>        0.000
     11 C28         8.3051   -1.0071   -7.5409 C.2        1 <1>        0.000
     12 O4          7.7652   -0.0153   -8.0035 O.2        1 <1>        0.000
     13 H           1.9129   -2.9534   -5.7097 H.spc      1 <1>        0.000
     14 H           0.0101   -0.7655   -6.6574 H.spc      1 <1>        0.000
     15 H          -0.5274   -3.4386   -5.4977 H.spc      1 <1>        0.000
     16 H          -2.3872   -1.4282   -6.6455 H.spc      1 <1>        0.000
     17 H           5.7791    0.0067   -6.8560 H.spc      1 <1>        0.000
     18 H           6.4201   -2.4360   -5.1426 H.spc      1 <1>        0.000
     19 H           8.4311   -2.5196   -6.2108 H.spc      1 <1>        0.000
     20 H           9.2628   -1.3000   -7.9711 H.spc      1 <1>        0.000
@<TRIPOS>BOND
     1    6    7 2  
     2   10   11 am 
     3    9   10 1  
     4    8    9 2  
     5    5    6 am 
     6    4    5 1  
     7    1    2 1  
     8    1    8 1  
     9    2    3 1  
    10    3    4 2  
    11   11   12 2  
    12    3   13 1  
    13    4   14 1  
    14    5   15 1  
    15    6   16 1  
    16    8   17 1  
    17    9   18 1  
    18   10   19 1  
    19   11   20 1  
# Name:          frag3-195-6/31924
# Creation time: Sat Jun  5 12:52:14 2010


@<TRIPOS>MOLECULE
frag3-195-6/31924
   20    19     1     1     1
SMALL
USER_CHARGES


@<TRIPOS>ATOM
      1 S1          2.8368   -3.6655   -7.1872 S.3        1 <1>        0.000
      2 S2          4.1908   -3.4844   -5.6975 S.3        1 <1>        0.000
      3 C1          4.9745   -1.9518   -6.1417 C.2        1 <1>        0.000
      4 C2          6.2351   -1.7145   -5.7589 C.2        1 <1>        0.000
      5 N1          7.0068   -0.6361   -6.0333 N.am       1 <1>        0.000
      6 C9          6.8138    0.3160   -6.9763 C.2        1 <1>        0.000
      7 O1          5.8643    0.3778   -7.7418 O.2        1 <1>        0.000
      8 C20         1.4557   -2.7896   -6.4918 C.2        1 <1>        0.000
      9 C21         1.3405   -1.4697   -6.6988 C.2        1 <1>        0.000
     10 N5          0.3574   -0.6415   -6.2781 N.am       1 <1>        0.000
     11 C28        -0.8278   -0.9594   -5.7031 C.2        1 <1>        0.000
     12 O4         -1.2335   -2.0911   -5.4884 O.2        1 <1>        0.000
     13 H           4.4305   -1.2079   -6.7237 H.spc      1 <1>        0.000
     14 H           6.6999   -2.4884   -5.1481 H.spc      1 <1>        0.000
     15 H           7.8403   -0.5272   -5.4555 H.spc      1 <1>        0.000
     16 H           7.5717    1.0950   -7.0595 H.spc      1 <1>        0.000
     17 H           0.7086   -3.3207   -5.9020 H.spc      1 <1>        0.000
     18 H           2.1389   -1.0064   -7.2785 H.spc      1 <1>        0.000
     19 H           0.5312    0.3547   -6.4113 H.spc      1 <1>        0.000
     20 H          -1.4748   -0.1338   -5.4067 H.spc      1 <1>        0.000
@<TRIPOS>BOND
     1    6    7 2  
     2   10   11 am 
     3    9   10 1  
     4    8    9 2  
     5    5    6 am 
     6    4    5 1  
     7    1    2 1  
     8    1    8 1  
     9    2    3 1  
    10    3    4 2  
    11   11   12 2  
    12    3   13 1  
    13    4   14 1  
    14    5   15 1  
    15    6   16 1  
    16    8   17 1  
    17    9   18 1  
    18   10   19 1  
    19   11   20 1  
# Name:          frag3-195-6/31924
# Creation time: Sat Jun  5 12:52:14 2010


@<TRIPOS>MOLECULE
frag3-195-6/31924
   20    19     1     1     1
SMALL
USER_CHARGES


@<TRIPOS>ATOM
      1 S1          3.2494   -2.6712   -4.9466 S.3        1 <1>        0.000
      2 S2          3.7446   -2.8780   -6.9000 S.3        1 <1>        0.000
      3 C1          5.0728   -1.7004   -7.0219 C.2        1 <1>        0.000
      4 C2          6.2296   -1.9494   -6.3873 C.2        1 <1>        0.000
      5 N1          7.3593   -1.2019   -6.3854 N.am       1 <1>        0.000
      6 C9          7.6014   -0.0444   -7.0446 C.2        1 <1>        0.000
      7 O1          6.8043    0.5522   -7.7512 O.2        1 <1>        0.000
      8 C20         1.9055   -1.5117   -5.0676 C.2        1 <1>        0.000
      9 C21         0.7603   -1.9019   -5.6468 C.2        1 <1>        0.000
     10 N5         -0.3768   -1.1869   -5.8098 N.am       1 <1>        0.000
     11 C28        -1.5622   -1.5775   -6.3353 C.2        1 <1>        0.000
     12 O4         -1.7736   -2.6387   -6.9004 O.2        1 <1>        0.000
     13 H           4.9489   -0.7877   -7.6048 H.spc      1 <1>        0.000
     14 H           6.2639   -2.8674   -5.8006 H.spc      1 <1>        0.000
     15 H           8.1261   -1.5567   -5.8139 H.spc      1 <1>        0.000
     16 H           8.5939    0.3927   -6.9350 H.spc      1 <1>        0.000
     17 H           2.0111   -0.4996   -4.6770 H.spc      1 <1>        0.000
     18 H           0.7437   -2.9207   -6.0339 H.spc      1 <1>        0.000
     19 H          -0.3354   -0.2184   -5.4925 H.spc      1 <1>        0.000
     20 H          -2.3992   -0.8850   -6.2460 H.spc      1 <1>        0.000
@<TRIPOS>BOND
     1    6    7 2  
     2   10   11 am 
     3    9   10 1  
     4    8    9 2  
     5    5    6 am 
     6    4    5 1  
     7    1    2 1  
     8    1    8 1  
     9    2    3 1  
    10    3    4 2  
    11   11   12 2  
    12    3   13 1  
    13    4   14 1  
    14    5   15 1  
    15    6   16 1  
    16    8   17 1  
    17    9   18 1  
    18   10   19 1  
    19   11   20 1  
# Name:          frag3-195-6/31924
# Creation time: Sat Jun  5 12:52:14 2010


@<TRIPOS>MOLECULE
frag3-195-6/31924
   20    19     1     1     1
SMALL
USER_CHARGES


@<TRIPOS>ATOM
      1 S1          4.6107   -3.7788   -6.3505 S.3        1 <1>        0.000
      2 S2          3.2150   -3.2589   -4.9784 S.3        1 <1>        0.000
      3 C1          2.3076   -2.0223   -5.8944 C.2        1 <1>        0.000
      4 C2          0.9718   -1.9907   -5.8006 C.2        1 <1>        0.000
      5 N1          0.1174   -1.1145   -6.3861 N.am       1 <1>        0.000
      6 C9         -1.2359   -1.1263   -6.3870 C.2        1 <1>        0.000
      7 O1         -1.9396   -1.8982   -5.7564 O.2        1 <1>        0.000
      8 C20         5.5478   -2.2624   -6.4551 C.2        1 <1>        0.000
      9 C21         5.4177   -1.4943   -7.5459 C.2        1 <1>        0.000
     10 N5          6.0133   -0.3030   -7.7949 N.am       1 <1>        0.000
     11 C28         6.8141    0.4304   -6.9841 C.2        1 <1>        0.000
     12 O4          7.1744    0.1091   -5.8634 O.2        1 <1>        0.000
     13 H           2.8342   -1.3029   -6.5215 H.spc      1 <1>        0.000
     14 H           0.5165   -2.7617   -5.1791 H.spc      1 <1>        0.000
     15 H           0.5531   -0.3442   -6.8932 H.spc      1 <1>        0.000
     16 H          -1.7404   -0.3826   -7.0039 H.spc      1 <1>        0.000
     17 H           6.2146   -1.9662   -5.6453 H.spc      1 <1>        0.000
     18 H           4.7548   -1.8725   -8.3241 H.spc      1 <1>        0.000
     19 H           5.8349    0.0955   -8.7168 H.spc      1 <1>        0.000
     20 H           7.1663    1.3888   -7.3655 H.spc      1 <1>        0.000
@<TRIPOS>BOND
     1    6    7 2  
     2   10   11 am 
     3    9   10 1  
     4    8    9 2  
     5    5    6 am 
     6    4    5 1  
     7    1    2 1  
     8    1    8 1  
     9    2    3 1  
    10    3    4 2  
    11   11   12 2  
    12    3   13 1  
    13    4   14 1  
    14    5   15 1  
    15    6   16 1  
    16    8   17 1  
    17    9   18 1  
    18   10   19 1  
    19   11   20 1  
# Name:          frag3-195-6/31924
# Creation time: Sat Jun  5 12:52:14 2010


@<TRIPOS>MOLECULE
frag3-195-6/31924
   20    19     1     1     1
SMALL
USER_CHARGES


@<TRIPOS>ATOM
      1 S1          3.8315   -3.3699   -7.1213 S.3        1 <1>        0.000
      2 S2          3.1067   -3.1291   -5.2461 S.3        1 <1>        0.000
      3 C1          1.6054   -2.2499   -5.5868 C.2        1 <1>        0.000
      4 C2          0.5563   -2.9086   -6.1057 C.2        1 <1>        0.000
      5 N1         -0.6737   -2.4302   -6.4027 N.am       1 <1>        0.000
      6 C9         -1.1750   -1.1966   -6.1578 C.2        1 <1>        0.000
      7 O1         -0.5551   -0.2563   -5.6847 O.2        1 <1>        0.000
      8 C20         4.8995   -1.9604   -7.2479 C.2        1 <1>        0.000
      9 C21         5.8253   -1.7517   -6.2967 C.2        1 <1>        0.000
     10 N5          6.7400   -0.7651   -6.2271 N.am       1 <1>        0.000
     11 C28         7.0058    0.2177   -7.1212 C.2        1 <1>        0.000
     12 O4          7.8479    1.0901   -6.9987 O.2        1 <1>        0.000
     13 H           1.5343   -1.1827   -5.3767 H.spc      1 <1>        0.000
     14 H           0.7168   -3.9663   -6.3147 H.spc      1 <1>        0.000
     15 H          -1.3036   -3.0818   -6.8707 H.spc      1 <1>        0.000
     16 H          -2.2232   -1.0277   -6.4043 H.spc      1 <1>        0.000
     17 H           4.8062   -1.2714   -8.0873 H.spc      1 <1>        0.000
     18 H           5.8378   -2.4714   -5.4782 H.spc      1 <1>        0.000
     19 H           7.3127   -0.7568   -5.3831 H.spc      1 <1>        0.000
     20 H           6.4113    0.2291   -8.0347 H.spc      1 <1>        0.000
@<TRIPOS>BOND
     1    6    7 2  
     2   10   11 am 
     3    9   10 1  
     4    8    9 2  
     5    5    6 am 
     6    4    5 1  
     7    1    2 1  
     8    1    8 1  
     9    2    3 1  
    10    3    4 2  
    11   11   12 2  
    12    3   13 1  
    13    4   14 1  
    14    5   15 1  
    15    6   16 1  
    16    8   17 1  
    17    9   18 1  
    18   10   19 1  
    19   11   20 1  
# Name:          frag3-195-6/31924
# Creation time: Sat Jun  5 12:52:14 2010


@<TRIPOS>MOLECULE
frag3-195-6/31924
   20    19     1     1     1
SMALL
USER_CHARGES


@<TRIPOS>ATOM
      1 S1          3.4503   -3.1220   -7.5084 S.3        1 <1>        0.000
      2 S2          4.2663   -3.6597   -5.7324 S.3        1 <1>        0.000
      3 C1          5.0131   -2.1173   -5.2404 C.2        1 <1>        0.000
      4 C2          5.6949   -1.4045   -6.1510 C.2        1 <1>        0.000
      5 N1          6.2969   -0.2012   -5.9865 N.am       1 <1>        0.000
      6 C9          7.0146    0.5150   -6.8827 C.2        1 <1>        0.000
      7 O1          7.2247    0.1962   -8.0418 O.2        1 <1>        0.000
      8 C20         1.7156   -3.1715   -7.1048 C.2        1 <1>        0.000
      9 C21         1.1415   -2.0870   -6.5656 C.2        1 <1>        0.000
     10 N5         -0.1547   -1.9202   -6.2180 N.am       1 <1>        0.000
     11 C28        -0.7322   -0.9130   -5.5206 C.2        1 <1>        0.000
     12 O4         -1.9165   -0.8246   -5.2445 O.2        1 <1>        0.000
     13 H           4.9175   -1.7585   -4.2156 H.spc      1 <1>        0.000
     14 H           5.7741   -1.8474   -7.1438 H.spc      1 <1>        0.000
     15 H           6.1953    0.2210   -5.0635 H.spc      1 <1>        0.000
     16 H           7.4417    1.4574   -6.5399 H.spc      1 <1>        0.000
     17 H           1.1296   -4.0709   -7.2937 H.spc      1 <1>        0.000
     18 H           1.7990   -1.2365   -6.3855 H.spc      1 <1>        0.000
     19 H          -0.7880   -2.6585   -6.5249 H.spc      1 <1>        0.000
     20 H          -0.0805   -0.1103   -5.1756 H.spc      1 <1>        0.000
@<TRIPOS>BOND
     1    6    7 2  
     2   10   11 am 
     3    9   10 1  
     4    8    9 2  
     5    5    6 am 
     6    4    5 1  
     7    1    2 1  
     8    1    8 1  
     9    2    3 1  
    10    3    4 2  
    11   11   12 2  
    12    3   13 1  
    13    4   14 1  
    14    5   15 1  
    15    6   16 1  
    16    8   17 1  
    17    9   18 1  
    18   10   19 1  
    19   11   20 1  
# Name:          frag3-195-6/31924
# Creation time: Sat Jun  5 12:52:14 2010


@<TRIPOS>MOLECULE
frag3-195-6/31924
   20    19     1     1     1
SMALL
USER_CHARGES


@<TRIPOS>ATOM
      1 S1          2.8981   -2.5788   -6.8749 S.3        1 <1>        0.000
      2 S2          4.3374   -3.1261   -5.5603 S.3        1 <1>        0.000
      3 C1          5.7455   -2.2838   -6.2528 C.2        1 <1>        0.000
      4 C2          5.7078   -0.9490   -6.3907 C.2        1 <1>        0.000
      5 N1          6.6814   -0.1344   -6.8596 N.am       1 <1>        0.000
      6 C9          7.9524   -0.4474   -7.2052 C.2        1 <1>        0.000
      7 O1          8.8081    0.3406   -7.5689 O.2        1 <1>        0.000
      8 C20         1.6764   -1.8939   -5.7754 C.2        1 <1>        0.000
      9 C21         0.3791   -2.0355   -6.0727 C.2        1 <1>        0.000
     10 N5         -0.6895   -1.6187   -5.3530 N.am       1 <1>        0.000
     11 C28        -2.0075   -1.7178   -5.6488 C.2        1 <1>        0.000
     12 O4         -2.4746   -2.2652   -6.6347 O.2        1 <1>        0.000
     13 H           6.6274   -2.8454   -6.5610 H.spc      1 <1>        0.000
     14 H           4.7805   -0.4623   -6.0883 H.spc      1 <1>        0.000
     15 H           6.4231    0.8465   -6.9670 H.spc      1 <1>        0.000
     16 H           8.2359   -1.4986   -7.1535 H.spc      1 <1>        0.000
     17 H           1.9811   -1.3660   -4.8717 H.spc      1 <1>        0.000
     18 H           0.1556   -2.5488   -7.0079 H.spc      1 <1>        0.000
     19 H          -0.4716   -1.1674   -4.4646 H.spc      1 <1>        0.000
     20 H          -2.7110   -1.2706   -4.9466 H.spc      1 <1>        0.000
@<TRIPOS>BOND
     1    6    7 2  
     2   10   11 am 
     3    9   10 1  
     4    8    9 2  
     5    5    6 am 
     6    4    5 1  
     7    1    2 1  
     8    1    8 1  
     9    2    3 1  
    10    3    4 2  
    11   11   12 2  
    12    3   13 1  
    13    4   14 1  
    14    5   15 1  
    15    6   16 1  
    16    8   17 1  
    17    9   18 1  
    18   10   19 1  
    19   11   20 1  
# Name:          frag3-195-6/31924
# Creation time: Sat Jun  5 12:52:14 2010


@<TRIPOS>MOLECULE
frag3-195-6/31924
   20    19     1     1     1
SMALL
USER_CHARGES


@<TRIPOS>ATOM
      1 S1          4.1347   -3.8230   -5.4599 S.3        1 <1>        0.000
      2 S2          3.2216   -3.6380   -7.2600 S.3        1 <1>        0.000
      3 C1          1.6265   -3.0247   -6.7487 C.2        1 <1>        0.000
      4 C2          1.4197   -1.7007   -6.6964 C.2        1 <1>        0.000
      5 N1          0.2777   -1.0511   -6.3682 N.am       1 <1>        0.000
      6 C9         -0.7469   -1.4800   -5.5945 C.2        1 <1>        0.000
      7 O1         -1.7545   -0.8471   -5.3298 O.2        1 <1>        0.000
      8 C20         4.8489   -2.1980   -5.2848 C.2        1 <1>        0.000
      9 C21         5.5563   -1.6900   -6.3054 C.2        1 <1>        0.000
     10 N5          6.1460   -0.4755   -6.3821 N.am       1 <1>        0.000
     11 C28         6.8921    0.0531   -7.3814 C.2        1 <1>        0.000
     12 O4          7.3924    1.1650   -7.3857 O.2        1 <1>        0.000
     13 H           0.8290   -3.7181   -6.4818 H.spc      1 <1>        0.000
     14 H           2.2735   -1.0718   -6.9484 H.spc      1 <1>        0.000
     15 H           0.1760   -0.1131   -6.7559 H.spc      1 <1>        0.000
     16 H          -0.6635   -2.4806   -5.1703 H.spc      1 <1>        0.000
     17 H           4.7132   -1.6282   -4.3656 H.spc      1 <1>        0.000
     18 H           5.6693   -2.3337   -7.1777 H.spc      1 <1>        0.000
     19 H           6.0095    0.1288   -5.5718 H.spc      1 <1>        0.000
     20 H           7.0601   -0.5707   -8.2593 H.spc      1 <1>        0.000
@<TRIPOS>BOND
     1    6    7 2  
     2   10   11 am 
     3    9   10 1  
     4    8    9 2  
     5    5    6 am 
     6    4    5 1  
     7    1    2 1  
     8    1    8 1  
     9    2    3 1  
    10    3    4 2  
    11   11   12 2  
    12    3   13 1  
    13    4   14 1  
    14    5   15 1  
    15    6   16 1  
    16    8   17 1  
    17    9   18 1  
    18   10   19 1  
    19   11   20 1  
# Name:          frag3-195-6/31924
# Creation time: Sat Jun  5 12:52:14 2010


@<TRIPOS>MOLECULE
frag3-195-6/31924
   20    19     1     1     1
SMALL
USER_CHARGES


@<TRIPOS>ATOM
      1 S1          3.1464   -4.1705   -5.7125 S.3        1 <1>        0.000
      2 S2          4.3113   -3.9412   -7.3513 S.3        1 <1>        0.000
      3 C1          5.0696   -2.3700   -6.9919 C.2        1 <1>        0.000
      4 C2          4.4829   -1.2413   -7.4184 C.2        1 <1>        0.000
      5 N1          4.8806    0.0371   -7.2111 N.am       1 <1>        0.000
      6 C9          5.8980    0.4854   -6.4386 C.2        1 <1>        0.000
      7 O1          6.5896   -0.2018   -5.7038 O.2        1 <1>        0.000
      8 C20         1.9348   -2.8935   -5.9812 C.2        1 <1>        0.000
      9 C21         1.8486   -1.8771   -5.1124 C.2        1 <1>        0.000
     10 N5          1.0232   -0.8057   -5.1634 N.am       1 <1>        0.000
     11 C28         0.0549   -0.5256   -6.0688 C.2        1 <1>        0.000
     12 O4         -0.2253   -1.2058   -7.0433 O.2        1 <1>        0.000
     13 H           6.0026   -2.3259   -6.4301 H.spc      1 <1>        0.000
     14 H           3.5729   -1.3687   -8.0047 H.spc      1 <1>        0.000
     15 H           4.3445    0.7541   -7.6999 H.spc      1 <1>        0.000
     16 H           6.1188    1.5522   -6.4759 H.spc      1 <1>        0.000
     17 H           1.2699   -2.9382   -6.8438 H.spc      1 <1>        0.000
     18 H           2.5265   -1.9182   -4.2598 H.spc      1 <1>        0.000
     19 H           1.1466   -0.1171   -4.4211 H.spc      1 <1>        0.000
     20 H          -0.5236    0.3851   -5.9139 H.spc      1 <1>        0.000
@<TRIPOS>BOND
     1    6    7 2  
     2   10   11 am 
     3    9   10 1  
     4    8    9 2  
     5    5    6 am 
     6    4    5 1  
     7    1    2 1  
     8    1    8 1  
     9    2    3 1  
    10    3    4 2  
    11   11   12 2  
    12    3   13 1  
    13    4   14 1  
    14    5   15 1  
    15    6   16 1  
    16    8   17 1  
    17    9   18 1  
    18   10   19 1  
    19   11   20 1  
# Name:          frag3-195-6/31924
# Creation time: Sat Jun  5 12:52:14 2010


@<TRIPOS>MOLECULE
frag3-195-6/31924
   20    19     1     1     1
SMALL
USER_CHARGES


@<TRIPOS>ATOM
      1 S1          4.2597   -3.8201   -5.6375 S.3        1 <1>        0.000
      2 S2          3.2954   -3.4560   -7.3820 S.3        1 <1>        0.000
      3 C1          2.0567   -2.2995   -6.8354 C.2        1 <1>        0.000
      4 C2          0.8607   -2.7599   -6.4390 C.2        1 <1>        0.000
      5 N1         -0.1855   -2.0509   -5.9567 N.am       1 <1>        0.000
      6 C9         -0.3374   -0.7074   -5.8875 C.2        1 <1>        0.000
      7 O1         -1.2807   -0.1196   -5.3875 O.2        1 <1>        0.000
      8 C20         5.7570   -2.8902   -5.8880 C.2        1 <1>        0.000
      9 C21         5.6704   -1.6014   -6.2506 C.2        1 <1>        0.000
     10 N5          6.6814   -0.7271   -6.4618 N.am       1 <1>        0.000
     11 C28         6.6211    0.5694   -6.8488 C.2        1 <1>        0.000
     12 O4          5.6158    1.1529   -7.2220 O.2        1 <1>        0.000
     13 H           2.2677   -1.2302   -6.8230 H.spc      1 <1>        0.000
     14 H           0.7139   -3.8373   -6.5148 H.spc      1 <1>        0.000
     15 H          -0.9644   -2.6025   -5.5969 H.spc      1 <1>        0.000
     16 H           0.4558   -0.0961   -6.3179 H.spc      1 <1>        0.000
     17 H           6.7301   -3.3612   -5.7488 H.spc      1 <1>        0.000
     18 H           4.6627   -1.2109   -6.3924 H.spc      1 <1>        0.000
     19 H           7.6199   -1.0960   -6.3081 H.spc      1 <1>        0.000
     20 H           7.5492    1.1405   -6.8250 H.spc      1 <1>        0.000
@<TRIPOS>BOND
     1    6    7 2  
     2   10   11 am 
     3    9   10 1  
     4    8    9 2  
     5    5    6 am 
     6    4    5 1  
     7    1    2 1  
     8    1    8 1  
     9    2    3 1  
    10    3    4 2  
    11   11   12 2  
    12    3   13 1  
    13    4   14 1  
    14    5   15 1  
    15    6   16 1  
    16    8   17 1  
    17    9   18 1  
    18   10   19 1  
    19   11   20 1  
# Name:          frag3-195-6/31924
# Creation time: Sat Jun  5 12:52:14 2010


@<TRIPOS>MOLECULE
frag3-195-6/31924
   20    19     1     1     1
SMALL
USER_CHARGES


@<TRIPOS>ATOM
      1 S1          3.7940   -1.2042   -5.5058 S.3        1 <1>        0.000
      2 S2          2.5776   -0.6426   -7.0228 S.3        1 <1>        0.000
      3 C1          1.4754   -2.0422   -7.0911 C.2        1 <1>        0.000
      4 C2          0.3150   -1.9918   -6.4213 C.2        1 <1>        0.000
      5 N1         -0.6626   -2.9305   -6.3768 N.am       1 <1>        0.000
      6 C9         -1.8250   -2.9085   -5.6843 C.2        1 <1>        0.000
      7 O1         -2.2137   -1.9925   -4.9778 O.2        1 <1>        0.000
      8 C20         5.3913   -1.0482   -6.2801 C.2        1 <1>        0.000
      9 C21         6.4906   -1.3292   -5.5693 C.2        1 <1>        0.000
     10 N5          7.7789   -1.2986   -5.9865 N.am       1 <1>        0.000
     11 C28         8.2721   -0.9049   -7.1857 C.2        1 <1>        0.000
     12 O4          7.6211   -0.4166   -8.0954 O.2        1 <1>        0.000
     13 H           1.7413   -2.9269   -7.6696 H.spc      1 <1>        0.000
     14 H           0.1356   -1.0860   -5.8420 H.spc      1 <1>        0.000
     15 H          -0.5000   -3.7647   -6.9407 H.spc      1 <1>        0.000
     16 H          -2.4694   -3.7840   -5.7644 H.spc      1 <1>        0.000
     17 H           5.4724   -0.7282   -7.3189 H.spc      1 <1>        0.000
     18 H           6.3295   -1.6171   -4.5304 H.spc      1 <1>        0.000
     19 H           8.4707   -1.6143   -5.3067 H.spc      1 <1>        0.000
     20 H           9.3414   -1.0354   -7.3521 H.spc      1 <1>        0.000
@<TRIPOS>BOND
     1    6    7 2  
     2   10   11 am 
     3    9   10 1  
     4    8    9 2  
     5    5    6 am 
     6    4    5 1  
     7    1    2 1  
     8    1    8 1  
     9    2    3 1  
    10    3    4 2  
    11   11   12 2  
    12    3   13 1  
    13    4   14 1  
    14    5   15 1  
    15    6   16 1  
    16    8   17 1  
    17    9   18 1  
    18   10   19 1  
    19   11   20 1  
# Name:          frag3-195-6/31924
# Creation time: Sat Jun  5 12:52:14 2010


@<TRIPOS>MOLECULE
frag3-195-6/31924
   20    19     1     1     1
SMALL
USER_CHARGES


@<TRIPOS>ATOM
      1 S1          4.5761   -3.5767   -5.7890 S.3        1 <1>        0.000
      2 S2          2.7203   -3.7510   -6.5857 S.3        1 <1>        0.000
      3 C1          1.8450   -2.5189   -5.6269 C.2        1 <1>        0.000
      4 C2          0.6999   -2.0170   -6.1096 C.2        1 <1>        0.000
      5 N1         -0.1205   -1.1105   -5.5183 N.am       1 <1>        0.000
      6 C9         -1.4301   -0.8718   -5.7634 C.2        1 <1>        0.000
      7 O1         -2.1974   -1.6356   -6.3253 O.2        1 <1>        0.000
      8 C20         5.3834   -2.5998   -7.0520 C.2        1 <1>        0.000
      9 C21         6.0952   -1.5281   -6.6777 C.2        1 <1>        0.000
     10 N5          6.7988   -0.6868   -7.4757 N.am       1 <1>        0.000
     11 C28         7.4032    0.4829   -7.1554 C.2        1 <1>        0.000
     12 O4          7.2406    1.1035   -6.1179 O.2        1 <1>        0.000
     13 H           2.2365   -2.1825   -4.6669 H.spc      1 <1>        0.000
     14 H           0.3912   -2.3783   -7.0906 H.spc      1 <1>        0.000
     15 H           0.3066   -0.5333   -4.7938 H.spc      1 <1>        0.000
     16 H          -1.8334    0.0845   -5.4303 H.spc      1 <1>        0.000
     17 H           5.2979   -2.8709   -8.1043 H.spc      1 <1>        0.000
     18 H           6.1106   -1.3072   -5.6104 H.spc      1 <1>        0.000
     19 H           6.8848   -0.9740   -8.4506 H.spc      1 <1>        0.000
     20 H           8.0928    0.9049   -7.8865 H.spc      1 <1>        0.000
@<TRIPOS>BOND
     1    6    7 2  
     2   10   11 am 
     3    9   10 1  
     4    8    9 2  
     5    5    6 am 
     6    4    5 1  
     7    1    2 1  
     8    1    8 1  
     9    2    3 1  
    10    3    4 2  
    11   11   12 2  
    12    3   13 1  
    13    4   14 1  
    14    5   15 1  
    15    6   16 1  
    16    8   17 1  
    17    9   18 1  
    18   10   19 1  
    19   11   20 1  
# Name:          frag3-195-6/31924
# Creation time: Sat Jun  5 12:52:14 2010


@<TRIPOS>MOLECULE
frag3-195-6/31924
   20    19     1     1     1
SMALL
USER_CHARGES


@<TRIPOS>ATOM
      1 S1          3.7388   -2.3529   -5.5466 S.3        1 <1>        0.000
      2 S2          2.9012   -2.1451   -7.3814 S.3        1 <1>        0.000
      3 C1          1.1995   -1.8717   -6.9286 C.2        1 <1>        0.000
      4 C2          0.6090   -2.7206   -6.0718 C.2        1 <1>        0.000
      5 N1         -0.6508   -2.6613   -5.5802 N.am       1 <1>        0.000
      6 C9         -1.6366   -1.7845   -5.8840 C.2        1 <1>        0.000
      7 O1         -2.7389   -1.7423   -5.3657 O.2        1 <1>        0.000
      8 C20         5.0035   -1.1004   -5.6159 C.2        1 <1>        0.000
      9 C21         6.0779   -1.3083   -6.3912 C.2        1 <1>        0.000
     10 N5          7.1218   -0.4753   -6.6034 N.am       1 <1>        0.000
     11 C28         8.2420   -0.6749   -7.3381 C.2        1 <1>        0.000
     12 O4          9.1473    0.1275   -7.4899 O.2        1 <1>        0.000
     13 H           0.6461   -1.0280   -7.3409 H.spc      1 <1>        0.000
     14 H           1.2175   -3.5583   -5.7312 H.spc      1 <1>        0.000
     15 H          -0.8892   -3.3721   -4.8886 H.spc      1 <1>        0.000
     16 H          -1.4256   -1.0506   -6.6618 H.spc      1 <1>        0.000
     17 H           4.9059   -0.1812   -5.0383 H.spc      1 <1>        0.000
     18 H           6.1140   -2.2644   -6.9135 H.spc      1 <1>        0.000
     19 H           7.0562    0.4333   -6.1445 H.spc      1 <1>        0.000
     20 H           8.3431   -1.6383   -7.8379 H.spc      1 <1>        0.000
@<TRIPOS>BOND
     1    6    7 2  
     2   10   11 am 
     3    9   10 1  
     4    8    9 2  
     5    5    6 am 
     6    4    5 1  
     7    1    2 1  
     8    1    8 1  
     9    2    3 1  
    10    3    4 2  
    11   11   12 2  
    12    3   13 1  
    13    4   14 1  
    14    5   15 1  
    15    6   16 1  
    16    8   17 1  
    17    9   18 1  
    18   10   19 1  
    19   11   20 1  
# Name:          frag3-195-6/31924
# Creation time: Sat Jun  5 12:52:15 2010


@<TRIPOS>MOLECULE
frag3-195-6/31924
   20    19     1     1     1
SMALL
USER_CHARGES


@<TRIPOS>ATOM
      1 S1          2.7704   -4.3033   -5.4312 S.3        1 <1>        0.000
      2 S2          4.2193   -4.2659   -6.8466 S.3        1 <1>        0.000
      3 C1          5.2782   -2.9923   -6.1859 C.2        1 <1>        0.000
      4 C2          5.0789   -1.7174   -6.5504 C.2        1 <1>        0.000
      5 N1          5.7459   -0.6149   -6.1305 N.am       1 <1>        0.000
      6 C9          5.5787    0.6721   -6.5132 C.2        1 <1>        0.000
      7 O1          4.6502    1.1006   -7.1796 O.2        1 <1>        0.000
      8 C20         2.0397   -2.6946   -5.6655 C.2        1 <1>        0.000
      9 C21         1.3635   -2.4476   -6.7977 C.2        1 <1>        0.000
     10 N5          0.7189   -1.3102   -7.1486 N.am       1 <1>        0.000
     11 C28         0.5754   -0.1647   -6.4389 C.2        1 <1>        0.000
     12 O4          0.9956    0.0283   -5.3090 O.2        1 <1>        0.000
     13 H           6.0796   -3.2477   -5.4926 H.spc      1 <1>        0.000
     14 H           4.2818   -1.5466   -7.2740 H.spc      1 <1>        0.000
     15 H           6.4714   -0.7771   -5.4321 H.spc      1 <1>        0.000
     16 H           6.3386    1.3878   -6.1994 H.spc      1 <1>        0.000
     17 H           2.1406   -1.9239   -4.9013 H.spc      1 <1>        0.000
     18 H           1.3290   -3.2610   -7.5224 H.spc      1 <1>        0.000
     19 H           0.2828   -1.3161   -8.0706 H.spc      1 <1>        0.000
     20 H           0.0389    0.6544   -6.9178 H.spc      1 <1>        0.000
@<TRIPOS>BOND
     1    6    7 2  
     2   10   11 am 
     3    9   10 1  
     4    8    9 2  
     5    5    6 am 
     6    4    5 1  
     7    1    2 1  
     8    1    8 1  
     9    2    3 1  
    10    3    4 2  
    11   11   12 2  
    12    3   13 1  
    13    4   14 1  
    14    5   15 1  
    15    6   16 1  
    16    8   17 1  
    17    9   18 1  
    18   10   19 1  
    19   11   20 1  
# Name:          frag3-195-6/31924
# Creation time: Sat Jun  5 12:52:15 2010


@<TRIPOS>MOLECULE
frag3-195-6/31924
   20    19     1     1     1
SMALL
USER_CHARGES


@<TRIPOS>ATOM
      1 S1          3.1218   -3.4935   -5.4968 S.3        1 <1>        0.000
      2 S2          4.0135   -3.4179   -7.3098 S.3        1 <1>        0.000
      3 C1          4.9594   -1.9241   -7.1490 C.2        1 <1>        0.000
      4 C2          6.0006   -1.8910   -6.3010 C.2        1 <1>        0.000
      5 N1          6.8565   -0.8702   -6.0627 N.am       1 <1>        0.000
      6 C9          6.9310    0.3261   -6.6922 C.2        1 <1>        0.000
      7 O1          6.1955    0.7056   -7.5903 O.2        1 <1>        0.000
      8 C20         1.5618   -2.7260   -5.8529 C.2        1 <1>        0.000
      9 C21         1.1097   -1.7427   -5.0651 C.2        1 <1>        0.000
     10 N5         -0.0276   -1.0226   -5.1932 N.am       1 <1>        0.000
     11 C28        -0.8941   -0.9894   -6.2346 C.2        1 <1>        0.000
     12 O4         -0.8136   -1.6642   -7.2495 O.2        1 <1>        0.000
     13 H           4.6976   -1.0418   -7.7331 H.spc      1 <1>        0.000
     14 H           6.1790   -2.8033   -5.7318 H.spc      1 <1>        0.000
     15 H           7.5316   -1.0214   -5.3132 H.spc      1 <1>        0.000
     16 H           7.7158    1.0102   -6.3693 H.spc      1 <1>        0.000
     17 H           0.9739   -3.0541   -6.7101 H.spc      1 <1>        0.000
     18 H           1.7386   -1.4903   -4.2114 H.spc      1 <1>        0.000
     19 H          -0.2647   -0.4253   -4.4011 H.spc      1 <1>        0.000
     20 H          -1.7358   -0.3009   -6.1601 H.spc      1 <1>        0.000
@<TRIPOS>BOND
     1    6    7 2  
     2   10   11 am 
     3    9   10 1  
     4    8    9 2  
     5    5    6 am 
     6    4    5 1  
     7    1    2 1  
     8    1    8 1  
     9    2    3 1  
    10    3    4 2  
    11   11   12 2  
    12    3   13 1  
    13    4   14 1  
    14    5   15 1  
    15    6   16 1  
    16    8   17 1  
    17    9   18 1  
    18   10   19 1  
    19   11   20 1  
# Name:          frag3-195-6/31924
# Creation time: Sat Jun  5 12:52:15 2010


@<TRIPOS>MOLECULE
frag3-195-6/31924
   20    19     1     1     1
SMALL
USER_CHARGES


@<TRIPOS>ATOM
      1 S1          3.3160   -2.8112   -4.4525 S.3        1 <1>        0.000
      2 S2          4.1075   -3.9766   -5.9079 S.3        1 <1>        0.000
      3 C1          4.4588   -2.7452   -7.1490 C.2        1 <1>        0.000
      4 C2          5.3066   -1.7470   -6.8568 C.2        1 <1>        0.000
      5 N1          5.7248   -0.7437   -7.6662 N.am       1 <1>        0.000
      6 C9          6.4976    0.3240   -7.3601 C.2        1 <1>        0.000
      7 O1          7.0488    0.5184   -6.2887 O.2        1 <1>        0.000
      8 C20         1.7731   -2.3405   -5.2102 C.2        1 <1>        0.000
      9 C21         1.6242   -1.0891   -5.6667 C.2        1 <1>        0.000
     10 N5          0.5502   -0.5564   -6.2957 N.am       1 <1>        0.000
     11 C28        -0.5940   -1.1697   -6.6844 C.2        1 <1>        0.000
     12 O4         -0.7991   -2.3728   -6.6588 O.2        1 <1>        0.000
     13 H           3.9911   -2.8026   -8.1319 H.spc      1 <1>        0.000
     14 H           5.7084   -1.7425   -5.8436 H.spc      1 <1>        0.000
     15 H           5.4155   -0.8011   -8.6365 H.spc      1 <1>        0.000
     16 H           6.6401    1.0750   -8.1372 H.spc      1 <1>        0.000
     17 H           0.9606   -3.0614   -5.3013 H.spc      1 <1>        0.000
     18 H           2.4702   -0.4192   -5.5129 H.spc      1 <1>        0.000
     19 H           0.6103    0.4401   -6.5051 H.spc      1 <1>        0.000
     20 H          -1.4002   -0.5344   -7.0513 H.spc      1 <1>        0.000
@<TRIPOS>BOND
     1    6    7 2  
     2   10   11 am 
     3    9   10 1  
     4    8    9 2  
     5    5    6 am 
     6    4    5 1  
     7    1    2 1  
     8    1    8 1  
     9    2    3 1  
    10    3    4 2  
    11   11   12 2  
    12    3   13 1  
    13    4   14 1  
    14    5   15 1  
    15    6   16 1  
    16    8   17 1  
    17    9   18 1  
    18   10   19 1  
    19   11   20 1  
# Name:          frag3-195-6/31924
# Creation time: Sat Jun  5 12:52:15 2010


@<TRIPOS>MOLECULE
frag3-195-6/31924
   20    19     1     1     1
SMALL
USER_CHARGES


@<TRIPOS>ATOM
      1 S1          4.3465   -3.3982   -6.3227 S.3        1 <1>        0.000
      2 S2          2.9259   -3.2360   -7.7542 S.3        1 <1>        0.000
      3 C1          1.4504   -3.4316   -6.7751 C.2        1 <1>        0.000
      4 C2          0.7596   -2.3448   -6.4040 C.2        1 <1>        0.000
      5 N1         -0.3943   -2.2917   -5.6943 N.am       1 <1>        0.000
      6 C9         -1.1269   -1.2071   -5.3509 C.2        1 <1>        0.000
      7 O1         -0.8593   -0.0504   -5.6337 O.2        1 <1>        0.000
      8 C20         5.2808   -1.9081   -6.6006 C.2        1 <1>        0.000
      9 C21         5.9298   -1.3422   -5.5753 C.2        1 <1>        0.000
     10 N5          6.7095   -0.2353   -5.5947 N.am       1 <1>        0.000
     11 C28         7.1211    0.4923   -6.6613 C.2        1 <1>        0.000
     12 O4          6.8713    0.2433   -7.8300 O.2        1 <1>        0.000
     13 H           1.1129   -4.4254   -6.4808 H.spc      1 <1>        0.000
     14 H           1.1768   -1.3856   -6.7105 H.spc      1 <1>        0.000
     15 H          -0.7591   -3.1897   -5.3766 H.spc      1 <1>        0.000
     16 H          -2.0339   -1.3814   -4.7720 H.spc      1 <1>        0.000
     17 H           5.3239   -1.4617   -7.5941 H.spc      1 <1>        0.000
     18 H           5.8168   -1.8317   -4.6080 H.spc      1 <1>        0.000
     19 H           7.0300    0.0952   -4.6845 H.spc      1 <1>        0.000
     20 H           7.7270    1.3754   -6.4583 H.spc      1 <1>        0.000
@<TRIPOS>BOND
     1    6    7 2  
     2   10   11 am 
     3    9   10 1  
     4    8    9 2  
     5    5    6 am 
     6    4    5 1  
     7    1    2 1  
     8    1    8 1  
     9    2    3 1  
    10    3    4 2  
    11   11   12 2  
    12    3   13 1  
    13    4   14 1  
    14    5   15 1  
    15    6   16 1  
    16    8   17 1  
    17    9   18 1  
    18   10   19 1  
    19   11   20 1  
# Name:          frag3-195-6/31924
# Creation time: Sat Jun  5 12:52:15 2010


@<TRIPOS>MOLECULE
frag3-195-6/31924
   20    19     1     1     1
SMALL
USER_CHARGES


@<TRIPOS>ATOM
      1 S1          3.8414   -3.5935   -6.1908 S.3        1 <1>        0.000
      2 S2          2.9576   -2.8453   -4.5302 S.3        1 <1>        0.000
      3 C1          1.3807   -2.3627   -5.1933 C.2        1 <1>        0.000
      4 C2          1.3014   -1.2938   -6.0016 C.2        1 <1>        0.000
      5 N1          0.2099   -0.7996   -6.6321 N.am       1 <1>        0.000
      6 C9         -1.0372   -1.3240   -6.6866 C.2        1 <1>        0.000
      7 O1         -1.3741   -2.4077   -6.2358 O.2        1 <1>        0.000
      8 C20         4.7558   -2.1777   -6.7539 C.2        1 <1>        0.000
      9 C21         6.0113   -1.9952   -6.3195 C.2        1 <1>        0.000
     10 N5          6.8685   -1.0060   -6.6483 N.am       1 <1>        0.000
     11 C28         6.6394    0.1166   -7.3716 C.2        1 <1>        0.000
     12 O4          7.4600    0.9790   -7.6331 O.2        1 <1>        0.000
     13 H           0.4841   -2.9308   -4.9453 H.spc      1 <1>        0.000
     14 H           2.2338   -0.7556   -6.1719 H.spc      1 <1>        0.000
     15 H           0.3443    0.0805   -7.1298 H.spc      1 <1>        0.000
     16 H          -1.8072   -0.7270   -7.1753 H.spc      1 <1>        0.000
     17 H           4.3018   -1.4664   -7.4439 H.spc      1 <1>        0.000
     18 H           6.3855   -2.7371   -5.6140 H.spc      1 <1>        0.000
     19 H           7.8220   -1.1193   -6.3042 H.spc      1 <1>        0.000
     20 H           5.6292    0.2616   -7.7545 H.spc      1 <1>        0.000
@<TRIPOS>BOND
     1    6    7 2  
     2   10   11 am 
     3    9   10 1  
     4    8    9 2  
     5    5    6 am 
     6    4    5 1  
     7    1    2 1  
     8    1    8 1  
     9    2    3 1  
    10    3    4 2  
    11   11   12 2  
    12    3   13 1  
    13    4   14 1  
    14    5   15 1  
    15    6   16 1  
    16    8   17 1  
    17    9   18 1  
    18   10   19 1  
    19   11   20 1  
# Name:          frag3-195-6/31924
# Creation time: Sat Jun  5 12:52:15 2010


@<TRIPOS>MOLECULE
frag3-195-6/31924
   20    19     1     1     1
SMALL
USER_CHARGES


@<TRIPOS>ATOM
      1 S1          2.8055   -2.1451   -7.1396 S.3        1 <1>        0.000
      2 S2          4.2569   -2.6318   -5.8150 S.3        1 <1>        0.000
      3 C1          5.6343   -1.7234   -6.4935 C.2        1 <1>        0.000
      4 C2          6.4709   -1.0862   -5.6632 C.2        1 <1>        0.000
      5 N1          7.5843   -0.3808   -5.9840 N.am       1 <1>        0.000
      6 C9          8.1295   -0.1802   -7.2069 C.2        1 <1>        0.000
      7 O1          7.6628   -0.5690   -8.2653 O.2        1 <1>        0.000
      8 C20         1.5450   -1.5235   -6.0411 C.2        1 <1>        0.000
      9 C21         0.2905   -1.9730   -6.1746 C.2        1 <1>        0.000
     10 N5         -0.7898   -1.6505   -5.4231 N.am       1 <1>        0.000
     11 C28        -2.0673   -2.0863   -5.5368 C.2        1 <1>        0.000
     12 O4         -2.5080   -2.7601   -6.4539 O.2        1 <1>        0.000
     13 H           5.7935   -1.6872   -7.5712 H.spc      1 <1>        0.000
     14 H           6.2275   -1.1413   -4.6022 H.spc      1 <1>        0.000
     15 H           8.0742    0.0549   -5.2026 H.spc      1 <1>        0.000
     16 H           9.0657    0.3764   -7.2498 H.spc      1 <1>        0.000
     17 H           1.7918   -0.7898   -5.2737 H.spc      1 <1>        0.000
     18 H           0.1181   -2.6825   -6.9839 H.spc      1 <1>        0.000
     19 H          -0.6172   -0.9878   -4.6671 H.spc      1 <1>        0.000
     20 H          -2.7605   -1.8119   -4.7417 H.spc      1 <1>        0.000
@<TRIPOS>BOND
     1    6    7 2  
     2   10   11 am 
     3    9   10 1  
     4    8    9 2  
     5    5    6 am 
     6    4    5 1  
     7    1    2 1  
     8    1    8 1  
     9    2    3 1  
    10    3    4 2  
    11   11   12 2  
    12    3   13 1  
    13    4   14 1  
    14    5   15 1  
    15    6   16 1  
    16    8   17 1  
    17    9   18 1  
    18   10   19 1  
    19   11   20 1  
# Name:          frag3-195-6/31924
# Creation time: Sat Jun  5 12:52:15 2010


@<TRIPOS>MOLECULE
frag3-195-6/31924
   20    19     1     1     1
SMALL
USER_CHARGES


@<TRIPOS>ATOM
      1 S1          4.2185   -3.2893   -5.7182 S.3        1 <1>        0.000
      2 S2          3.0306   -1.8385   -4.9525 S.3        1 <1>        0.000
      3 C1          1.8048   -1.7044   -6.2390 C.2        1 <1>        0.000
      4 C2          0.5086   -1.8269   -5.9243 C.2        1 <1>        0.000
      5 N1         -0.5637   -1.7239   -6.7474 N.am       1 <1>        0.000
      6 C9         -1.8651   -1.9775   -6.4770 C.2        1 <1>        0.000
      7 O1         -2.3108   -2.3297   -5.3968 O.2        1 <1>        0.000
      8 C20         5.6696   -2.3429   -6.1323 C.2        1 <1>        0.000
      9 C21         5.5375   -1.2576   -6.9106 C.2        1 <1>        0.000
     10 N5          6.5044   -0.3986   -7.3034 N.am       1 <1>        0.000
     11 C28         7.8138   -0.3724   -6.9551 C.2        1 <1>        0.000
     12 O4          8.6662    0.3516   -7.4403 O.2        1 <1>        0.000
     13 H           2.1066   -1.5246   -7.2709 H.spc      1 <1>        0.000
     14 H           0.2888   -2.0351   -4.8772 H.spc      1 <1>        0.000
     15 H          -0.3625   -1.4136   -7.6980 H.spc      1 <1>        0.000
     16 H          -2.5764   -1.8569   -7.2941 H.spc      1 <1>        0.000
     17 H           6.6496   -2.6406   -5.7594 H.spc      1 <1>        0.000
     18 H           4.5305   -1.0433   -7.2686 H.spc      1 <1>        0.000
     19 H           6.2074    0.3308   -7.9516 H.spc      1 <1>        0.000
     20 H           8.1332   -1.0596   -6.1716 H.spc      1 <1>        0.000
@<TRIPOS>BOND
     1    6    7 2  
     2   10   11 am 
     3    9   10 1  
     4    8    9 2  
     5    5    6 am 
     6    4    5 1  
     7    1    2 1  
     8    1    8 1  
     9    2    3 1  
    10    3    4 2  
    11   11   12 2  
    12    3   13 1  
    13    4   14 1  
    14    5   15 1  
    15    6   16 1  
    16    8   17 1  
    17    9   18 1  
    18   10   19 1  
    19   11   20 1  
# Name:          frag3-195-6/31924
# Creation time: Sat Jun  5 12:52:15 2010


@<TRIPOS>MOLECULE
frag3-195-6/31924
   20    19     1     1     1
SMALL
USER_CHARGES


@<TRIPOS>ATOM
      1 S1          3.2043   -3.1850   -5.6258 S.3        1 <1>        0.000
      2 S2          4.3926   -3.3123   -7.2598 S.3        1 <1>        0.000
      3 C1          5.3379   -1.8124   -7.0930 C.2        1 <1>        0.000
      4 C2          6.2423   -1.7167   -6.1056 C.2        1 <1>        0.000
      5 N1          7.0764   -0.6829   -5.8364 N.am       1 <1>        0.000
      6 C9          7.2686    0.4501   -6.5522 C.2        1 <1>        0.000
      7 O1          6.6814    0.7504   -7.5794 O.2        1 <1>        0.000
      8 C20         1.5921   -3.1912   -6.3809 C.2        1 <1>        0.000
      9 C21         0.6979   -2.2620   -6.0224 C.2        1 <1>        0.000
     10 N5         -0.5560   -2.0850   -6.5015 N.am       1 <1>        0.000
     11 C28        -1.5128   -1.2205   -6.0874 C.2        1 <1>        0.000
     12 O4         -1.4099   -0.4423   -5.1526 O.2        1 <1>        0.000
     13 H           5.1842   -0.9831   -7.7834 H.spc      1 <1>        0.000
     14 H           6.3147   -2.5757   -5.4386 H.spc      1 <1>        0.000
     15 H           7.6308   -0.7697   -4.9847 H.spc      1 <1>        0.000
     16 H           8.0117    1.1549   -6.1791 H.spc      1 <1>        0.000
     17 H           1.3360   -3.9434   -7.1270 H.spc      1 <1>        0.000
     18 H           1.0183   -1.5623   -5.2505 H.spc      1 <1>        0.000
     19 H          -0.8163   -2.6865   -7.2831 H.spc      1 <1>        0.000
     20 H          -2.4549   -1.2196   -6.6355 H.spc      1 <1>        0.000
@<TRIPOS>BOND
     1    6    7 2  
     2   10   11 am 
     3    9   10 1  
     4    8    9 2  
     5    5    6 am 
     6    4    5 1  
     7    1    2 1  
     8    1    8 1  
     9    2    3 1  
    10    3    4 2  
    11   11   12 2  
    12    3   13 1  
    13    4   14 1  
    14    5   15 1  
    15    6   16 1  
    16    8   17 1  
    17    9   18 1  
    18   10   19 1  
    19   11   20 1  
# Name:          frag3-195-6/31924
# Creation time: Sat Jun  5 12:52:15 2010


@<TRIPOS>MOLECULE
frag3-195-6/31924
   20    19     1     1     1
SMALL
USER_CHARGES


@<TRIPOS>ATOM
      1 S1          2.8777   -2.5095   -7.4025 S.3        1 <1>        0.000
      2 S2          3.7470   -2.9558   -5.6260 S.3        1 <1>        0.000
      3 C1          4.8840   -1.5946   -5.4724 C.2        1 <1>        0.000
      4 C2          5.8634   -1.4560   -6.3795 C.2        1 <1>        0.000
      5 N1          6.7944   -0.4781   -6.4606 N.am       1 <1>        0.000
      6 C9          7.7398   -0.2778   -7.4077 C.2        1 <1>        0.000
      7 O1          8.5911    0.5946   -7.3949 O.2        1 <1>        0.000
      8 C20         1.2385   -2.0711   -6.8670 C.2        1 <1>        0.000
      9 C21         0.5465   -2.9428   -6.1162 C.2        1 <1>        0.000
     10 N5         -0.6893   -2.7861   -5.5872 N.am       1 <1>        0.000
     11 C28        -1.4495   -1.6658   -5.5290 C.2        1 <1>        0.000
     12 O4         -1.1291   -0.5669   -5.9538 O.2        1 <1>        0.000
     13 H           4.7860   -0.8831   -4.6525 H.spc      1 <1>        0.000
     14 H           5.9151   -2.2282   -7.1470 H.spc      1 <1>        0.000
     15 H           6.7821    0.2035   -5.7019 H.spc      1 <1>        0.000
     16 H           7.7402   -0.9582   -8.2593 H.spc      1 <1>        0.000
     17 H           0.8034   -1.1108   -7.1439 H.spc      1 <1>        0.000
     18 H           1.0399   -3.8920   -5.9073 H.spc      1 <1>        0.000
     19 H          -1.1039   -3.6232   -5.1775 H.spc      1 <1>        0.000
     20 H          -2.4310   -1.7532   -5.0631 H.spc      1 <1>        0.000
@<TRIPOS>BOND
     1    6    7 2  
     2   10   11 am 
     3    9   10 1  
     4    8    9 2  
     5    5    6 am 
     6    4    5 1  
     7    1    2 1  
     8    1    8 1  
     9    2    3 1  
    10    3    4 2  
    11   11   12 2  
    12    3   13 1  
    13    4   14 1  
    14    5   15 1  
    15    6   16 1  
    16    8   17 1  
    17    9   18 1  
    18   10   19 1  
    19   11   20 1  
# Name:          frag3-195-6/31924
# Creation time: Sat Jun  5 12:52:15 2010


@<TRIPOS>MOLECULE
frag3-195-6/31924
   20    19     1     1     1
SMALL
USER_CHARGES


@<TRIPOS>ATOM
      1 S1          2.9360   -1.0923   -6.4253 S.3        1 <1>        0.000
      2 S2          3.9922   -2.0377   -4.9760 S.3        1 <1>        0.000
      3 C1          5.5039   -2.3896   -5.8626 C.2        1 <1>        0.000
      4 C2          6.2072   -1.3677   -6.3733 C.2        1 <1>        0.000
      5 N1          7.3875   -1.4255   -7.0409 N.am       1 <1>        0.000
      6 C9          8.1525   -0.4048   -7.4935 C.2        1 <1>        0.000
      7 O1          7.9116    0.7820   -7.3462 O.2        1 <1>        0.000
      8 C20         1.6169   -2.2680   -6.6901 C.2        1 <1>        0.000
      9 C21         0.3801   -1.9492   -6.2848 C.2        1 <1>        0.000
     10 N5         -0.7491   -2.6871   -6.4201 N.am       1 <1>        0.000
     11 C28        -2.0041   -2.4085   -5.9926 C.2        1 <1>        0.000
     12 O4         -2.3203   -1.4615   -5.2915 O.2        1 <1>        0.000
     13 H           5.8482   -3.4164   -5.9861 H.spc      1 <1>        0.000
     14 H           5.7806   -0.3741   -6.2359 H.spc      1 <1>        0.000
     15 H           7.7455   -2.3625   -7.2261 H.spc      1 <1>        0.000
     16 H           9.0613   -0.6654   -8.0359 H.spc      1 <1>        0.000
     17 H           1.8143   -3.2256   -7.1718 H.spc      1 <1>        0.000
     18 H           0.2691   -0.9849   -5.7889 H.spc      1 <1>        0.000
     19 H          -0.6386   -3.5741   -6.9114 H.spc      1 <1>        0.000
     20 H          -2.7986   -3.0880   -6.3012 H.spc      1 <1>        0.000
@<TRIPOS>BOND
     1    6    7 2  
     2   10   11 am 
     3    9   10 1  
     4    8    9 2  
     5    5    6 am 
     6    4    5 1  
     7    1    2 1  
     8    1    8 1  
     9    2    3 1  
    10    3    4 2  
    11   11   12 2  
    12    3   13 1  
    13    4   14 1  
    14    5   15 1  
    15    6   16 1  
    16    8   17 1  
    17    9   18 1  
    18   10   19 1  
    19   11   20 1  
# Name:          frag3-195-6/31924
# Creation time: Sat Jun  5 12:52:15 2010


@<TRIPOS>MOLECULE
frag3-195-6/31924
   20    19     1     1     1
SMALL
USER_CHARGES


@<TRIPOS>ATOM
      1 S1          3.0974   -2.7755   -5.1626 S.3        1 <1>        0.000
      2 S2          4.3832   -3.2506   -6.6516 S.3        1 <1>        0.000
      3 C1          5.3957   -1.7835   -6.6913 C.2        1 <1>        0.000
      4 C2          6.7196   -1.9065   -6.8589 C.2        1 <1>        0.000
      5 N1          7.6427   -0.9170   -6.9497 N.am       1 <1>        0.000
      6 C9          7.4452    0.4221   -6.9242 C.2        1 <1>        0.000
      7 O1          6.3687    0.9790   -6.7819 O.2        1 <1>        0.000
      8 C20         1.5345   -3.1259   -5.9453 C.2        1 <1>        0.000
      9 C21         0.5595   -2.2098   -5.8908 C.2        1 <1>        0.000
     10 N5         -0.6745   -2.2773   -6.4455 N.am       1 <1>        0.000
     11 C28        -1.7279   -1.4413   -6.2843 C.2        1 <1>        0.000
     12 O4         -1.7295   -0.4236   -5.6108 O.2        1 <1>        0.000
     13 H           4.9432   -0.7981   -6.5805 H.spc      1 <1>        0.000
     14 H           7.1007   -2.9252   -6.9310 H.spc      1 <1>        0.000
     15 H           8.6111   -1.2211   -7.0502 H.spc      1 <1>        0.000
     16 H           8.3232    1.0574   -7.0408 H.spc      1 <1>        0.000
     17 H           1.3748   -4.0728   -6.4611 H.spc      1 <1>        0.000
     18 H           0.7858   -1.3009   -5.3333 H.spc      1 <1>        0.000
     19 H          -0.8322   -3.0672   -7.0713 H.spc      1 <1>        0.000
     20 H          -2.6529   -1.6995   -6.8000 H.spc      1 <1>        0.000
@<TRIPOS>BOND
     1    6    7 2  
     2   10   11 am 
     3    9   10 1  
     4    8    9 2  
     5    5    6 am 
     6    4    5 1  
     7    1    2 1  
     8    1    8 1  
     9    2    3 1  
    10    3    4 2  
    11   11   12 2  
    12    3   13 1  
    13    4   14 1  
    14    5   15 1  
    15    6   16 1  
    16    8   17 1  
    17    9   18 1  
    18   10   19 1  
    19   11   20 1  
# Name:          frag3-195-6/31924
# Creation time: Sat Jun  5 12:52:15 2010


@<TRIPOS>MOLECULE
frag3-195-6/31924
   20    19     1     1     1
SMALL
USER_CHARGES


@<TRIPOS>ATOM
      1 S1          3.0902   -3.2697   -7.1937 S.3        1 <1>        0.000
      2 S2          4.2674   -3.4953   -5.5581 S.3        1 <1>        0.000
      3 C1          5.7859   -2.7613   -6.1552 C.2        1 <1>        0.000
      4 C2          5.8451   -1.4297   -6.3032 C.2        1 <1>        0.000
      5 N1          6.9088   -0.6885   -6.7048 N.am       1 <1>        0.000
      6 C9          6.9609    0.6354   -6.9816 C.2        1 <1>        0.000
      7 O1          7.9532    1.2486   -7.3364 O.2        1 <1>        0.000
      8 C20         1.4702   -3.2861   -6.4362 C.2        1 <1>        0.000
      9 C21         0.7687   -2.1449   -6.3962 C.2        1 <1>        0.000
     10 N5         -0.4777   -1.9611   -5.8959 N.am       1 <1>        0.000
     11 C28        -1.2024   -0.8194   -5.8114 C.2        1 <1>        0.000
     12 O4         -2.3558   -0.7380   -5.4243 O.2        1 <1>        0.000
     13 H           6.6472   -3.3851   -6.3943 H.spc      1 <1>        0.000
     14 H           4.9329   -0.8786   -6.0744 H.spc      1 <1>        0.000
     15 H           7.7863   -1.1972   -6.8124 H.spc      1 <1>        0.000
     16 H           6.0357    1.2024   -6.8784 H.spc      1 <1>        0.000
     17 H           1.0619   -4.2052   -6.0158 H.spc      1 <1>        0.000
     18 H           1.2561   -1.2638   -6.8137 H.spc      1 <1>        0.000
     19 H          -0.9331   -2.7984   -5.5327 H.spc      1 <1>        0.000
     20 H          -0.7124    0.1055   -6.1155 H.spc      1 <1>        0.000
@<TRIPOS>BOND
     1    6    7 2  
     2   10   11 am 
     3    9   10 1  
     4    8    9 2  
     5    5    6 am 
     6    4    5 1  
     7    1    2 1  
     8    1    8 1  
     9    2    3 1  
    10    3    4 2  
    11   11   12 2  
    12    3   13 1  
    13    4   14 1  
    14    5   15 1  
    15    6   16 1  
    16    8   17 1  
    17    9   18 1  
    18   10   19 1  
    19   11   20 1  
# Name:          frag3-195-6/31924
# Creation time: Sat Jun  5 12:52:15 2010


@<TRIPOS>MOLECULE
frag3-195-6/31924
   20    19     1     1     1
SMALL
USER_CHARGES


@<TRIPOS>ATOM
      1 S1          3.2113   -2.9115   -6.7439 S.3        1 <1>        0.000
      2 S2          4.6424   -3.0040   -5.3138 S.3        1 <1>        0.000
      3 C1          5.7575   -1.7395   -5.8904 C.2        1 <1>        0.000
      4 C2          6.1706   -1.7683   -7.1679 C.2        1 <1>        0.000
      5 N1          6.9795   -0.8840   -7.8014 N.am       1 <1>        0.000
      6 C9          7.5316    0.2508   -7.3112 C.2        1 <1>        0.000
      7 O1          7.2562    0.7709   -6.2419 O.2        1 <1>        0.000
      8 C20         1.7529   -2.6831   -5.7473 C.2        1 <1>        0.000
      9 C21         0.6473   -2.1840   -6.3128 C.2        1 <1>        0.000
     10 N5         -0.5563   -1.9677   -5.7355 N.am       1 <1>        0.000
     11 C28        -1.6799   -1.4331   -6.2706 C.2        1 <1>        0.000
     12 O4         -2.6984   -1.1564   -5.6600 O.2        1 <1>        0.000
     13 H           6.0993   -0.9542   -5.2162 H.spc      1 <1>        0.000
     14 H           5.8119   -2.6043   -7.7684 H.spc      1 <1>        0.000
     15 H           7.2008   -1.1017   -8.7730 H.spc      1 <1>        0.000
     16 H           8.2871    0.7423   -7.9242 H.spc      1 <1>        0.000
     17 H           1.7607   -2.9466   -4.6897 H.spc      1 <1>        0.000
     18 H           0.7267   -1.9196   -7.3673 H.spc      1 <1>        0.000
     19 H          -0.6283   -2.2471   -4.7572 H.spc      1 <1>        0.000
     20 H          -1.6730   -1.2325   -7.3420 H.spc      1 <1>        0.000
@<TRIPOS>BOND
     1    6    7 2  
     2   10   11 am 
     3    9   10 1  
     4    8    9 2  
     5    5    6 am 
     6    4    5 1  
     7    1    2 1  
     8    1    8 1  
     9    2    3 1  
    10    3    4 2  
    11   11   12 2  
    12    3   13 1  
    13    4   14 1  
    14    5   15 1  
    15    6   16 1  
    16    8   17 1  
    17    9   18 1  
    18   10   19 1  
    19   11   20 1  
# Name:          frag3-195-6/31924
# Creation time: Sat Jun  5 12:52:15 2010


@<TRIPOS>MOLECULE
frag3-195-6/31924
   20    19     1     1     1
SMALL
USER_CHARGES


@<TRIPOS>ATOM
      1 S1          3.1326   -3.2616   -5.1971 S.3        1 <1>        0.000
      2 S2          4.0342   -3.7624   -6.9389 S.3        1 <1>        0.000
      3 C1          5.6159   -2.9719   -6.7241 C.2        1 <1>        0.000
      4 C2          5.6968   -1.6352   -6.7986 C.2        1 <1>        0.000
      5 N1          6.7907   -0.8542   -6.6237 N.am       1 <1>        0.000
      6 C9          6.9083    0.4846   -6.7811 C.2        1 <1>        0.000
      7 O1          6.0581    1.2219   -7.2534 O.2        1 <1>        0.000
      8 C20         1.7176   -2.3607   -5.7931 C.2        1 <1>        0.000
      9 C21         0.6345   -2.2546   -5.0132 C.2        1 <1>        0.000
     10 N5         -0.5178   -1.5939   -5.2759 N.am       1 <1>        0.000
     11 C28        -0.8761   -0.9312   -6.4024 C.2        1 <1>        0.000
     12 O4         -0.1804   -0.7907   -7.3956 O.2        1 <1>        0.000
     13 H           6.5084   -3.5681   -6.5342 H.spc      1 <1>        0.000
     14 H           4.7683   -1.1124   -7.0281 H.spc      1 <1>        0.000
     15 H           7.6391   -1.3410   -6.3346 H.spc      1 <1>        0.000
     16 H           7.8426    0.9440   -6.4584 H.spc      1 <1>        0.000
     17 H           1.7328   -1.9009   -6.7813 H.spc      1 <1>        0.000
     18 H           0.6867   -2.7617   -4.0498 H.spc      1 <1>        0.000
     19 H          -1.2086   -1.5951   -4.5255 H.spc      1 <1>        0.000
     20 H          -1.8706   -0.4855   -6.4234 H.spc      1 <1>        0.000
@<TRIPOS>BOND
     1    6    7 2  
     2   10   11 am 
     3    9   10 1  
     4    8    9 2  
     5    5    6 am 
     6    4    5 1  
     7    1    2 1  
     8    1    8 1  
     9    2    3 1  
    10    3    4 2  
    11   11   12 2  
    12    3   13 1  
    13    4   14 1  
    14    5   15 1  
    15    6   16 1  
    16    8   17 1  
    17    9   18 1  
    18   10   19 1  
    19   11   20 1  
# Name:          frag3-195-6/31924
# Creation time: Sat Jun  5 12:52:15 2010


@<TRIPOS>MOLECULE
frag3-195-6/31924
   20    19     1     1     1
SMALL
USER_CHARGES


@<TRIPOS>ATOM
      1 S1          2.9591   -2.3677   -6.7449 S.3        1 <1>        0.000
      2 S2          4.2350   -2.1970   -5.1808 S.3        1 <1>        0.000
      3 C1          5.5843   -1.3297   -5.9599 C.2        1 <1>        0.000
      4 C2          6.3720   -1.9911   -6.8221 C.2        1 <1>        0.000
      5 N1          7.4139   -1.5027   -7.5397 N.am       1 <1>        0.000
      6 C9          7.9863   -0.2782   -7.4644 C.2        1 <1>        0.000
      7 O1          7.7023    0.5903   -6.6554 O.2        1 <1>        0.000
      8 C20         1.5825   -1.3978   -6.1590 C.2        1 <1>        0.000
      9 C21         0.3714   -1.9656   -6.0916 C.2        1 <1>        0.000
     10 N5         -0.7815   -1.4107   -5.6468 N.am       1 <1>        0.000
     11 C28        -2.0452   -1.8914   -5.7279 C.2        1 <1>        0.000
     12 O4         -2.3655   -2.9684   -6.2044 O.2        1 <1>        0.000
     13 H           5.7666   -0.2780   -5.7392 H.spc      1 <1>        0.000
     14 H           6.1471   -3.0484   -6.9625 H.spc      1 <1>        0.000
     15 H           7.8187   -2.1406   -8.2250 H.spc      1 <1>        0.000
     16 H           8.7679   -0.0482   -8.1885 H.spc      1 <1>        0.000
     17 H           1.7244   -0.3591   -5.8604 H.spc      1 <1>        0.000
     18 H           0.3056   -2.9977   -6.4359 H.spc      1 <1>        0.000
     19 H          -0.6845   -0.5054   -5.1871 H.spc      1 <1>        0.000
     20 H          -2.8440   -1.2630   -5.3341 H.spc      1 <1>        0.000
@<TRIPOS>BOND
     1    6    7 2  
     2   10   11 am 
     3    9   10 1  
     4    8    9 2  
     5    5    6 am 
     6    4    5 1  
     7    1    2 1  
     8    1    8 1  
     9    2    3 1  
    10    3    4 2  
    11   11   12 2  
    12    3   13 1  
    13    4   14 1  
    14    5   15 1  
    15    6   16 1  
    16    8   17 1  
    17    9   18 1  
    18   10   19 1  
    19   11   20 1  
# Name:          frag3-195-6/31924
# Creation time: Sat Jun  5 12:52:15 2010


@<TRIPOS>MOLECULE
frag3-195-6/31924
   20    19     1     1     1
SMALL
USER_CHARGES


@<TRIPOS>ATOM
      1 S1          2.9797   -4.2340   -5.4306 S.3        1 <1>        0.000
      2 S2          4.2487   -4.4095   -6.9996 S.3        1 <1>        0.000
      3 C1          5.3779   -3.0729   -6.6492 C.2        1 <1>        0.000
      4 C2          4.9472   -1.8071   -6.7593 C.2        1 <1>        0.000
      5 N1          5.6343   -0.6676   -6.4994 N.am       1 <1>        0.000
      6 C9          5.1936    0.6114   -6.5309 C.2        1 <1>        0.000
      7 O1          4.0831    0.9717   -6.8861 O.2        1 <1>        0.000
      8 C20         2.0127   -2.8247   -5.9405 C.2        1 <1>        0.000
      9 C21         1.9206   -1.7673   -5.1229 C.2        1 <1>        0.000
     10 N5          1.2662   -0.6023   -5.3439 N.am       1 <1>        0.000
     11 C28         0.6491   -0.1781   -6.4734 C.2        1 <1>        0.000
     12 O4          0.7016   -0.7295   -7.5611 O.2        1 <1>        0.000
     13 H           6.4047   -3.2823   -6.3495 H.spc      1 <1>        0.000
     14 H           3.9195   -1.6792   -7.0992 H.spc      1 <1>        0.000
     15 H           6.6147   -0.7909   -6.2462 H.spc      1 <1>        0.000
     16 H           5.8904    1.3864   -6.2116 H.spc      1 <1>        0.000
     17 H           1.5035   -2.8237   -6.9043 H.spc      1 <1>        0.000
     18 H           2.4337   -1.8552   -4.1653 H.spc      1 <1>        0.000
     19 H           1.2334    0.0424   -4.5541 H.spc      1 <1>        0.000
     20 H           0.0552    0.7333   -6.4047 H.spc      1 <1>        0.000
@<TRIPOS>BOND
     1    6    7 2  
     2   10   11 am 
     3    9   10 1  
     4    8    9 2  
     5    5    6 am 
     6    4    5 1  
     7    1    2 1  
     8    1    8 1  
     9    2    3 1  
    10    3    4 2  
    11   11   12 2  
    12    3   13 1  
    13    4   14 1  
    14    5   15 1  
    15    6   16 1  
    16    8   17 1  
    17    9   18 1  
    18   10   19 1  
    19   11   20 1  
# Name:          frag3-195-6/31924
# Creation time: Sat Jun  5 12:52:15 2010


@<TRIPOS>MOLECULE
frag3-195-6/31924
   20    19     1     1     1
SMALL
USER_CHARGES


@<TRIPOS>ATOM
      1 S1          4.2945   -3.6113   -6.3114 S.3        1 <1>        0.000
      2 S2          3.0571   -3.5022   -7.9098 S.3        1 <1>        0.000
      3 C1          1.7737   -2.4653   -7.2618 C.2        1 <1>        0.000
      4 C2          1.2145   -2.7666   -6.0766 C.2        1 <1>        0.000
      5 N1          0.2636   -2.0891   -5.4034 N.am       1 <1>        0.000
      6 C9         -0.4637   -1.0211   -5.8071 C.2        1 <1>        0.000
      7 O1         -1.2591   -0.3950   -5.1292 O.2        1 <1>        0.000
      8 C20         5.2984   -2.1739   -6.5639 C.2        1 <1>        0.000
      9 C21         4.8982   -0.9877   -6.0822 C.2        1 <1>        0.000
     10 N5          5.5314    0.2036   -6.1519 N.am       1 <1>        0.000
     11 C28         6.7946    0.4654   -6.5671 C.2        1 <1>        0.000
     12 O4          7.6113   -0.3667   -6.9325 O.2        1 <1>        0.000
     13 H           1.4404   -1.5902   -7.8197 H.spc      1 <1>        0.000
     14 H           1.5772   -3.6765   -5.5985 H.spc      1 <1>        0.000
     15 H           0.0649   -2.4270   -4.4617 H.spc      1 <1>        0.000
     16 H          -0.3245   -0.6899   -6.8362 H.spc      1 <1>        0.000
     17 H           6.2388   -2.2531   -7.1092 H.spc      1 <1>        0.000
     18 H           3.9373   -0.9846   -5.5677 H.spc      1 <1>        0.000
     19 H           4.9870    1.0126   -5.8526 H.spc      1 <1>        0.000
     20 H           7.1094    1.5089   -6.5758 H.spc      1 <1>        0.000
@<TRIPOS>BOND
     1    6    7 2  
     2   10   11 am 
     3    9   10 1  
     4    8    9 2  
     5    5    6 am 
     6    4    5 1  
     7    1    2 1  
     8    1    8 1  
     9    2    3 1  
    10    3    4 2  
    11   11   12 2  
    12    3   13 1  
    13    4   14 1  
    14    5   15 1  
    15    6   16 1  
    16    8   17 1  
    17    9   18 1  
    18   10   19 1  
    19   11   20 1  
# Name:          frag3-195-6/31924
# Creation time: Sat Jun  5 12:52:15 2010


@<TRIPOS>MOLECULE
frag3-195-6/31924
   20    19     1     1     1
SMALL
USER_CHARGES


@<TRIPOS>ATOM
      1 S1          2.8078   -1.0254   -7.1604 S.3        1 <1>        0.000
      2 S2          3.5755   -1.3139   -5.3052 S.3        1 <1>        0.000
      3 C1          5.1766   -0.5398   -5.5001 C.2        1 <1>        0.000
      4 C2          6.0873   -1.1295   -6.2885 C.2        1 <1>        0.000
      5 N1          7.3326   -0.6825   -6.5913 N.am       1 <1>        0.000
      6 C9          8.2389   -1.2168   -7.4430 C.2        1 <1>        0.000
      7 O1          9.3577   -0.7812   -7.6548 O.2        1 <1>        0.000
      8 C20         1.4266   -2.1611   -7.1226 C.2        1 <1>        0.000
      9 C21         0.3965   -1.8901   -6.3084 C.2        1 <1>        0.000
     10 N5         -0.7456   -2.6049   -6.1594 N.am       1 <1>        0.000
     11 C28        -1.7937   -2.3741   -5.3322 C.2        1 <1>        0.000
     12 O4         -2.8457   -2.9905   -5.3310 O.2        1 <1>        0.000
     13 H           5.4077    0.3940   -4.9875 H.spc      1 <1>        0.000
     14 H           5.7933   -2.0778   -6.7383 H.spc      1 <1>        0.000
     15 H           7.6245    0.1699   -6.1132 H.spc      1 <1>        0.000
     16 H           7.9428   -2.1141   -7.9865 H.spc      1 <1>        0.000
     17 H           1.4224   -3.0540   -7.7478 H.spc      1 <1>        0.000
     18 H           0.4878   -0.9927   -5.6965 H.spc      1 <1>        0.000
     19 H          -0.8273   -3.4310   -6.7521 H.spc      1 <1>        0.000
     20 H          -1.6873   -1.5685   -4.6057 H.spc      1 <1>        0.000
@<TRIPOS>BOND
     1    6    7 2  
     2   10   11 am 
     3    9   10 1  
     4    8    9 2  
     5    5    6 am 
     6    4    5 1  
     7    1    2 1  
     8    1    8 1  
     9    2    3 1  
    10    3    4 2  
    11   11   12 2  
    12    3   13 1  
    13    4   14 1  
    14    5   15 1  
    15    6   16 1  
    16    8   17 1  
    17    9   18 1  
    18   10   19 1  
    19   11   20 1  
# Name:          frag3-195-6/31924
# Creation time: Sat Jun  5 12:52:15 2010


@<TRIPOS>MOLECULE
frag3-195-6/31924
   20    19     1     1     1
SMALL
USER_CHARGES


@<TRIPOS>ATOM
      1 S1          4.1030   -3.1787   -6.2343 S.3        1 <1>        0.000
      2 S2          2.9840   -2.9838   -7.9086 S.3        1 <1>        0.000
      3 C1          1.5250   -2.2254   -7.2437 C.2        1 <1>        0.000
      4 C2          0.9285   -2.7726   -6.1703 C.2        1 <1>        0.000
      5 N1         -0.1548   -2.3286   -5.4998 N.am       1 <1>        0.000
      6 C9         -0.9407   -1.2602   -5.7715 C.2        1 <1>        0.000
      7 O1         -1.8593   -0.8514   -5.0833 O.2        1 <1>        0.000
      8 C20         5.3798   -1.9868   -6.5335 C.2        1 <1>        0.000
      9 C21         5.6039   -1.0131   -5.6424 C.2        1 <1>        0.000
     10 N5          6.5414   -0.0399   -5.6824 N.am       1 <1>        0.000
     11 C28         7.4281    0.2393   -6.6683 C.2        1 <1>        0.000
     12 O4          7.4757   -0.3085   -7.7591 O.2        1 <1>        0.000
     13 H           1.1160   -1.3244   -7.7009 H.spc      1 <1>        0.000
     14 H           1.3771   -3.6919   -5.7938 H.spc      1 <1>        0.000
     15 H          -0.4172   -2.8712   -4.6769 H.spc      1 <1>        0.000
     16 H          -0.7322   -0.7148   -6.6919 H.spc      1 <1>        0.000
     17 H           5.9811   -2.0463   -7.4407 H.spc      1 <1>        0.000
     18 H           4.9462   -1.0038   -4.7733 H.spc      1 <1>        0.000
     19 H           6.5874    0.5642   -4.8618 H.spc      1 <1>        0.000
     20 H           8.1624    1.0203   -6.4709 H.spc      1 <1>        0.000
@<TRIPOS>BOND
     1    6    7 2  
     2   10   11 am 
     3    9   10 1  
     4    8    9 2  
     5    5    6 am 
     6    4    5 1  
     7    1    2 1  
     8    1    8 1  
     9    2    3 1  
    10    3    4 2  
    11   11   12 2  
    12    3   13 1  
    13    4   14 1  
    14    5   15 1  
    15    6   16 1  
    16    8   17 1  
    17    9   18 1  
    18   10   19 1  
    19   11   20 1  
# Name:          frag3-195-6/31924
# Creation time: Sat Jun  5 12:52:15 2010


@<TRIPOS>MOLECULE
frag3-195-6/31924
   20    19     1     1     1
SMALL
USER_CHARGES


@<TRIPOS>ATOM
      1 S1          3.2596   -3.0290   -5.4069 S.3        1 <1>        0.000
      2 S2          4.1385   -3.4501   -7.1804 S.3        1 <1>        0.000
      3 C1          5.5503   -2.3738   -7.1084 C.2        1 <1>        0.000
      4 C2          5.3777   -1.0798   -6.7915 C.2        1 <1>        0.000
      5 N1          6.3216   -0.1243   -6.6463 N.am       1 <1>        0.000
      6 C9          7.6459   -0.1940   -6.9185 C.2        1 <1>        0.000
      7 O1          8.4174    0.7481   -6.9667 O.2        1 <1>        0.000
      8 C20         1.6722   -2.4366   -5.9395 C.2        1 <1>        0.000
      9 C21         0.6512   -2.4194   -5.0747 C.2        1 <1>        0.000
     10 N5         -0.6095   -1.9848   -5.2848 N.am       1 <1>        0.000
     11 C28        -1.1368   -1.3964   -6.3858 C.2        1 <1>        0.000
     12 O4         -2.2735   -0.9698   -6.4933 O.2        1 <1>        0.000
     13 H           6.5475   -2.7600   -7.3195 H.spc      1 <1>        0.000
     14 H           4.3477   -0.7611   -6.6316 H.spc      1 <1>        0.000
     15 H           5.9922    0.7699   -6.2827 H.spc      1 <1>        0.000
     16 H           8.0601   -1.1834   -7.1123 H.spc      1 <1>        0.000
     17 H           1.5307   -2.0897   -6.9631 H.spc      1 <1>        0.000
     18 H           0.8638   -2.8039   -4.0772 H.spc      1 <1>        0.000
     19 H          -1.2551   -2.1178   -4.5064 H.spc      1 <1>        0.000
     20 H          -0.4854   -1.2955   -7.2539 H.spc      1 <1>        0.000
@<TRIPOS>BOND
     1    6    7 2  
     2   10   11 am 
     3    9   10 1  
     4    8    9 2  
     5    5    6 am 
     6    4    5 1  
     7    1    2 1  
     8    1    8 1  
     9    2    3 1  
    10    3    4 2  
    11   11   12 2  
    12    3   13 1  
    13    4   14 1  
    14    5   15 1  
    15    6   16 1  
    16    8   17 1  
    17    9   18 1  
    18   10   19 1  
    19   11   20 1  
# Name:          frag3-195-6/31924
# Creation time: Sat Jun  5 12:52:15 2010


@<TRIPOS>MOLECULE
frag3-195-6/31924
   20    19     1     1     1
SMALL
USER_CHARGES


@<TRIPOS>ATOM
      1 S1          4.3952   -2.8204   -5.4288 S.3        1 <1>        0.000
      2 S2          2.9925   -2.1441   -6.7240 S.3        1 <1>        0.000
      3 C1          1.5116   -2.3850   -5.7624 C.2        1 <1>        0.000
      4 C2          0.3260   -2.0556   -6.2901 C.2        1 <1>        0.000
      5 N1         -0.9016   -2.1980   -5.7359 N.am       1 <1>        0.000
      6 C9         -2.0999   -1.7799   -6.2055 C.2        1 <1>        0.000
      7 O1         -3.1822   -1.9886   -5.6852 O.2        1 <1>        0.000
      8 C20         5.8711   -2.1241   -6.1436 C.2        1 <1>        0.000
      9 C21         5.9054   -0.8082   -6.4043 C.2        1 <1>        0.000
     10 N5          6.9338   -0.0938   -6.9152 N.am       1 <1>        0.000
     11 C28         8.1891   -0.5047   -7.2180 C.2        1 <1>        0.000
     12 O4          9.0737    0.1926   -7.6838 O.2        1 <1>        0.000
     13 H           1.5704   -2.7964   -4.7547 H.spc      1 <1>        0.000
     14 H           0.3519   -1.6191   -7.2886 H.spc      1 <1>        0.000
     15 H          -0.9263   -2.6878   -4.8415 H.spc      1 <1>        0.000
     16 H          -2.0970   -1.2052   -7.1317 H.spc      1 <1>        0.000
     17 H           6.7312   -2.7559   -6.3653 H.spc      1 <1>        0.000
     18 H           4.9975   -0.2493   -6.1776 H.spc      1 <1>        0.000
     19 H           6.7374    0.8903   -7.0979 H.spc      1 <1>        0.000
     20 H           8.4289   -1.5509   -7.0283 H.spc      1 <1>        0.000
@<TRIPOS>BOND
     1    6    7 2  
     2   10   11 am 
     3    9   10 1  
     4    8    9 2  
     5    5    6 am 
     6    4    5 1  
     7    1    2 1  
     8    1    8 1  
     9    2    3 1  
    10    3    4 2  
    11   11   12 2  
    12    3   13 1  
    13    4   14 1  
    14    5   15 1  
    15    6   16 1  
    16    8   17 1  
    17    9   18 1  
    18   10   19 1  
    19   11   20 1  
# Name:          frag3-195-6/31924
# Creation time: Sat Jun  5 12:52:15 2010


@<TRIPOS>MOLECULE
frag3-195-6/31924
   20    19     1     1     1
SMALL
USER_CHARGES


@<TRIPOS>ATOM
      1 S1          3.1898   -2.5623   -6.9407 S.3        1 <1>        0.000
      2 S2          4.5092   -3.5378   -5.7515 S.3        1 <1>        0.000
      3 C1          5.5972   -2.1934   -5.3093 C.2        1 <1>        0.000
      4 C2          6.0968   -1.4163   -6.2825 C.2        1 <1>        0.000
      5 N1          6.9017   -0.3325   -6.1494 N.am       1 <1>        0.000
      6 C9          7.3812    0.4874   -7.1134 C.2        1 <1>        0.000
      7 O1          7.1606    0.3828   -8.3088 O.2        1 <1>        0.000
      8 C20         1.6462   -3.0238   -6.1744 C.2        1 <1>        0.000
      9 C21         0.6013   -2.1920   -6.2682 C.2        1 <1>        0.000
     10 N5         -0.6507   -2.3770   -5.7838 N.am       1 <1>        0.000
     11 C28        -1.7115   -1.5353   -5.8217 C.2        1 <1>        0.000
     12 O4         -1.7073   -0.4098   -6.2932 O.2        1 <1>        0.000
     13 H           5.8515   -2.0068   -4.2659 H.spc      1 <1>        0.000
     14 H           5.8232   -1.6885   -7.3019 H.spc      1 <1>        0.000
     15 H           7.1830   -0.1053   -5.1957 H.spc      1 <1>        0.000
     16 H           8.0191    1.3118   -6.7946 H.spc      1 <1>        0.000
     17 H           1.5552   -3.9684   -5.6381 H.spc      1 <1>        0.000
     18 H           0.7786   -1.2553   -6.7966 H.spc      1 <1>        0.000
     19 H          -0.8174   -3.2739   -5.3276 H.spc      1 <1>        0.000
     20 H          -2.6482   -1.8938   -5.3948 H.spc      1 <1>        0.000
@<TRIPOS>BOND
     1    6    7 2  
     2   10   11 am 
     3    9   10 1  
     4    8    9 2  
     5    5    6 am 
     6    4    5 1  
     7    1    2 1  
     8    1    8 1  
     9    2    3 1  
    10    3    4 2  
    11   11   12 2  
    12    3   13 1  
    13    4   14 1  
    14    5   15 1  
    15    6   16 1  
    16    8   17 1  
    17    9   18 1  
    18   10   19 1  
    19   11   20 1  
# Name:          frag3-195-6/31924
# Creation time: Sat Jun  5 12:52:15 2010


@<TRIPOS>MOLECULE
frag3-195-6/31924
   20    19     1     1     1
SMALL
USER_CHARGES


@<TRIPOS>ATOM
      1 S1          4.1779   -3.7943   -7.4515 S.3        1 <1>        0.000
      2 S2          3.0723   -4.0424   -5.7761 S.3        1 <1>        0.000
      3 C1          1.7905   -2.8382   -6.0513 C.2        1 <1>        0.000
      4 C2          1.4243   -2.0192   -5.0566 C.2        1 <1>        0.000
      5 N1          0.5058   -1.0241   -5.0858 N.am       1 <1>        0.000
      6 C9         -0.1828   -0.5482   -6.1499 C.2        1 <1>        0.000
      7 O1         -0.0221   -0.8880   -7.3115 O.2        1 <1>        0.000
      8 C20         4.7773   -2.1361   -7.2106 C.2        1 <1>        0.000
      9 C21         5.8626   -1.9383   -6.4481 C.2        1 <1>        0.000
     10 N5          6.4824   -0.7688   -6.1677 N.am       1 <1>        0.000
     11 C28         6.0741    0.4930   -6.4456 C.2        1 <1>        0.000
     12 O4          5.0522    0.7946   -7.0421 O.2        1 <1>        0.000
     13 H           1.3057   -2.7676   -7.0250 H.spc      1 <1>        0.000
     14 H           1.9294   -2.1730   -4.1030 H.spc      1 <1>        0.000
     15 H           0.3075   -0.5758   -4.1913 H.spc      1 <1>        0.000
     16 H          -0.9470    0.2036   -5.9524 H.spc      1 <1>        0.000
     17 H           4.2689   -1.2921   -7.6768 H.spc      1 <1>        0.000
     18 H           6.2994   -2.8301   -5.9986 H.spc      1 <1>        0.000
     19 H           7.3761   -0.8474   -5.6824 H.spc      1 <1>        0.000
     20 H           6.7128    1.3090   -6.1076 H.spc      1 <1>        0.000
@<TRIPOS>BOND
     1    6    7 2  
     2   10   11 am 
     3    9   10 1  
     4    8    9 2  
     5    5    6 am 
     6    4    5 1  
     7    1    2 1  
     8    1    8 1  
     9    2    3 1  
    10    3    4 2  
    11   11   12 2  
    12    3   13 1  
    13    4   14 1  
    14    5   15 1  
    15    6   16 1  
    16    8   17 1  
    17    9   18 1  
    18   10   19 1  
    19   11   20 1  
# Name:          frag3-195-6/31924
# Creation time: Sat Jun  5 12:52:15 2010


@<TRIPOS>MOLECULE
frag3-195-6/31924
   20    19     1     1     1
SMALL
USER_CHARGES


@<TRIPOS>ATOM
      1 S1          2.9235   -1.7753   -4.2434 S.3        1 <1>        0.000
      2 S2          4.2115   -3.0655   -5.1155 S.3        1 <1>        0.000
      3 C1          5.3610   -1.9346   -5.8654 C.2        1 <1>        0.000
      4 C2          5.9434   -2.2533   -7.0283 C.2        1 <1>        0.000
      5 N1          6.8076   -1.5126   -7.7627 N.am       1 <1>        0.000
      6 C9          7.0460   -0.1819   -7.6893 C.2        1 <1>        0.000
      7 O1          6.3598    0.6320   -7.0913 O.2        1 <1>        0.000
      8 C20         1.4891   -1.9754   -5.2742 C.2        1 <1>        0.000
      9 C21         0.8734   -0.8922   -5.7644 C.2        1 <1>        0.000
     10 N5         -0.2018   -0.8435   -6.5847 N.am       1 <1>        0.000
     11 C28        -0.9674   -1.8655   -7.0377 C.2        1 <1>        0.000
     12 O4         -0.8315   -3.0420   -6.7400 O.2        1 <1>        0.000
     13 H           5.5906   -0.9858   -5.3804 H.spc      1 <1>        0.000
     14 H           5.6901   -3.2322   -7.4353 H.spc      1 <1>        0.000
     15 H           7.3483   -2.0231   -8.4609 H.spc      1 <1>        0.000
     16 H           7.9267    0.1955   -8.2090 H.spc      1 <1>        0.000
     17 H           1.1137   -2.9723   -5.5054 H.spc      1 <1>        0.000
     18 H           1.2899    0.0698   -5.4657 H.spc      1 <1>        0.000
     19 H          -0.4719    0.0866   -6.9046 H.spc      1 <1>        0.000
     20 H          -1.7740   -1.6161   -7.7271 H.spc      1 <1>        0.000
@<TRIPOS>BOND
     1    6    7 2  
     2   10   11 am 
     3    9   10 1  
     4    8    9 2  
     5    5    6 am 
     6    4    5 1  
     7    1    2 1  
     8    1    8 1  
     9    2    3 1  
    10    3    4 2  
    11   11   12 2  
    12    3   13 1  
    13    4   14 1  
    14    5   15 1  
    15    6   16 1  
    16    8   17 1  
    17    9   18 1  
    18   10   19 1  
    19   11   20 1  
# Name:          frag3-195-6/31924
# Creation time: Sat Jun  5 12:52:15 2010


@<TRIPOS>MOLECULE
frag3-195-6/31924
   20    19     1     1     1
SMALL
USER_CHARGES


@<TRIPOS>ATOM
      1 S1          3.0611   -3.0479   -7.1160 S.3        1 <1>        0.000
      2 S2          4.4005   -3.5396   -5.6742 S.3        1 <1>        0.000
      3 C1          5.1286   -1.9331   -5.3603 C.2        1 <1>        0.000
      4 C2          5.9578   -1.4120   -6.2765 C.2        1 <1>        0.000
      5 N1          6.5734   -0.2016   -6.2394 N.am       1 <1>        0.000
      6 C9          7.3499    0.3790   -7.1840 C.2        1 <1>        0.000
      7 O1          7.8190   -0.1826   -8.1597 O.2        1 <1>        0.000
      8 C20         2.0360   -1.8828   -6.2220 C.2        1 <1>        0.000
      9 C21         0.7052   -2.0321   -6.2724 C.2        1 <1>        0.000
     10 N5         -0.2312   -1.2782   -5.6435 N.am       1 <1>        0.000
     11 C28        -1.5815   -1.3715   -5.7079 C.2        1 <1>        0.000
     12 O4         -2.2042   -2.2076   -6.3411 O.2        1 <1>        0.000
     13 H           4.9021   -1.3899   -4.4428 H.spc      1 <1>        0.000
     14 H           6.1610   -2.0303   -7.1508 H.spc      1 <1>        0.000
     15 H           6.4319    0.3412   -5.3875 H.spc      1 <1>        0.000
     16 H           7.5751    1.4385   -7.0623 H.spc      1 <1>        0.000
     17 H           2.4844   -1.0706   -5.6498 H.spc      1 <1>        0.000
     18 H           0.3333   -2.8513   -6.8878 H.spc      1 <1>        0.000
     19 H           0.1308   -0.5402   -5.0396 H.spc      1 <1>        0.000
     20 H          -2.1599   -0.6376   -5.1466 H.spc      1 <1>        0.000
@<TRIPOS>BOND
     1    6    7 2  
     2   10   11 am 
     3    9   10 1  
     4    8    9 2  
     5    5    6 am 
     6    4    5 1  
     7    1    2 1  
     8    1    8 1  
     9    2    3 1  
    10    3    4 2  
    11   11   12 2  
    12    3   13 1  
    13    4   14 1  
    14    5   15 1  
    15    6   16 1  
    16    8   17 1  
    17    9   18 1  
    18   10   19 1  
    19   11   20 1  
# Name:          frag3-195-6/31924
# Creation time: Sat Jun  5 12:52:15 2010


@<TRIPOS>MOLECULE
frag3-195-6/31924
   20    19     1     1     1
SMALL
USER_CHARGES


@<TRIPOS>ATOM
      1 S1          2.9038   -3.4732   -7.8444 S.3        1 <1>        0.000
      2 S2          4.1211   -3.4836   -6.2238 S.3        1 <1>        0.000
      3 C1          4.4477   -1.7350   -6.0596 C.2        1 <1>        0.000
      4 C2          5.6720   -1.2714   -6.3456 C.2        1 <1>        0.000
      5 N1          6.1012    0.0151   -6.3208 N.am       1 <1>        0.000
      6 C9          7.3274    0.5029   -6.6211 C.2        1 <1>        0.000
      7 O1          8.2435   -0.1340   -7.1150 O.2        1 <1>        0.000
      8 C20         1.5520   -2.4827   -7.2282 C.2        1 <1>        0.000
      9 C21         0.9551   -2.8469   -6.0831 C.2        1 <1>        0.000
     10 N5         -0.0552   -2.2154   -5.4417 N.am       1 <1>        0.000
     11 C28        -0.6310   -1.0222   -5.7269 C.2        1 <1>        0.000
     12 O4         -1.6230   -0.5635   -5.1867 O.2        1 <1>        0.000
     13 H           3.6620   -1.0546   -5.7313 H.spc      1 <1>        0.000
     14 H           6.4123   -2.0182   -6.6328 H.spc      1 <1>        0.000
     15 H           5.4073    0.7072   -6.0381 H.spc      1 <1>        0.000
     16 H           7.5124    1.5547   -6.4031 H.spc      1 <1>        0.000
     17 H           1.2181   -1.5990   -7.7720 H.spc      1 <1>        0.000
     18 H           1.3276   -3.7580   -5.6148 H.spc      1 <1>        0.000
     19 H          -0.4359   -2.7049   -4.6319 H.spc      1 <1>        0.000
     20 H          -0.1665   -0.4199   -6.5076 H.spc      1 <1>        0.000
@<TRIPOS>BOND
     1    6    7 2  
     2   10   11 am 
     3    9   10 1  
     4    8    9 2  
     5    5    6 am 
     6    4    5 1  
     7    1    2 1  
     8    1    8 1  
     9    2    3 1  
    10    3    4 2  
    11   11   12 2  
    12    3   13 1  
    13    4   14 1  
    14    5   15 1  
    15    6   16 1  
    16    8   17 1  
    17    9   18 1  
    18   10   19 1  
    19   11   20 1  
# Name:          frag3-195-6/31924
# Creation time: Sat Jun  5 12:52:15 2010


@<TRIPOS>MOLECULE
frag3-195-6/31924
   20    19     1     1     1
SMALL
USER_CHARGES


@<TRIPOS>ATOM
      1 S1          4.0987   -3.7078   -6.0251 S.3        1 <1>        0.000
      2 S2          3.0250   -3.2043   -7.6686 S.3        1 <1>        0.000
      3 C1          1.7123   -2.2636   -6.9149 C.2        1 <1>        0.000
      4 C2          0.7660   -2.9062   -6.2130 C.2        1 <1>        0.000
      5 N1         -0.2807   -2.3714   -5.5386 N.am       1 <1>        0.000
      6 C9         -0.6942   -1.0826   -5.5142 C.2        1 <1>        0.000
      7 O1         -0.1235   -0.1423   -6.0438 O.2        1 <1>        0.000
      8 C20         4.6395   -2.0984   -5.4835 C.2        1 <1>        0.000
      9 C21         5.4875   -1.4042   -6.2564 C.2        1 <1>        0.000
     10 N5          5.9847   -0.1641   -6.0406 N.am       1 <1>        0.000
     11 C28         6.8796    0.5361   -6.7776 C.2        1 <1>        0.000
     12 O4          7.5197    0.0989   -7.7206 O.2        1 <1>        0.000
     13 H           1.6784   -1.1795   -7.0227 H.spc      1 <1>        0.000
     14 H           0.8497   -3.9925   -6.1815 H.spc      1 <1>        0.000
     15 H          -0.8275   -3.0241   -4.9770 H.spc      1 <1>        0.000
     16 H          -1.6164   -0.8657   -4.9751 H.spc      1 <1>        0.000
     17 H           4.2865   -1.6848   -4.5388 H.spc      1 <1>        0.000
     18 H           5.8165   -1.8992   -7.1701 H.spc      1 <1>        0.000
     19 H           5.6370    0.3092   -5.2066 H.spc      1 <1>        0.000
     20 H           7.0421    1.5790   -6.5055 H.spc      1 <1>        0.000
@<TRIPOS>BOND
     1    6    7 2  
     2   10   11 am 
     3    9   10 1  
     4    8    9 2  
     5    5    6 am 
     6    4    5 1  
     7    1    2 1  
     8    1    8 1  
     9    2    3 1  
    10    3    4 2  
    11   11   12 2  
    12    3   13 1  
    13    4   14 1  
    14    5   15 1  
    15    6   16 1  
    16    8   17 1  
    17    9   18 1  
    18   10   19 1  
    19   11   20 1  
# Name:          frag3-195-6/31924
# Creation time: Sat Jun  5 12:52:15 2010


@<TRIPOS>MOLECULE
frag3-195-6/31924
   20    19     1     1     1
SMALL
USER_CHARGES


@<TRIPOS>ATOM
      1 S1          3.9492   -2.5350   -5.3552 S.3        1 <1>        0.000
      2 S2          2.8862   -2.1018   -7.0233 S.3        1 <1>        0.000
      3 C1          1.2308   -2.0879   -6.3625 C.2        1 <1>        0.000
      4 C2          0.1951   -1.8959   -7.1898 C.2        1 <1>        0.000
      5 N1         -1.1260   -1.8912   -6.8840 N.am       1 <1>        0.000
      6 C9         -1.7119   -2.1115   -5.6836 C.2        1 <1>        0.000
      7 O1         -1.1349   -2.4482   -4.6622 O.2        1 <1>        0.000
      8 C20         5.0857   -1.1626   -5.3205 C.2        1 <1>        0.000
      9 C21         6.0740   -1.1188   -6.2259 C.2        1 <1>        0.000
     10 N5          7.0108   -0.1538   -6.3851 N.am       1 <1>        0.000
     11 C28         8.0770   -0.1307   -7.2202 C.2        1 <1>        0.000
     12 O4          8.4786   -1.0724   -7.8845 O.2        1 <1>        0.000
     13 H           1.0630   -2.2342   -5.2955 H.spc      1 <1>        0.000
     14 H           0.4446   -1.7222   -8.2366 H.spc      1 <1>        0.000
     15 H          -1.7604   -1.6965   -7.6586 H.spc      1 <1>        0.000
     16 H          -2.7919   -1.9766   -5.6242 H.spc      1 <1>        0.000
     17 H           4.9794   -0.3730   -4.5767 H.spc      1 <1>        0.000
     18 H           6.1300   -1.9605   -6.9162 H.spc      1 <1>        0.000
     19 H           6.8978    0.6699   -5.7942 H.spc      1 <1>        0.000
     20 H           8.6227    0.8089   -7.3062 H.spc      1 <1>        0.000
@<TRIPOS>BOND
     1    6    7 2  
     2   10   11 am 
     3    9   10 1  
     4    8    9 2  
     5    5    6 am 
     6    4    5 1  
     7    1    2 1  
     8    1    8 1  
     9    2    3 1  
    10    3    4 2  
    11   11   12 2  
    12    3   13 1  
    13    4   14 1  
    14    5   15 1  
    15    6   16 1  
    16    8   17 1  
    17    9   18 1  
    18   10   19 1  
    19   11   20 1  
# Name:          frag3-195-6/31924
# Creation time: Sat Jun  5 12:52:15 2010


@<TRIPOS>MOLECULE
frag3-195-6/31924
   20    19     1     1     1
SMALL
USER_CHARGES


@<TRIPOS>ATOM
      1 S1          3.1820   -3.7021   -7.1885 S.3        1 <1>        0.000
      2 S2          4.6119   -3.6908   -5.7553 S.3        1 <1>        0.000
      3 C1          5.3038   -2.0725   -5.9962 C.2        1 <1>        0.000
      4 C2          5.6710   -1.6923   -7.2319 C.2        1 <1>        0.000
      5 N1          6.1761   -0.4999   -7.6259 N.am       1 <1>        0.000
      6 C9          6.4045    0.6037   -6.8757 C.2        1 <1>        0.000
      7 O1          6.1029    0.7407   -5.7003 O.2        1 <1>        0.000
      8 C20         1.7173   -3.4897   -6.2072 C.2        1 <1>        0.000
      9 C21         1.0539   -2.3278   -6.2531 C.2        1 <1>        0.000
     10 N5         -0.0846   -1.9885   -5.6064 N.am       1 <1>        0.000
     11 C28        -0.7584   -0.8141   -5.6232 C.2        1 <1>        0.000
     12 O4         -0.3657    0.2234   -6.1333 O.2        1 <1>        0.000
     13 H           5.4291   -1.3954   -5.1513 H.spc      1 <1>        0.000
     14 H           5.5462   -2.4388   -8.0163 H.spc      1 <1>        0.000
     15 H           6.4152   -0.4230   -8.6145 H.spc      1 <1>        0.000
     16 H           6.9007    1.4429   -7.3632 H.spc      1 <1>        0.000
     17 H           1.3607   -4.3002   -5.5716 H.spc      1 <1>        0.000
     18 H           1.4858   -1.5579   -6.8924 H.spc      1 <1>        0.000
     19 H          -0.4929   -2.7199   -5.0244 H.spc      1 <1>        0.000
     20 H          -1.7352   -0.7931   -5.1399 H.spc      1 <1>        0.000
@<TRIPOS>BOND
     1    6    7 2  
     2   10   11 am 
     3    9   10 1  
     4    8    9 2  
     5    5    6 am 
     6    4    5 1  
     7    1    2 1  
     8    1    8 1  
     9    2    3 1  
    10    3    4 2  
    11   11   12 2  
    12    3   13 1  
    13    4   14 1  
    14    5   15 1  
    15    6   16 1  
    16    8   17 1  
    17    9   18 1  
    18   10   19 1  
    19   11   20 1  
# Name:          frag3-195-6/31924
# Creation time: Sat Jun  5 12:52:15 2010


@<TRIPOS>MOLECULE
frag3-195-6/31924
   20    19     1     1     1
SMALL
USER_CHARGES


@<TRIPOS>ATOM
      1 S1          3.8691   -3.1909   -7.2686 S.3        1 <1>        0.000
      2 S2          3.2336   -3.2386   -5.3438 S.3        1 <1>        0.000
      3 C1          2.0857   -1.8656   -5.3561 C.2        1 <1>        0.000
      4 C2          0.7915   -2.1072   -5.6098 C.2        1 <1>        0.000
      5 N1         -0.2297   -1.2126   -5.6275 N.am       1 <1>        0.000
      6 C9         -1.5161   -1.4074   -6.0007 C.2        1 <1>        0.000
      7 O1         -2.0015   -2.4723   -6.3447 O.2        1 <1>        0.000
      8 C20         4.4687   -1.5083   -7.3705 C.2        1 <1>        0.000
      9 C21         5.7493   -1.2636   -7.0599 C.2        1 <1>        0.000
     10 N5          6.3946   -0.0717   -7.1025 N.am       1 <1>        0.000
     11 C28         7.6757    0.2146   -6.7670 C.2        1 <1>        0.000
     12 O4          8.4938   -0.5863   -6.3458 O.2        1 <1>        0.000
     13 H           2.4326   -0.8509   -5.1608 H.spc      1 <1>        0.000
     14 H           0.5285   -3.1424   -5.8272 H.spc      1 <1>        0.000
     15 H           0.0034   -0.2688   -5.3187 H.spc      1 <1>        0.000
     16 H          -2.1744   -0.5387   -5.9932 H.spc      1 <1>        0.000
     17 H           3.8065   -0.6993   -7.6787 H.spc      1 <1>        0.000
     18 H           6.3396   -2.1207   -6.7360 H.spc      1 <1>        0.000
     19 H           5.8393    0.7177   -7.4324 H.spc      1 <1>        0.000
     20 H           8.0030    1.2478   -6.8833 H.spc      1 <1>        0.000
@<TRIPOS>BOND
     1    6    7 2  
     2   10   11 am 
     3    9   10 1  
     4    8    9 2  
     5    5    6 am 
     6    4    5 1  
     7    1    2 1  
     8    1    8 1  
     9    2    3 1  
    10    3    4 2  
    11   11   12 2  
    12    3   13 1  
    13    4   14 1  
    14    5   15 1  
    15    6   16 1  
    16    8   17 1  
    17    9   18 1  
    18   10   19 1  
    19   11   20 1  
# Name:          frag3-195-6/31924
# Creation time: Sat Jun  5 12:52:15 2010


@<TRIPOS>MOLECULE
frag3-195-6/31924
   20    19     1     1     1
SMALL
USER_CHARGES


@<TRIPOS>ATOM
      1 S1          4.1953   -3.3707   -5.6813 S.3        1 <1>        0.000
      2 S2          2.9877   -3.3123   -7.3045 S.3        1 <1>        0.000
      3 C1          1.6592   -2.3100   -6.6865 C.2        1 <1>        0.000
      4 C2          0.6034   -2.8974   -6.1030 C.2        1 <1>        0.000
      5 N1         -0.4777   -2.3117   -5.5375 N.am       1 <1>        0.000
      6 C9         -0.8230   -1.0027   -5.5460 C.2        1 <1>        0.000
      7 O1         -0.2134   -0.1088   -6.1126 O.2        1 <1>        0.000
      8 C20         5.1716   -1.9116   -5.9416 C.2        1 <1>        0.000
      9 C21         6.0926   -1.9048   -6.9181 C.2        1 <1>        0.000
     10 N5          6.9046   -0.8920   -7.2952 N.am       1 <1>        0.000
     11 C28         6.8682    0.4075   -6.9126 C.2        1 <1>        0.000
     12 O4          6.0462    0.9047   -6.1582 O.2        1 <1>        0.000
     13 H           1.7009   -1.2249   -6.7804 H.spc      1 <1>        0.000
     14 H           0.6183   -3.9871   -6.0817 H.spc      1 <1>        0.000
     15 H          -1.1136   -2.9363   -5.0415 H.spc      1 <1>        0.000
     16 H          -1.7235   -0.7221   -4.9996 H.spc      1 <1>        0.000
     17 H           5.0250   -1.0313   -5.3158 H.spc      1 <1>        0.000
     18 H           6.1993   -2.8339   -7.4780 H.spc      1 <1>        0.000
     19 H           7.6423   -1.1385   -7.9550 H.spc      1 <1>        0.000
     20 H           7.6391    1.0660   -7.3127 H.spc      1 <1>        0.000
@<TRIPOS>BOND
     1    6    7 2  
     2   10   11 am 
     3    9   10 1  
     4    8    9 2  
     5    5    6 am 
     6    4    5 1  
     7    1    2 1  
     8    1    8 1  
     9    2    3 1  
    10    3    4 2  
    11   11   12 2  
    12    3   13 1  
    13    4   14 1  
    14    5   15 1  
    15    6   16 1  
    16    8   17 1  
    17    9   18 1  
    18   10   19 1  
    19   11   20 1  
# Name:          frag3-195-6/31924
# Creation time: Sat Jun  5 12:52:15 2010


@<TRIPOS>MOLECULE
frag3-195-6/31924
   20    19     1     1     1
SMALL
USER_CHARGES


@<TRIPOS>ATOM
      1 S1          2.8242   -3.1417   -7.2009 S.3        1 <1>        0.000
      2 S2          4.0340   -2.9045   -5.5998 S.3        1 <1>        0.000
      3 C1          5.1884   -1.7072   -6.2198 C.2        1 <1>        0.000
      4 C2          6.4271   -1.6527   -5.7150 C.2        1 <1>        0.000
      5 N1          7.4496   -0.8452   -6.0832 N.am       1 <1>        0.000
      6 C9          7.4759    0.0763   -7.0747 C.2        1 <1>        0.000
      7 O1          6.5830    0.2783   -7.8831 O.2        1 <1>        0.000
      8 C20         1.2616   -2.6460   -6.5224 C.2        1 <1>        0.000
      9 C21         0.8956   -1.3573   -6.5800 C.2        1 <1>        0.000
     10 N5         -0.2549   -0.7952   -6.1451 N.am       1 <1>        0.000
     11 C28        -1.3574   -1.4044   -5.6454 C.2        1 <1>        0.000
     12 O4         -1.5125   -2.6102   -5.5277 O.2        1 <1>        0.000
     13 H           4.8895   -1.0180   -7.0096 H.spc      1 <1>        0.000
     14 H           6.6399   -2.3480   -4.9030 H.spc      1 <1>        0.000
     15 H           8.3102   -0.9437   -5.5447 H.spc      1 <1>        0.000
     16 H           8.3718    0.6914   -7.1588 H.spc      1 <1>        0.000
     17 H           0.6040   -3.3835   -6.0622 H.spc      1 <1>        0.000
     18 H           1.6160   -0.6773   -7.0345 H.spc      1 <1>        0.000
     19 H          -0.2986    0.2224   -6.2006 H.spc      1 <1>        0.000
     20 H          -2.1766   -0.7629   -5.3204 H.spc      1 <1>        0.000
@<TRIPOS>BOND
     1    6    7 2  
     2   10   11 am 
     3    9   10 1  
     4    8    9 2  
     5    5    6 am 
     6    4    5 1  
     7    1    2 1  
     8    1    8 1  
     9    2    3 1  
    10    3    4 2  
    11   11   12 2  
    12    3   13 1  
    13    4   14 1  
    14    5   15 1  
    15    6   16 1  
    16    8   17 1  
    17    9   18 1  
    18   10   19 1  
    19   11   20 1  
# Name:          frag3-195-6/31924
# Creation time: Sat Jun  5 12:52:15 2010


@<TRIPOS>MOLECULE
frag3-195-6/31924
   20    19     1     1     1
SMALL
USER_CHARGES


@<TRIPOS>ATOM
      1 S1          4.0875   -3.4704   -5.8615 S.3        1 <1>        0.000
      2 S2          3.0794   -2.6463   -4.3141 S.3        1 <1>        0.000
      3 C1          1.5292   -2.2711   -5.0926 C.2        1 <1>        0.000
      4 C2          1.4562   -1.2641   -5.9775 C.2        1 <1>        0.000
      5 N1          0.3864   -0.8572   -6.6997 N.am       1 <1>        0.000
      6 C9         -0.8364   -1.4322   -6.7842 C.2        1 <1>        0.000
      7 O1         -1.1971   -2.4311   -6.1811 O.2        1 <1>        0.000
      8 C20         5.2284   -2.1721   -6.2622 C.2        1 <1>        0.000
      9 C21         5.3571   -1.7691   -7.5322 C.2        1 <1>        0.000
     10 N5          6.1416   -0.7830   -8.0226 N.am       1 <1>        0.000
     11 C28         6.8484    0.1520   -7.3424 C.2        1 <1>        0.000
     12 O4          6.9340    0.2346   -6.1269 O.2        1 <1>        0.000
     13 H           0.6407   -2.8554   -4.8534 H.spc      1 <1>        0.000
     14 H           2.3768   -0.7020   -6.1344 H.spc      1 <1>        0.000
     15 H           0.5182   -0.0090   -7.2507 H.spc      1 <1>        0.000
     16 H          -1.5621   -0.9628   -7.4483 H.spc      1 <1>        0.000
     17 H           5.8224   -1.7043   -5.4771 H.spc      1 <1>        0.000
     18 H           4.7524   -2.3041   -8.2644 H.spc      1 <1>        0.000
     19 H           6.2105   -0.7368   -9.0392 H.spc      1 <1>        0.000
     20 H           7.3871    0.8946   -7.9310 H.spc      1 <1>        0.000
@<TRIPOS>BOND
     1    6    7 2  
     2   10   11 am 
     3    9   10 1  
     4    8    9 2  
     5    5    6 am 
     6    4    5 1  
     7    1    2 1  
     8    1    8 1  
     9    2    3 1  
    10    3    4 2  
    11   11   12 2  
    12    3   13 1  
    13    4   14 1  
    14    5   15 1  
    15    6   16 1  
    16    8   17 1  
    17    9   18 1  
    18   10   19 1  
    19   11   20 1  
# Name:          frag3-195-6/31924
# Creation time: Sat Jun  5 12:52:15 2010


@<TRIPOS>MOLECULE
frag3-195-6/31924
   20    19     1     1     1
SMALL
USER_CHARGES


@<TRIPOS>ATOM
      1 S1          4.3311   -3.8330   -6.2489 S.3        1 <1>        0.000
      2 S2          2.8785   -3.7171   -7.6516 S.3        1 <1>        0.000
      3 C1          1.8399   -2.4558   -6.9404 C.2        1 <1>        0.000
      4 C2          0.5889   -2.7650   -6.5721 C.2        1 <1>        0.000
      5 N1         -0.3306   -1.9632   -5.9819 N.am       1 <1>        0.000
      6 C9         -0.1736   -0.6976   -5.5276 C.2        1 <1>        0.000
      7 O1          0.8787   -0.0797   -5.4930 O.2        1 <1>        0.000
      8 C20         5.1886   -2.2973   -6.5309 C.2        1 <1>        0.000
      9 C21         5.4318   -1.4827   -5.4959 C.2        1 <1>        0.000
     10 N5          6.0884   -0.2989   -5.5054 N.am       1 <1>        0.000
     11 C28         6.3636    0.5085   -6.5582 C.2        1 <1>        0.000
     12 O4          5.9291    0.3718   -7.6909 O.2        1 <1>        0.000
     13 H           2.2184   -1.4425   -6.8062 H.spc      1 <1>        0.000
     14 H           0.2716   -3.7884   -6.7721 H.spc      1 <1>        0.000
     15 H          -1.2608   -2.3651   -5.8649 H.spc      1 <1>        0.000
     16 H          -1.0636   -0.1861   -5.1611 H.spc      1 <1>        0.000
     17 H           5.5120   -2.0234   -7.5352 H.spc      1 <1>        0.000
     18 H           5.0551   -1.8132   -4.5279 H.spc      1 <1>        0.000
     19 H           6.4205    0.0292   -4.5985 H.spc      1 <1>        0.000
     20 H           7.0299    1.3522   -6.3784 H.spc      1 <1>        0.000
@<TRIPOS>BOND
     1    6    7 2  
     2   10   11 am 
     3    9   10 1  
     4    8    9 2  
     5    5    6 am 
     6    4    5 1  
     7    1    2 1  
     8    1    8 1  
     9    2    3 1  
    10    3    4 2  
    11   11   12 2  
    12    3   13 1  
    13    4   14 1  
    14    5   15 1  
    15    6   16 1  
    16    8   17 1  
    17    9   18 1  
    18   10   19 1  
    19   11   20 1  
# Name:          frag3-195-6/31924
# Creation time: Sat Jun  5 12:52:15 2010


@<TRIPOS>MOLECULE
frag3-195-6/31924
   20    19     1     1     1
SMALL
USER_CHARGES


@<TRIPOS>ATOM
      1 S1          4.3538   -3.7830   -5.9083 S.3        1 <1>        0.000
      2 S2          2.9124   -3.7969   -7.3256 S.3        1 <1>        0.000
      3 C1          1.6586   -2.8201   -6.5353 C.2        1 <1>        0.000
      4 C2          1.5256   -1.5229   -6.8487 C.2        1 <1>        0.000
      5 N1          0.6191   -0.6339   -6.3808 N.am       1 <1>        0.000
      6 C9         -0.4346   -0.8628   -5.5618 C.2        1 <1>        0.000
      7 O1         -0.8350   -1.9603   -5.2058 O.2        1 <1>        0.000
      8 C20         5.2450   -2.3118   -6.3446 C.2        1 <1>        0.000
      9 C21         4.8763   -1.1337   -5.8205 C.2        1 <1>        0.000
     10 N5          5.4400    0.0802   -6.0105 N.am       1 <1>        0.000
     11 C28         6.4964    0.4080   -6.7934 C.2        1 <1>        0.000
     12 O4          7.1569   -0.3726   -7.4614 O.2        1 <1>        0.000
     13 H           0.9979   -3.2738   -5.7966 H.spc      1 <1>        0.000
     14 H           2.2403   -1.1344   -7.5743 H.spc      1 <1>        0.000
     15 H           0.7457    0.3318   -6.6837 H.spc      1 <1>        0.000
     16 H          -0.9723    0.0084   -5.1876 H.spc      1 <1>        0.000
     17 H           6.0872   -2.3653   -7.0345 H.spc      1 <1>        0.000
     18 H           4.0120   -1.1581   -5.1568 H.spc      1 <1>        0.000
     19 H           5.0138    0.8514   -5.4966 H.spc      1 <1>        0.000
     20 H           6.7814    1.4594   -6.8302 H.spc      1 <1>        0.000
@<TRIPOS>BOND
     1    6    7 2  
     2   10   11 am 
     3    9   10 1  
     4    8    9 2  
     5    5    6 am 
     6    4    5 1  
     7    1    2 1  
     8    1    8 1  
     9    2    3 1  
    10    3    4 2  
    11   11   12 2  
    12    3   13 1  
    13    4   14 1  
    14    5   15 1  
    15    6   16 1  
    16    8   17 1  
    17    9   18 1  
    18   10   19 1  
    19   11   20 1  
# Name:          frag3-195-6/31924
# Creation time: Sat Jun  5 12:52:15 2010


@<TRIPOS>MOLECULE
frag3-195-6/31924
   20    19     1     1     1
SMALL
USER_CHARGES


@<TRIPOS>ATOM
      1 S1          2.8436   -0.7618   -5.5329 S.3        1 <1>        0.000
      2 S2          4.1213   -2.2165   -4.9445 S.3        1 <1>        0.000
      3 C1          5.6507   -1.5978   -5.6097 C.2        1 <1>        0.000
      4 C2          5.8642   -1.6591   -6.9332 C.2        1 <1>        0.000
      5 N1          6.9352   -1.2073   -7.6249 N.am       1 <1>        0.000
      6 C9          8.0290   -0.5577   -7.1617 C.2        1 <1>        0.000
      7 O1          8.9416   -0.1204   -7.8409 O.2        1 <1>        0.000
      8 C20         1.3603   -1.7011   -5.8156 C.2        1 <1>        0.000
      9 C21         0.1823   -1.0673   -5.8645 C.2        1 <1>        0.000
     10 N5         -1.0377   -1.6005   -6.0949 N.am       1 <1>        0.000
     11 C28        -1.3712   -2.8899   -6.3453 C.2        1 <1>        0.000
     12 O4         -2.5047   -3.3306   -6.4288 O.2        1 <1>        0.000
     13 H           6.4067   -1.1733   -4.9491 H.spc      1 <1>        0.000
     14 H           5.0782   -2.1308   -7.5230 H.spc      1 <1>        0.000
     15 H           6.9162   -1.3790   -8.6302 H.spc      1 <1>        0.000
     16 H           8.0999   -0.4127   -6.0837 H.spc      1 <1>        0.000
     17 H           1.4099   -2.7819   -5.9477 H.spc      1 <1>        0.000
     18 H           0.2106    0.0096   -5.6983 H.spc      1 <1>        0.000
     19 H          -1.8156   -0.9410   -6.0780 H.spc      1 <1>        0.000
     20 H          -0.5527   -3.5961   -6.4845 H.spc      1 <1>        0.000
@<TRIPOS>BOND
     1    6    7 2  
     2   10   11 am 
     3    9   10 1  
     4    8    9 2  
     5    5    6 am 
     6    4    5 1  
     7    1    2 1  
     8    1    8 1  
     9    2    3 1  
    10    3    4 2  
    11   11   12 2  
    12    3   13 1  
    13    4   14 1  
    14    5   15 1  
    15    6   16 1  
    16    8   17 1  
    17    9   18 1  
    18   10   19 1  
    19   11   20 1  
# Name:          frag3-195-6/31924
# Creation time: Sat Jun  5 12:52:15 2010


@<TRIPOS>MOLECULE
frag3-195-6/31924
   20    19     1     1     1
SMALL
USER_CHARGES


@<TRIPOS>ATOM
      1 S1          3.2142   -2.0948   -5.1470 S.3        1 <1>        0.000
      2 S2          4.4452   -3.6241   -5.6496 S.3        1 <1>        0.000
      3 C1          6.0080   -2.7648   -5.7277 C.2        1 <1>        0.000
      4 C2          6.0932   -1.6343   -6.4453 C.2        1 <1>        0.000
      5 N1          7.1707   -0.8236   -6.5934 N.am       1 <1>        0.000
      6 C9          7.2648    0.3402   -7.2777 C.2        1 <1>        0.000
      7 O1          6.3849    0.8331   -7.9645 O.2        1 <1>        0.000
      8 C20         1.9316   -2.2814   -6.3737 C.2        1 <1>        0.000
      9 C21         0.6922   -1.8667   -6.0824 C.2        1 <1>        0.000
     10 N5         -0.4005   -1.8964   -6.8833 N.am       1 <1>        0.000
     11 C28        -1.6896   -1.6156   -6.5759 C.2        1 <1>        0.000
     12 O4         -2.0998   -1.2816   -5.4763 O.2        1 <1>        0.000
     13 H           6.8797   -3.1526   -5.2005 H.spc      1 <1>        0.000
     14 H           5.1885   -1.3311   -6.9722 H.spc      1 <1>        0.000
     15 H           8.0236   -1.1323   -6.1269 H.spc      1 <1>        0.000
     16 H           8.2072    0.8837   -7.2095 H.spc      1 <1>        0.000
     17 H           2.1534   -2.7256   -7.3440 H.spc      1 <1>        0.000
     18 H           0.5448   -1.4569   -5.0832 H.spc      1 <1>        0.000
     19 H          -0.2286   -2.1677   -7.8514 H.spc      1 <1>        0.000
     20 H          -2.4225   -1.6947   -7.3788 H.spc      1 <1>        0.000
@<TRIPOS>BOND
     1    6    7 2  
     2   10   11 am 
     3    9   10 1  
     4    8    9 2  
     5    5    6 am 
     6    4    5 1  
     7    1    2 1  
     8    1    8 1  
     9    2    3 1  
    10    3    4 2  
    11   11   12 2  
    12    3   13 1  
    13    4   14 1  
    14    5   15 1  
    15    6   16 1  
    16    8   17 1  
    17    9   18 1  
    18   10   19 1  
    19   11   20 1  
# Name:          frag3-195-6/31924 -- energy: -1.566408
# Creation time: Sat Jun  5 12:52:15 2010


@<TRIPOS>MOLECULE
frag3-195-6/31924 -- energy: -1.566408
   20    19     1     1     1
SMALL
USER_CHARGES


@<TRIPOS>ATOM
      1 S1          2.6163   -2.1811   -7.1381 S.3        1 <1>        0.000
      2 S2          4.0912   -2.1944   -5.7441 S.3        1 <1>        0.000
      3 C1          5.2118   -0.9921   -6.4625 C.2        1 <1>        0.000
      4 C2          6.5309   -1.2246   -6.3946 C.2        1 <1>        0.000
      5 N1          7.5294   -0.4587   -6.9085 N.am       1 <1>        0.000
      6 C9          8.8599   -0.7083   -6.9239 C.2        1 <1>        0.000
      7 O1          9.7095    0.0085   -7.4255 O.2        1 <1>        0.000
      8 C20         1.2234   -1.6764   -6.1281 C.2        1 <1>        0.000
      9 C21         0.0370   -2.2633   -6.3413 C.2        1 <1>        0.000
     10 N5         -1.1199   -2.0423   -5.6663 N.am       1 <1>        0.000
     11 C28        -2.3383   -2.6020   -5.8632 C.2        1 <1>        0.000
     12 O4         -3.3367   -2.3752   -5.2007 O.2        1 <1>        0.000
     13 H           4.8290   -0.0921   -6.9438 H.spc      1 <1>        0.000
     14 H           6.8365   -2.1290   -5.8684 H.spc      1 <1>        0.000
     15 H           7.2381    0.4190   -7.3389 H.spc      1 <1>        0.000
     16 H           9.2006   -1.6277   -6.4477 H.spc      1 <1>        0.000
     17 H           1.3383   -0.9116   -5.3600 H.spc      1 <1>        0.000
     18 H          -0.0030   -2.9987   -7.1449 H.spc      1 <1>        0.000
     19 H          -1.0646   -1.3626   -4.9078 H.spc      1 <1>        0.000
     20 H          -2.4339   -3.3146   -6.6824 H.spc      1 <1>        0.000
@<TRIPOS>BOND
     1    6    7 2  
     2   10   11 am 
     3    9   10 1  
     4    8    9 2  
     5    5    6 am 
     6    4    5 1  
     7    1    2 1  
     8    1    8 1  
     9    2    3 1  
    10    3    4 2  
    11   11   12 2  
    12    3   13 1  
    13    4   14 1  
    14    5   15 1  
    15    6   16 1  
    16    8   17 1  
    17    9   18 1  
    18   10   19 1  
    19   11   20 1  
# Name:          frag3-195-6/31924 -- energy: -1.527308
# Creation time: Sat Jun  5 12:52:15 2010


@<TRIPOS>MOLECULE
frag3-195-6/31924 -- energy: -1.527308
   20    19     1     1     1
SMALL
USER_CHARGES


@<TRIPOS>ATOM
      1 S1          4.0817   -2.4807   -6.9642 S.3        1 <1>        0.000
      2 S2          2.7890   -2.3723   -5.4050 S.3        1 <1>        0.000
      3 C1          1.2465   -2.1487   -6.2887 C.2        1 <1>        0.000
      4 C2          0.0941   -2.2895   -5.6179 C.2        1 <1>        0.000
      5 N1         -1.1658   -2.1243   -6.0982 N.am       1 <1>        0.000
      6 C9         -2.3389   -2.1724   -5.4244 C.2        1 <1>        0.000
      7 O1         -3.4475   -2.0726   -5.9222 O.2        1 <1>        0.000
      8 C20         5.2588   -1.2135   -6.4985 C.2        1 <1>        0.000
      9 C21         6.4991   -1.2773   -7.0025 C.2        1 <1>        0.000
     10 N5          7.5159   -0.4034   -6.7957 N.am       1 <1>        0.000
     11 C28         8.8163   -0.5092   -7.1619 C.2        1 <1>        0.000
     12 O4          9.6655    0.3540   -7.0177 O.2        1 <1>        0.000
     13 H           1.2450   -1.9031   -7.3507 H.spc      1 <1>        0.000
     14 H           0.1778   -2.5683   -4.5675 H.spc      1 <1>        0.000
     15 H          -1.2373   -1.9396   -7.0988 H.spc      1 <1>        0.000
     16 H          -2.2881   -2.3123   -4.3446 H.spc      1 <1>        0.000
     17 H           4.9730   -0.4090   -5.8208 H.spc      1 <1>        0.000
     18 H           6.7149   -2.1263   -7.6511 H.spc      1 <1>        0.000
     19 H           7.2675    0.4504   -6.2960 H.spc      1 <1>        0.000
     20 H           9.1298   -1.4451   -7.6245 H.spc      1 <1>        0.000
@<TRIPOS>BOND
     1    6    7 2  
     2   10   11 am 
     3    9   10 1  
     4    8    9 2  
     5    5    6 am 
     6    4    5 1  
     7    1    2 1  
     8    1    8 1  
     9    2    3 1  
    10    3    4 2  
    11   11   12 2  
    12    3   13 1  
    13    4   14 1  
    14    5   15 1  
    15    6   16 1  
    16    8   17 1  
    17    9   18 1  
    18   10   19 1  
    19   11   20 1  
# Name:          frag3-195-6/31924 -- energy: -1.523245
# Creation time: Sat Jun  5 12:52:15 2010


@<TRIPOS>MOLECULE
frag3-195-6/31924 -- energy: -1.523245
   20    19     1     1     1
SMALL
USER_CHARGES


@<TRIPOS>ATOM
      1 S1          4.2909   -2.8098   -5.9624 S.3        1 <1>        0.000
      2 S2          2.6276   -2.9345   -7.1171 S.3        1 <1>        0.000
      3 C1          1.3686   -2.5609   -5.8977 C.2        1 <1>        0.000
      4 C2          0.1255   -2.2879   -6.3196 C.2        1 <1>        0.000
      5 N1         -0.9651   -2.0203   -5.5547 N.am       1 <1>        0.000
      6 C9         -2.2460   -1.8300   -5.9490 C.2        1 <1>        0.000
      7 O1         -3.1765   -1.5349   -5.2184 O.2        1 <1>        0.000
      8 C20         5.2571   -1.6373   -6.9118 C.2        1 <1>        0.000
      9 C21         6.4605   -1.2758   -6.4453 C.2        1 <1>        0.000
     10 N5          7.3479   -0.4317   -7.0291 N.am       1 <1>        0.000
     11 C28         8.5689   -0.0433   -6.5879 C.2        1 <1>        0.000
     12 O4          9.3551    0.6564   -7.2039 O.2        1 <1>        0.000
     13 H           1.6086   -2.5557   -4.8345 H.spc      1 <1>        0.000
     14 H          -0.0275   -2.2797   -7.3988 H.spc      1 <1>        0.000
     15 H          -0.7964   -1.9541   -4.5509 H.spc      1 <1>        0.000
     16 H          -2.4642   -1.9509   -7.0101 H.spc      1 <1>        0.000
     17 H           4.8753   -1.2275   -7.8469 H.spc      1 <1>        0.000
     18 H           6.7596   -1.7082   -5.4905 H.spc      1 <1>        0.000
     19 H           7.0560   -0.0352   -7.9224 H.spc      1 <1>        0.000
     20 H           8.8741   -0.3852   -5.5989 H.spc      1 <1>        0.000
@<TRIPOS>BOND
     1    6    7 2  
     2   10   11 am 
     3    9   10 1  
     4    8    9 2  
     5    5    6 am 
     6    4    5 1  
     7    1    2 1  
     8    1    8 1  
     9    2    3 1  
    10    3    4 2  
    11   11   12 2  
    12    3   13 1  
    13    4   14 1  
    14    5   15 1  
    15    6   16 1  
    16    8   17 1  
    17    9   18 1  
    18   10   19 1  
    19   11   20 1  
# Name:          frag3-195-6/31924 -- energy: -1.870486
# Creation time: Sat Jun  5 12:52:15 2010


@<TRIPOS>MOLECULE
frag3-195-6/31924 -- energy: -1.870486
   20    19     1     1     1
SMALL
USER_CHARGES


@<TRIPOS>ATOM
      1 S1          2.8082   -4.3970   -6.1085 S.3        1 <1>        0.000
      2 S2          4.6027   -4.0638   -6.9992 S.3        1 <1>        0.000
      3 C1          5.1025   -2.5676   -6.1418 C.2        1 <1>        0.000
      4 C2          5.7740   -1.6322   -6.8304 C.2        1 <1>        0.000
      5 N1          6.2021   -0.4248   -6.3723 N.am       1 <1>        0.000
      6 C9          6.9072    0.5233   -7.0333 C.2        1 <1>        0.000
      7 O1          7.2192    1.6138   -6.5851 O.2        1 <1>        0.000
      8 C20         1.8829   -2.9839   -6.7153 C.2        1 <1>        0.000
      9 C21         0.8892   -2.5037   -5.9534 C.2        1 <1>        0.000
     10 N5          0.0991   -1.4313   -6.2210 N.am       1 <1>        0.000
     11 C28        -0.9273   -0.9312   -5.4905 C.2        1 <1>        0.000
     12 O4         -1.5453    0.0886   -5.7462 O.2        1 <1>        0.000
     13 H           4.8662   -2.4227   -5.0876 H.spc      1 <1>        0.000
     14 H           6.0014   -1.8651   -7.8707 H.spc      1 <1>        0.000
     15 H           5.9606   -0.2055   -5.4059 H.spc      1 <1>        0.000
     16 H           7.2223    0.2928   -8.0510 H.spc      1 <1>        0.000
     17 H           2.1220   -2.5286   -7.6764 H.spc      1 <1>        0.000
     18 H           0.6945   -3.0303   -5.0191 H.spc      1 <1>        0.000
     19 H           0.3062   -0.9359   -7.0882 H.spc      1 <1>        0.000
     20 H          -1.2250   -1.4864   -4.6010 H.spc      1 <1>        0.000
@<TRIPOS>BOND
     1    6    7 2  
     2   10   11 am 
     3    9   10 1  
     4    8    9 2  
     5    5    6 am 
     6    4    5 1  
     7    1    2 1  
     8    1    8 1  
     9    2    3 1  
    10    3    4 2  
    11   11   12 2  
    12    3   13 1  
    13    4   14 1  
    14    5   15 1  
    15    6   16 1  
    16    8   17 1  
    17    9   18 1  
    18   10   19 1  
    19   11   20 1  
# Name:          frag3-195-6/31924 -- energy: -1.781610
# Creation time: Sat Jun  5 12:52:15 2010


@<TRIPOS>MOLECULE
frag3-195-6/31924 -- energy: -1.781610
   20    19     1     1     1
SMALL
USER_CHARGES


@<TRIPOS>ATOM
      1 S1          4.4175   -3.6704   -6.2165 S.3        1 <1>        0.000
      2 S2          2.5808   -3.8302   -7.0658 S.3        1 <1>        0.000
      3 C1          1.5659   -3.1676   -5.7431 C.2        1 <1>        0.000
      4 C2          0.5731   -2.3232   -6.0596 C.2        1 <1>        0.000
      5 N1         -0.3212   -1.7498   -5.2113 N.am       1 <1>        0.000
      6 C9         -1.3786   -0.9590   -5.5102 C.2        1 <1>        0.000
      7 O1         -1.7317   -0.6426   -6.6336 O.2        1 <1>        0.000
      8 C20         4.7705   -1.9416   -6.5376 C.2        1 <1>        0.000
      9 C21         6.0508   -1.5434   -6.5358 C.2        1 <1>        0.000
     10 N5          6.5204   -0.2941   -6.7853 N.am       1 <1>        0.000
     11 C28         7.8025    0.1454   -6.7915 C.2        1 <1>        0.000
     12 O4          8.1644    1.2666   -7.1066 O.2        1 <1>        0.000
     13 H           1.7520   -3.4450   -4.7055 H.spc      1 <1>        0.000
     14 H           0.4720   -2.0683   -7.1145 H.spc      1 <1>        0.000
     15 H          -0.1766   -1.9404   -4.2198 H.spc      1 <1>        0.000
     16 H          -1.9639   -0.5724   -4.6759 H.spc      1 <1>        0.000
     17 H           3.9649   -1.2328   -6.7293 H.spc      1 <1>        0.000
     18 H           6.7960   -2.3059   -6.3093 H.spc      1 <1>        0.000
     19 H           5.8123    0.4090   -6.9967 H.spc      1 <1>        0.000
     20 H           8.5746   -0.5623   -6.4897 H.spc      1 <1>        0.000
@<TRIPOS>BOND
     1    6    7 2  
     2   10   11 am 
     3    9   10 1  
     4    8    9 2  
     5    5    6 am 
     6    4    5 1  
     7    1    2 1  
     8    1    8 1  
     9    2    3 1  
    10    3    4 2  
    11   11   12 2  
    12    3   13 1  
    13    4   14 1  
    14    5   15 1  
    15    6   16 1  
    16    8   17 1  
    17    9   18 1  
    18   10   19 1  
    19   11   20 1  
# Name:          frag3-195-6/31924 -- energy: -2.107076
# Creation time: Sat Jun  5 12:52:15 2010


@<TRIPOS>MOLECULE
frag3-195-6/31924 -- energy: -2.107076
   20    19     1     1     1
SMALL
USER_CHARGES


@<TRIPOS>ATOM
      1 S1          4.8036   -4.3560   -6.3920 S.3        1 <1>        0.000
      2 S2          2.8253   -4.4822   -6.8316 S.3        1 <1>        0.000
      3 C1          2.1995   -3.1201   -5.8441 C.2        1 <1>        0.000
      4 C2          1.1702   -2.4049   -6.3225 C.2        1 <1>        0.000
      5 N1          0.5357   -1.3684   -5.7114 N.am       1 <1>        0.000
      6 C9         -0.4819   -0.6098   -6.1825 C.2        1 <1>        0.000
      7 O1         -0.9564    0.3642   -5.6227 O.2        1 <1>        0.000
      8 C20         5.2166   -2.8141   -7.2117 C.2        1 <1>        0.000
      9 C21         5.4958   -1.7464   -6.4504 C.2        1 <1>        0.000
     10 N5          5.8584   -0.5091   -6.8780 N.am       1 <1>        0.000
     11 C28         6.0695    0.6126   -6.1471 C.2        1 <1>        0.000
     12 O4          6.2782    1.7244   -6.6029 O.2        1 <1>        0.000
     13 H           2.6451   -2.8798   -4.8788 H.spc      1 <1>        0.000
     14 H           0.8019   -2.6852   -7.3093 H.spc      1 <1>        0.000
     15 H           0.8699   -1.1321   -4.7771 H.spc      1 <1>        0.000
     16 H          -0.9132   -0.8934   -7.1425 H.spc      1 <1>        0.000
     17 H           5.2399   -2.7473   -8.2994 H.spc      1 <1>        0.000
     18 H           5.4241   -1.8863   -5.3718 H.spc      1 <1>        0.000
     19 H           5.9895   -0.4110   -7.8848 H.spc      1 <1>        0.000
     20 H           6.0512    0.5127   -5.0618 H.spc      1 <1>        0.000
@<TRIPOS>BOND
     1    6    7 2  
     2   10   11 am 
     3    9   10 1  
     4    8    9 2  
     5    5    6 am 
     6    4    5 1  
     7    1    2 1  
     8    1    8 1  
     9    2    3 1  
    10    3    4 2  
    11   11   12 2  
    12    3   13 1  
    13    4   14 1  
    14    5   15 1  
    15    6   16 1  
    16    8   17 1  
    17    9   18 1  
    18   10   19 1  
    19   11   20 1  
# Name:          frag3-195-6/31924 -- energy: -1.813011
# Creation time: Sat Jun  5 12:52:15 2010


@<TRIPOS>MOLECULE
frag3-195-6/31924 -- energy: -1.813011
   20    19     1     1     1
SMALL
USER_CHARGES


@<TRIPOS>ATOM
      1 S1          2.8673   -3.7675   -5.7815 S.3        1 <1>        0.000
      2 S2          4.2024   -3.3058   -7.2386 S.3        1 <1>        0.000
      3 C1          4.9884   -1.8726   -6.5008 C.2        1 <1>        0.000
      4 C2          6.1529   -1.4460   -7.0115 C.2        1 <1>        0.000
      5 N1          6.8776   -0.3651   -6.6187 N.am       1 <1>        0.000
      6 C9          8.0444    0.0968   -7.1266 C.2        1 <1>        0.000
      7 O1          8.6804    1.0428   -6.6936 O.2        1 <1>        0.000
      8 C20         1.7867   -2.3398   -5.8705 C.2        1 <1>        0.000
      9 C21         0.4622   -2.5397   -5.8163 C.2        1 <1>        0.000
     10 N5         -0.5113   -1.5938   -5.8371 N.am       1 <1>        0.000
     11 C28        -1.8564   -1.7590   -5.8333 C.2        1 <1>        0.000
     12 O4         -2.6799   -0.8602   -5.8686 O.2        1 <1>        0.000
     13 H           4.5297   -1.3593   -5.6557 H.spc      1 <1>        0.000
     14 H           6.5643   -2.0316   -7.8336 H.spc      1 <1>        0.000
     15 H           6.4917    0.1677   -5.8392 H.spc      1 <1>        0.000
     16 H           8.4496   -0.4207   -7.9961 H.spc      1 <1>        0.000
     17 H           2.1964   -1.3343   -5.9663 H.spc      1 <1>        0.000
     18 H           0.1304   -3.5757   -5.7480 H.spc      1 <1>        0.000
     19 H          -0.1861   -0.6273   -5.8585 H.spc      1 <1>        0.000
     20 H          -2.2339   -2.7809   -5.7955 H.spc      1 <1>        0.000
@<TRIPOS>BOND
     1    6    7 2  
     2   10   11 am 
     3    9   10 1  
     4    8    9 2  
     5    5    6 am 
     6    4    5 1  
     7    1    2 1  
     8    1    8 1  
     9    2    3 1  
    10    3    4 2  
    11   11   12 2  
    12    3   13 1  
    13    4   14 1  
    14    5   15 1  
    15    6   16 1  
    16    8   17 1  
    17    9   18 1  
    18   10   19 1  
    19   11   20 1  
# Name:          frag3-195-6/31924 -- energy: -1.834279
# Creation time: Sat Jun  5 12:52:15 2010


@<TRIPOS>MOLECULE
frag3-195-6/31924 -- energy: -1.834279
   20    19     1     1     1
SMALL
USER_CHARGES


@<TRIPOS>ATOM
      1 S1          3.0665   -3.8219   -5.8377 S.3        1 <1>        0.000
      2 S2          4.4401   -3.6572   -7.3216 S.3        1 <1>        0.000
      3 C1          5.7455   -2.7944   -6.4474 C.2        1 <1>        0.000
      4 C2          6.0078   -1.5214   -6.7775 C.2        1 <1>        0.000
      5 N1          6.9245   -0.6944   -6.2098 N.am       1 <1>        0.000
      6 C9          7.1968    0.5967   -6.5122 C.2        1 <1>        0.000
      7 O1          6.6236    1.2628   -7.3577 O.2        1 <1>        0.000
      8 C20         2.0733   -2.3642   -6.1531 C.2        1 <1>        0.000
      9 C21         0.7760   -2.3912   -5.8171 C.2        1 <1>        0.000
     10 N5         -0.1266   -1.3863   -5.9464 N.am       1 <1>        0.000
     11 C28        -1.4715   -1.4254   -5.7845 C.2        1 <1>        0.000
     12 O4         -2.2415   -0.5127   -6.0320 O.2        1 <1>        0.000
     13 H           6.3145   -3.2942   -5.6635 H.spc      1 <1>        0.000
     14 H           5.4190   -1.1026   -7.5936 H.spc      1 <1>        0.000
     15 H           7.4805   -1.0997   -5.4568 H.spc      1 <1>        0.000
     16 H           7.9963    1.0821   -5.9524 H.spc      1 <1>        0.000
     17 H           2.5136   -1.4766   -6.6074 H.spc      1 <1>        0.000
     18 H           0.4048   -3.3241   -5.3928 H.spc      1 <1>        0.000
     19 H           0.2600   -0.4772   -6.2001 H.spc      1 <1>        0.000
     20 H          -1.9012   -2.3507   -5.4007 H.spc      1 <1>        0.000
@<TRIPOS>BOND
     1    6    7 2  
     2   10   11 am 
     3    9   10 1  
     4    8    9 2  
     5    5    6 am 
     6    4    5 1  
     7    1    2 1  
     8    1    8 1  
     9    2    3 1  
    10    3    4 2  
    11   11   12 2  
    12    3   13 1  
    13    4   14 1  
    14    5   15 1  
    15    6   16 1  
    16    8   17 1  
    17    9   18 1  
    18   10   19 1  
    19   11   20 1  
# Name:          frag3-195-6/31924 -- energy: -1.611039
# Creation time: Sat Jun  5 12:52:15 2010


@<TRIPOS>MOLECULE
frag3-195-6/31924 -- energy: -1.611039
   20    19     1     1     1
SMALL
USER_CHARGES


@<TRIPOS>ATOM
      1 S1          2.7744   -2.2762   -7.0495 S.3        1 <1>        0.000
      2 S2          4.1757   -2.3832   -5.5894 S.3        1 <1>        0.000
      3 C1          5.4753   -1.3955   -6.3202 C.2        1 <1>        0.000
      4 C2          6.7454   -1.6270   -5.9599 C.2        1 <1>        0.000
      5 N1          7.8624   -1.0148   -6.4277 N.am       1 <1>        0.000
      6 C9          7.9648   -0.0594   -7.3814 C.2        1 <1>        0.000
      7 O1          9.0060    0.3984   -7.8199 O.2        1 <1>        0.000
      8 C20         1.3689   -1.6884   -6.1135 C.2        1 <1>        0.000
      9 C21         0.1589   -2.1965   -6.3834 C.2        1 <1>        0.000
     10 N5         -1.0133   -1.9063   -5.7683 N.am       1 <1>        0.000
     11 C28        -2.2535   -2.3870   -6.0262 C.2        1 <1>        0.000
     12 O4         -3.2506   -2.1741   -5.3575 O.2        1 <1>        0.000
     13 H           5.2384   -0.6181   -7.0466 H.spc      1 <1>        0.000
     14 H           6.8988   -2.3964   -5.2032 H.spc      1 <1>        0.000
     15 H           8.7411   -1.3140   -6.0049 H.spc      1 <1>        0.000
     16 H           7.0356    0.3347   -7.7929 H.spc      1 <1>        0.000
     17 H           1.4940   -0.9319   -5.3388 H.spc      1 <1>        0.000
     18 H           0.1119   -2.9274   -7.1906 H.spc      1 <1>        0.000
     19 H          -0.9536   -1.2323   -5.0051 H.spc      1 <1>        0.000
     20 H          -2.3699   -3.0183   -6.9071 H.spc      1 <1>        0.000
@<TRIPOS>BOND
     1    6    7 2  
     2   10   11 am 
     3    9   10 1  
     4    8    9 2  
     5    5    6 am 
     6    4    5 1  
     7    1    2 1  
     8    1    8 1  
     9    2    3 1  
    10    3    4 2  
    11   11   12 2  
    12    3   13 1  
    13    4   14 1  
    14    5   15 1  
    15    6   16 1  
    16    8   17 1  
    17    9   18 1  
    18   10   19 1  
    19   11   20 1  
# Name:          frag3-195-6/31924 -- energy: -1.930506
# Creation time: Sat Jun  5 12:52:15 2010


@<TRIPOS>MOLECULE
frag3-195-6/31924 -- energy: -1.930506
   20    19     1     1     1
SMALL
USER_CHARGES


@<TRIPOS>ATOM
      1 S1          3.0531   -3.9116   -6.9711 S.3        1 <1>        0.000
      2 S2          4.6463   -3.9560   -5.7137 S.3        1 <1>        0.000
      3 C1          4.9873   -2.1990   -5.5792 C.2        1 <1>        0.000
      4 C2          5.8585   -1.6489   -6.4377 C.2        1 <1>        0.000
      5 N1          6.2169   -0.3394   -6.5190 N.am       1 <1>        0.000
      6 C9          7.0301    0.2558   -7.4231 C.2        1 <1>        0.000
      7 O1          7.4634    1.3930   -7.3444 O.2        1 <1>        0.000
      8 C20         1.8209   -3.1654   -5.9016 C.2        1 <1>        0.000
      9 C21         0.9247   -2.3331   -6.4511 C.2        1 <1>        0.000
     10 N5         -0.0971   -1.6985   -5.8201 N.am       1 <1>        0.000
     11 C28        -1.0005   -0.8279   -6.3327 C.2        1 <1>        0.000
     12 O4         -1.8892   -0.2790   -5.7032 O.2        1 <1>        0.000
     13 H           4.4975   -1.5929   -4.8171 H.spc      1 <1>        0.000
     14 H           6.3316   -2.3261   -7.1488 H.spc      1 <1>        0.000
     15 H           5.8217    0.2739   -5.8062 H.spc      1 <1>        0.000
     16 H           7.3220   -0.3306   -8.2943 H.spc      1 <1>        0.000
     17 H           1.8014   -3.3828   -4.8337 H.spc      1 <1>        0.000
     18 H           1.0272   -2.1454   -7.5199 H.spc      1 <1>        0.000
     19 H          -0.1982   -1.9050   -4.8264 H.spc      1 <1>        0.000
     20 H          -0.9266   -0.5993   -7.3959 H.spc      1 <1>        0.000
@<TRIPOS>BOND
     1    6    7 2  
     2   10   11 am 
     3    9   10 1  
     4    8    9 2  
     5    5    6 am 
     6    4    5 1  
     7    1    2 1  
     8    1    8 1  
     9    2    3 1  
    10    3    4 2  
    11   11   12 2  
    12    3   13 1  
    13    4   14 1  
    14    5   15 1  
    15    6   16 1  
    16    8   17 1  
    17    9   18 1  
    18   10   19 1  
    19   11   20 1  
# Name:          frag3-195-6/31924 -- energy: -1.989549
# Creation time: Sat Jun  5 12:52:15 2010


@<TRIPOS>MOLECULE
frag3-195-6/31924 -- energy: -1.989549
   20    19     1     1     1
SMALL
USER_CHARGES


@<TRIPOS>ATOM
      1 S1          3.7819   -3.5125   -7.4271 S.3        1 <1>        0.000
      2 S2          3.1522   -4.0536   -5.5760 S.3        1 <1>        0.000
      3 C1          2.1340   -2.6379   -5.1634 C.2        1 <1>        0.000
      4 C2          0.9902   -2.4502   -5.8380 C.2        1 <1>        0.000
      5 N1          0.0725   -1.4667   -5.6482 N.am       1 <1>        0.000
      6 C9         -1.0719   -1.2367   -6.3339 C.2        1 <1>        0.000
      7 O1         -1.8828   -0.3601   -6.0869 O.2        1 <1>        0.000
      8 C20         5.3640   -2.7735   -7.0275 C.2        1 <1>        0.000
      9 C21         5.4757   -1.4386   -7.0750 C.2        1 <1>        0.000
     10 N5          6.5713   -0.6949   -6.7799 N.am       1 <1>        0.000
     11 C28         6.7040    0.6536   -6.7605 C.2        1 <1>        0.000
     12 O4          7.7236    1.2612   -6.4805 O.2        1 <1>        0.000
     13 H           2.4381   -1.9435   -4.3802 H.spc      1 <1>        0.000
     14 H           0.7721   -3.1684   -6.6284 H.spc      1 <1>        0.000
     15 H           0.2720   -0.8156   -4.8888 H.spc      1 <1>        0.000
     16 H          -1.2868   -1.8909   -7.1789 H.spc      1 <1>        0.000
     17 H           6.2161   -3.3949   -6.7521 H.spc      1 <1>        0.000
     18 H           4.5869   -0.8892   -7.3854 H.spc      1 <1>        0.000
     19 H           7.4101   -1.2232   -6.5397 H.spc      1 <1>        0.000
     20 H           5.8251    1.2452   -7.0168 H.spc      1 <1>        0.000
@<TRIPOS>BOND
     1    6    7 2  
     2   10   11 am 
     3    9   10 1  
     4    8    9 2  
     5    5    6 am 
     6    4    5 1  
     7    1    2 1  
     8    1    8 1  
     9    2    3 1  
    10    3    4 2  
    11   11   12 2  
    12    3   13 1  
    13    4   14 1  
    14    5   15 1  
    15    6   16 1  
    16    8   17 1  
    17    9   18 1  
    18   10   19 1  
    19   11   20 1  
# Name:          frag3-195-6/31924 -- energy: -1.840162
# Creation time: Sat Jun  5 12:52:15 2010


@<TRIPOS>MOLECULE
frag3-195-6/31924 -- energy: -1.840162
   20    19     1     1     1
SMALL
USER_CHARGES


@<TRIPOS>ATOM
      1 S1          3.1547   -1.8490   -5.1587 S.3        1 <1>        0.000
      2 S2          4.0486   -3.2301   -6.3462 S.3        1 <1>        0.000
      3 C1          5.1276   -2.1682   -7.3060 C.2        1 <1>        0.000
      4 C2          6.1594   -1.5743   -6.6887 C.2        1 <1>        0.000
      5 N1          7.1025   -0.7710   -7.2469 N.am       1 <1>        0.000
      6 C9          8.0763   -0.0601   -6.6315 C.2        1 <1>        0.000
      7 O1          8.9008    0.6439   -7.1897 O.2        1 <1>        0.000
      8 C20         1.6545   -1.5445   -6.0902 C.2        1 <1>        0.000
      9 C21         0.4925   -1.9884   -5.5907 C.2        1 <1>        0.000
     10 N5         -0.7445   -1.8318   -6.1262 N.am       1 <1>        0.000
     11 C28        -1.9338   -2.2920   -5.6678 C.2        1 <1>        0.000
     12 O4         -3.0242   -2.0443   -6.1545 O.2        1 <1>        0.000
     13 H           4.9488   -2.0085   -8.3693 H.spc      1 <1>        0.000
     14 H           6.2520   -1.7566   -5.6180 H.spc      1 <1>        0.000
     15 H           7.0728   -0.6935   -8.2635 H.spc      1 <1>        0.000
     16 H           8.1278   -0.1222   -5.5445 H.spc      1 <1>        0.000
     17 H           1.6861   -1.0111   -7.0402 H.spc      1 <1>        0.000
     18 H           0.5473   -2.5360   -4.6498 H.spc      1 <1>        0.000
     19 H          -0.7846   -1.2942   -6.9921 H.spc      1 <1>        0.000
     20 H          -1.9142   -2.9380   -4.7901 H.spc      1 <1>        0.000
@<TRIPOS>BOND
     1    6    7 2  
     2   10   11 am 
     3    9   10 1  
     4    8    9 2  
     5    5    6 am 
     6    4    5 1  
     7    1    2 1  
     8    1    8 1  
     9    2    3 1  
    10    3    4 2  
    11   11   12 2  
    12    3   13 1  
    13    4   14 1  
    14    5   15 1  
    15    6   16 1  
    16    8   17 1  
    17    9   18 1  
    18   10   19 1  
    19   11   20 1  
# Name:          frag3-195-6/31924 -- energy: -1.895068
# Creation time: Sat Jun  5 12:52:15 2010


@<TRIPOS>MOLECULE
frag3-195-6/31924 -- energy: -1.895068
   20    19     1     1     1
SMALL
USER_CHARGES


@<TRIPOS>ATOM
      1 S1          2.7335   -4.2211   -6.7957 S.3        1 <1>        0.000
      2 S2          4.6956   -4.0204   -6.3218 S.3        1 <1>        0.000
      3 C1          5.1296   -2.6258   -7.3599 C.2        1 <1>        0.000
      4 C2          5.5903   -1.5090   -6.7780 C.2        1 <1>        0.000
      5 N1          6.0038   -0.3693   -7.3913 N.am       1 <1>        0.000
      6 C9          6.4757    0.7677   -6.8283 C.2        1 <1>        0.000
      7 O1          6.6387    0.9527   -5.6340 O.2        1 <1>        0.000
      8 C20         1.9939   -3.1306   -5.5822 C.2        1 <1>        0.000
      9 C21         1.0176   -2.3023   -5.9786 C.2        1 <1>        0.000
     10 N5          0.3178   -1.4301   -5.2100 N.am       1 <1>        0.000
     11 C28        -0.6388   -0.5459   -5.5837 C.2        1 <1>        0.000
     12 O4         -0.9432   -0.2759   -6.7334 O.2        1 <1>        0.000
     13 H           5.0213   -2.6841   -8.4429 H.spc      1 <1>        0.000
     14 H           5.6385   -1.5163   -5.6891 H.spc      1 <1>        0.000
     15 H           5.9518   -0.3706   -8.4100 H.spc      1 <1>        0.000
     16 H           6.7317    1.5875   -7.4995 H.spc      1 <1>        0.000
     17 H           2.3301   -3.1404   -4.5454 H.spc      1 <1>        0.000
     18 H           0.7566   -2.3327   -7.0365 H.spc      1 <1>        0.000
     19 H           0.5424   -1.4415   -4.2151 H.spc      1 <1>        0.000
     20 H          -1.1818   -0.0329   -4.7900 H.spc      1 <1>        0.000
@<TRIPOS>BOND
     1    6    7 2  
     2   10   11 am 
     3    9   10 1  
     4    8    9 2  
     5    5    6 am 
     6    4    5 1  
     7    1    2 1  
     8    1    8 1  
     9    2    3 1  
    10    3    4 2  
    11   11   12 2  
    12    3   13 1  
    13    4   14 1  
    14    5   15 1  
    15    6   16 1  
    16    8   17 1  
    17    9   18 1  
    18   10   19 1  
    19   11   20 1  
# Name:          frag3-195-6/31924 -- energy: -2.077565
# Creation time: Sat Jun  5 12:52:15 2010


@<TRIPOS>MOLECULE
frag3-195-6/31924 -- energy: -2.077565
   20    19     1     1     1
SMALL
USER_CHARGES


@<TRIPOS>ATOM
      1 S1          2.7750   -4.4263   -5.5348 S.3        1 <1>        0.000
      2 S2          4.4004   -4.2719   -6.7388 S.3        1 <1>        0.000
      3 C1          5.1936   -2.8372   -6.0150 C.2        1 <1>        0.000
      4 C2          5.2771   -1.7132   -6.7415 C.2        1 <1>        0.000
      5 N1          5.8025   -0.5204   -6.3583 N.am       1 <1>        0.000
      6 C9          5.9276    0.6176   -7.0807 C.2        1 <1>        0.000
      7 O1          6.3688    1.6761   -6.6662 O.2        1 <1>        0.000
      8 C20         1.5627   -3.5408   -6.5124 C.2        1 <1>        0.000
      9 C21         1.1970   -2.3133   -6.1172 C.2        1 <1>        0.000
     10 N5          0.3241   -1.4777   -6.7346 N.am       1 <1>        0.000
     11 C28        -0.0947   -0.2485   -6.3471 C.2        1 <1>        0.000
     12 O4          0.2804    0.3457   -5.3502 O.2        1 <1>        0.000
     13 H           5.6001   -2.8774   -5.0044 H.spc      1 <1>        0.000
     14 H           4.8781   -1.7621   -7.7547 H.spc      1 <1>        0.000
     15 H           6.1484   -0.4765   -5.3997 H.spc      1 <1>        0.000
     16 H           5.6065    0.5849   -8.1218 H.spc      1 <1>        0.000
     17 H           1.1325   -3.9897   -7.4077 H.spc      1 <1>        0.000
     18 H           1.6514   -1.9453   -5.1973 H.spc      1 <1>        0.000
     19 H          -0.0707   -1.8218   -7.6099 H.spc      1 <1>        0.000
     20 H          -0.8285    0.2512   -6.9795 H.spc      1 <1>        0.000
@<TRIPOS>BOND
     1    6    7 2  
     2   10   11 am 
     3    9   10 1  
     4    8    9 2  
     5    5    6 am 
     6    4    5 1  
     7    1    2 1  
     8    1    8 1  
     9    2    3 1  
    10    3    4 2  
    11   11   12 2  
    12    3   13 1  
    13    4   14 1  
    14    5   15 1  
    15    6   16 1  
    16    8   17 1  
    17    9   18 1  
    18   10   19 1  
    19   11   20 1  
# Name:          frag3-195-6/31924 -- energy: -2.244730
# Creation time: Sat Jun  5 12:52:15 2010


@<TRIPOS>MOLECULE
frag3-195-6/31924 -- energy: -2.244730
   20    19     1     1     1
SMALL
USER_CHARGES


@<TRIPOS>ATOM
      1 S1          2.9008   -4.3185   -7.4963 S.3        1 <1>        0.000
      2 S2          4.3464   -4.0110   -6.1102 S.3        1 <1>        0.000
      3 C1          4.9222   -2.3912   -6.5989 C.2        1 <1>        0.000
      4 C2          5.5780   -1.6365   -5.7067 C.2        1 <1>        0.000
      5 N1          6.1195   -0.4084   -5.8994 N.am       1 <1>        0.000
      6 C9          6.0641    0.3756   -7.0018 C.2        1 <1>        0.000
      7 O1          6.6212    1.4512   -7.1388 O.2        1 <1>        0.000
      8 C20         1.4769   -3.6699   -6.6334 C.2        1 <1>        0.000
      9 C21         1.3255   -2.3406   -6.5471 C.2        1 <1>        0.000
     10 N5          0.3090   -1.6611   -5.9650 N.am       1 <1>        0.000
     11 C28         0.1419   -0.3233   -5.8312 C.2        1 <1>        0.000
     12 O4         -0.7910    0.2238   -5.2680 O.2        1 <1>        0.000
     13 H           4.7424   -2.0223   -7.6087 H.spc      1 <1>        0.000
     14 H           5.6893   -2.0597   -4.7084 H.spc      1 <1>        0.000
     15 H           6.6373   -0.0243   -5.1090 H.spc      1 <1>        0.000
     16 H           5.4693    0.0133   -7.8403 H.spc      1 <1>        0.000
     17 H           0.7452   -4.3423   -6.1856 H.spc      1 <1>        0.000
     18 H           2.1125   -1.7362   -6.9981 H.spc      1 <1>        0.000
     19 H          -0.4353   -2.2374   -5.5721 H.spc      1 <1>        0.000
     20 H           0.9079    0.3198   -6.2646 H.spc      1 <1>        0.000
@<TRIPOS>BOND
     1    6    7 2  
     2   10   11 am 
     3    9   10 1  
     4    8    9 2  
     5    5    6 am 
     6    4    5 1  
     7    1    2 1  
     8    1    8 1  
     9    2    3 1  
    10    3    4 2  
    11   11   12 2  
    12    3   13 1  
    13    4   14 1  
    14    5   15 1  
    15    6   16 1  
    16    8   17 1  
    17    9   18 1  
    18   10   19 1  
    19   11   20 1  
# Name:          frag3-195-6/31924 -- energy: -1.834886
# Creation time: Sat Jun  5 12:52:15 2010


@<TRIPOS>MOLECULE
frag3-195-6/31924 -- energy: -1.834886
   20    19     1     1     1
SMALL
USER_CHARGES


@<TRIPOS>ATOM
      1 S1          2.8676   -3.3602   -7.3208 S.3        1 <1>        0.000
      2 S2          4.3811   -3.4333   -5.9747 S.3        1 <1>        0.000
      3 C1          5.4571   -2.1665   -6.6369 C.2        1 <1>        0.000
      4 C2          5.9562   -1.2407   -5.8057 C.2        1 <1>        0.000
      5 N1          6.8113   -0.2317   -6.1094 N.am       1 <1>        0.000
      6 C9          7.5784   -0.0794   -7.2144 C.2        1 <1>        0.000
      7 O1          8.3745    0.8235   -7.4079 O.2        1 <1>        0.000
      8 C20         1.8187   -2.1229   -6.5670 C.2        1 <1>        0.000
      9 C21         0.5112   -2.3837   -6.4340 C.2        1 <1>        0.000
     10 N5         -0.4333   -1.5952   -5.8657 N.am       1 <1>        0.000
     11 C28        -1.7484   -1.8507   -5.6632 C.2        1 <1>        0.000
     12 O4         -2.5599   -1.0690   -5.1972 O.2        1 <1>        0.000
     13 H           5.7028   -2.1478   -7.6987 H.spc      1 <1>        0.000
     14 H           5.6383   -1.3060   -4.7651 H.spc      1 <1>        0.000
     15 H           6.8859    0.5099   -5.4131 H.spc      1 <1>        0.000
     16 H           7.4754   -0.8289   -7.9991 H.spc      1 <1>        0.000
     17 H           2.2347   -1.1760   -6.2228 H.spc      1 <1>        0.000
     18 H           0.1676   -3.3401   -6.8282 H.spc      1 <1>        0.000
     19 H          -0.1090   -0.6825   -5.5460 H.spc      1 <1>        0.000
     20 H          -2.1122   -2.8400   -5.9407 H.spc      1 <1>        0.000
@<TRIPOS>BOND
     1    6    7 2  
     2   10   11 am 
     3    9   10 1  
     4    8    9 2  
     5    5    6 am 
     6    4    5 1  
     7    1    2 1  
     8    1    8 1  
     9    2    3 1  
    10    3    4 2  
    11   11   12 2  
    12    3   13 1  
    13    4   14 1  
    14    5   15 1  
    15    6   16 1  
    16    8   17 1  
    17    9   18 1  
    18   10   19 1  
    19   11   20 1  
# Name:          frag3-195-6/31924 -- energy: -1.605459
# Creation time: Sat Jun  5 12:52:15 2010


@<TRIPOS>MOLECULE
frag3-195-6/31924 -- energy: -1.605459
   20    19     1     1     1
SMALL
USER_CHARGES


@<TRIPOS>ATOM
      1 S1          2.7607   -2.9366   -5.0857 S.3        1 <1>        0.000
      2 S2          4.3486   -3.4402   -6.2420 S.3        1 <1>        0.000
      3 C1          5.4958   -2.1423   -5.7877 C.2        1 <1>        0.000
      4 C2          6.1892   -1.5261   -6.7556 C.2        1 <1>        0.000
      5 N1          7.0702   -0.5020   -6.6168 N.am       1 <1>        0.000
      6 C9          7.8050    0.1151   -7.5714 C.2        1 <1>        0.000
      7 O1          8.5438    1.0686   -7.3929 O.2        1 <1>        0.000
      8 C20         1.5450   -2.5637   -6.3458 C.2        1 <1>        0.000
      9 C21         0.3343   -2.1374   -5.9613 C.2        1 <1>        0.000
     10 N5         -0.7028   -1.7781   -6.7586 N.am       1 <1>        0.000
     11 C28        -1.9671   -1.4388   -6.4081 C.2        1 <1>        0.000
     12 O4         -2.4081   -1.4284   -5.2710 O.2        1 <1>        0.000
     13 H           5.6278   -1.8586   -4.7436 H.spc      1 <1>        0.000
     14 H           6.0272   -1.8888   -7.7706 H.spc      1 <1>        0.000
     15 H           7.1947   -0.1513   -5.6671 H.spc      1 <1>        0.000
     16 H           7.7299   -0.2737   -8.5869 H.spc      1 <1>        0.000
     17 H           1.7844   -2.6809   -7.4027 H.spc      1 <1>        0.000
     18 H           0.1634   -2.0719   -4.8868 H.spc      1 <1>        0.000
     19 H          -0.5037   -1.7610   -7.7588 H.spc      1 <1>        0.000
     20 H          -2.6471   -1.1510   -7.2099 H.spc      1 <1>        0.000
@<TRIPOS>BOND
     1    6    7 2  
     2   10   11 am 
     3    9   10 1  
     4    8    9 2  
     5    5    6 am 
     6    4    5 1  
     7    1    2 1  
     8    1    8 1  
     9    2    3 1  
    10    3    4 2  
    11   11   12 2  
    12    3   13 1  
    13    4   14 1  
    14    5   15 1  
    15    6   16 1  
    16    8   17 1  
    17    9   18 1  
    18   10   19 1  
    19   11   20 1  
# Name:          frag3-195-6/31924 -- energy: -1.914706
# Creation time: Sat Jun  5 12:52:15 2010


@<TRIPOS>MOLECULE
frag3-195-6/31924 -- energy: -1.914706
   20    19     1     1     1
SMALL
USER_CHARGES


@<TRIPOS>ATOM
      1 S1          4.2744   -3.5507   -5.4300 S.3        1 <1>        0.000
      2 S2          3.1207   -3.2429   -7.0680 S.3        1 <1>        0.000
      3 C1          1.6572   -2.5565   -6.3037 C.2        1 <1>        0.000
      4 C2          0.6154   -2.2233   -7.0780 C.2        1 <1>        0.000
      5 N1         -0.5848   -1.7294   -6.6834 N.am       1 <1>        0.000
      6 C9         -1.0237   -1.4810   -5.4270 C.2        1 <1>        0.000
      7 O1         -2.0659   -0.9196   -5.1357 O.2        1 <1>        0.000
      8 C20         5.1125   -1.9754   -5.3216 C.2        1 <1>        0.000
      9 C21         5.8839   -1.5867   -6.3473 C.2        1 <1>        0.000
     10 N5          6.5707   -0.4255   -6.4695 N.am       1 <1>        0.000
     11 C28         7.4091   -0.0297   -7.4574 C.2        1 <1>        0.000
     12 O4          8.0449    1.0107   -7.4753 O.2        1 <1>        0.000
     13 H           1.6131   -2.4113   -5.2243 H.spc      1 <1>        0.000
     14 H           0.7480   -2.3658   -8.1505 H.spc      1 <1>        0.000
     15 H          -1.2438   -1.5171   -7.4324 H.spc      1 <1>        0.000
     16 H          -0.3900   -1.8118   -4.6042 H.spc      1 <1>        0.000
     17 H           4.9989   -1.3441   -4.4403 H.spc      1 <1>        0.000
     18 H           5.9680   -2.2861   -7.1791 H.spc      1 <1>        0.000
     19 H           6.4381    0.2445   -5.7119 H.spc      1 <1>        0.000
     20 H           7.5253   -0.6990   -8.3098 H.spc      1 <1>        0.000
@<TRIPOS>BOND
     1    6    7 2  
     2   10   11 am 
     3    9   10 1  
     4    8    9 2  
     5    5    6 am 
     6    4    5 1  
     7    1    2 1  
     8    1    8 1  
     9    2    3 1  
    10    3    4 2  
    11   11   12 2  
    12    3   13 1  
    13    4   14 1  
    14    5   15 1  
    15    6   16 1  
    16    8   17 1  
    17    9   18 1  
    18   10   19 1  
    19   11   20 1  
# Name:          frag3-195-6/31924 -- energy: -1.739292
# Creation time: Sat Jun  5 12:52:15 2010


@<TRIPOS>MOLECULE
frag3-195-6/31924 -- energy: -1.739292
   20    19     1     1     1
SMALL
USER_CHARGES


@<TRIPOS>ATOM
      1 S1          2.8278   -3.9935   -5.8113 S.3        1 <1>        0.000
      2 S2          4.0229   -3.3761   -7.3264 S.3        1 <1>        0.000
      3 C1          5.2001   -2.3799   -6.4219 C.2        1 <1>        0.000
      4 C2          5.8268   -1.3791   -7.0553 C.2        1 <1>        0.000
      5 N1          6.7169   -0.4973   -6.5356 N.am       1 <1>        0.000
      6 C9          7.4555    0.4380   -7.1771 C.2        1 <1>        0.000
      7 O1          8.2489    1.2008   -6.6525 O.2        1 <1>        0.000
      8 C20         1.3455   -3.0578   -6.1587 C.2        1 <1>        0.000
      9 C21         0.7673   -2.3721   -5.1633 C.2        1 <1>        0.000
     10 N5         -0.3333   -1.5854   -5.2350 N.am       1 <1>        0.000
     11 C28        -1.0034   -1.1575   -6.3325 C.2        1 <1>        0.000
     12 O4         -2.0603   -0.5498   -6.3273 O.2        1 <1>        0.000
     13 H           5.4050   -2.5836   -5.3709 H.spc      1 <1>        0.000
     14 H           5.5937   -1.2594   -8.1133 H.spc      1 <1>        0.000
     15 H           6.8472   -0.5456   -5.5251 H.spc      1 <1>        0.000
     16 H           7.3301    0.5161   -8.2570 H.spc      1 <1>        0.000
     17 H           0.9195   -3.0451   -7.1619 H.spc      1 <1>        0.000
     18 H           1.2364   -2.4570   -4.1831 H.spc      1 <1>        0.000
     19 H          -0.7092   -1.2721   -4.3401 H.spc      1 <1>        0.000
     20 H          -0.5591   -1.3755   -7.3037 H.spc      1 <1>        0.000
@<TRIPOS>BOND
     1    6    7 2  
     2   10   11 am 
     3    9   10 1  
     4    8    9 2  
     5    5    6 am 
     6    4    5 1  
     7    1    2 1  
     8    1    8 1  
     9    2    3 1  
    10    3    4 2  
    11   11   12 2  
    12    3   13 1  
    13    4   14 1  
    14    5   15 1  
    15    6   16 1  
    16    8   17 1  
    17    9   18 1  
    18   10   19 1  
    19   11   20 1  
# Name:          frag3-195-6/31924 -- energy: -1.824991
# Creation time: Sat Jun  5 12:52:15 2010


@<TRIPOS>MOLECULE
frag3-195-6/31924 -- energy: -1.824991
   20    19     1     1     1
SMALL
USER_CHARGES


@<TRIPOS>ATOM
      1 S1          2.6492   -3.4360   -6.8804 S.3        1 <1>        0.000
      2 S2          4.4159   -3.4481   -5.8816 S.3        1 <1>        0.000
      3 C1          4.9521   -1.7615   -6.1729 C.2        1 <1>        0.000
      4 C2          6.2307   -1.5455   -6.5154 C.2        1 <1>        0.000
      5 N1          6.8135   -0.3536   -6.8117 N.am       1 <1>        0.000
      6 C9          8.1055   -0.1034   -7.1291 C.2        1 <1>        0.000
      7 O1          8.5713    0.9928   -7.3905 O.2        1 <1>        0.000
      8 C20         1.6942   -2.3388   -5.8321 C.2        1 <1>        0.000
      9 C21         0.3763   -2.2336   -6.0548 C.2        1 <1>        0.000
     10 N5         -0.5159   -1.4861   -5.3563 N.am       1 <1>        0.000
     11 C28        -1.8307   -1.2763   -5.6092 C.2        1 <1>        0.000
     12 O4         -2.4476   -1.7199   -6.5629 O.2        1 <1>        0.000
     13 H           4.2541   -0.9302   -6.0737 H.spc      1 <1>        0.000
     14 H           6.8745   -2.4238   -6.5613 H.spc      1 <1>        0.000
     15 H           6.1966    0.4584   -6.7923 H.spc      1 <1>        0.000
     16 H           8.7870   -0.9537   -7.1530 H.spc      1 <1>        0.000
     17 H           2.1730   -1.7716   -5.0339 H.spc      1 <1>        0.000
     18 H          -0.0225   -2.8118   -6.8883 H.spc      1 <1>        0.000
     19 H          -0.1464   -1.0187   -4.5284 H.spc      1 <1>        0.000
     20 H          -2.3831   -0.6592   -4.9006 H.spc      1 <1>        0.000
@<TRIPOS>BOND
     1    6    7 2  
     2   10   11 am 
     3    9   10 1  
     4    8    9 2  
     5    5    6 am 
     6    4    5 1  
     7    1    2 1  
     8    1    8 1  
     9    2    3 1  
    10    3    4 2  
    11   11   12 2  
    12    3   13 1  
    13    4   14 1  
    14    5   15 1  
    15    6   16 1  
    16    8   17 1  
    17    9   18 1  
    18   10   19 1  
    19   11   20 1  
# Name:          frag3-195-6/31924 -- energy: -1.857054
# Creation time: Sat Jun  5 12:52:15 2010


@<TRIPOS>MOLECULE
frag3-195-6/31924 -- energy: -1.857054
   20    19     1     1     1
SMALL
USER_CHARGES


@<TRIPOS>ATOM
      1 S1          2.8450   -3.3676   -7.3379 S.3        1 <1>        0.000
      2 S2          4.1974   -3.3003   -5.8334 S.3        1 <1>        0.000
      3 C1          5.1251   -1.8484   -6.2975 C.2        1 <1>        0.000
      4 C2          6.4528   -1.8352   -6.1173 C.2        1 <1>        0.000
      5 N1          7.3250   -0.8509   -6.4414 N.am       1 <1>        0.000
      6 C9          7.0654    0.3697   -6.9663 C.2        1 <1>        0.000
      7 O1          7.8927    1.2296   -7.2152 O.2        1 <1>        0.000
      8 C20         1.5396   -2.3617   -6.6549 C.2        1 <1>        0.000
      9 C21         0.2909   -2.8463   -6.6339 C.2        1 <1>        0.000
     10 N5         -0.8173   -2.2546   -6.1318 N.am       1 <1>        0.000
     11 C28        -0.9350   -1.0583   -5.5060 C.2        1 <1>        0.000
     12 O4         -1.9671   -0.5858   -5.0613 O.2        1 <1>        0.000
     13 H           4.6177   -0.9824   -6.7226 H.spc      1 <1>        0.000
     14 H           6.8827   -2.7234   -5.6542 H.spc      1 <1>        0.000
     15 H           8.3086   -1.0568   -6.2667 H.spc      1 <1>        0.000
     16 H           6.0239    0.6044   -7.1859 H.spc      1 <1>        0.000
     17 H           1.7546   -1.3684   -6.2609 H.spc      1 <1>        0.000
     18 H           0.1512   -3.8340   -7.0732 H.spc      1 <1>        0.000
     19 H          -1.6839   -2.7817   -6.2391 H.spc      1 <1>        0.000
     20 H          -0.0270   -0.4665   -5.3901 H.spc      1 <1>        0.000
@<TRIPOS>BOND
     1    6    7 2  
     2   10   11 am 
     3    9   10 1  
     4    8    9 2  
     5    5    6 am 
     6    4    5 1  
     7    1    2 1  
     8    1    8 1  
     9    2    3 1  
    10    3    4 2  
    11   11   12 2  
    12    3   13 1  
    13    4   14 1  
    14    5   15 1  
    15    6   16 1  
    16    8   17 1  
    17    9   18 1  
    18   10   19 1  
    19   11   20 1  
# Name:          frag3-195-6/31924 -- energy: -1.694615
# Creation time: Sat Jun  5 12:52:15 2010


@<TRIPOS>MOLECULE
frag3-195-6/31924 -- energy: -1.694615
   20    19     1     1     1
SMALL
USER_CHARGES


@<TRIPOS>ATOM
      1 S1          3.8310   -2.6125   -7.5402 S.3        1 <1>        0.000
      2 S2          2.9046   -3.4253   -5.9318 S.3        1 <1>        0.000
      3 C1          1.2407   -2.8203   -6.1813 C.2        1 <1>        0.000
      4 C2          0.5200   -2.4436   -5.1159 C.2        1 <1>        0.000
      5 N1         -0.7345   -1.9275   -5.1060 N.am       1 <1>        0.000
      6 C9         -1.5731   -1.7267   -6.1497 C.2        1 <1>        0.000
      7 O1         -2.6362   -1.1317   -6.1035 O.2        1 <1>        0.000
      8 C20         4.8433   -1.3722   -6.7451 C.2        1 <1>        0.000
      9 C21         6.1311   -1.2687   -7.0998 C.2        1 <1>        0.000
     10 N5          7.0455   -0.3817   -6.6383 N.am       1 <1>        0.000
     11 C28         8.3147   -0.1667   -7.0611 C.2        1 <1>        0.000
     12 O4          9.1274    0.5671   -6.5244 O.2        1 <1>        0.000
     13 H           0.8189   -2.7588   -7.1845 H.spc      1 <1>        0.000
     14 H           0.9977   -2.5663   -4.1439 H.spc      1 <1>        0.000
     15 H          -1.0935   -1.6546   -4.1911 H.spc      1 <1>        0.000
     16 H          -1.2715   -2.1323   -7.1154 H.spc      1 <1>        0.000
     17 H           4.4211   -0.7130   -5.9866 H.spc      1 <1>        0.000
     18 H           6.4841   -1.9805   -7.8460 H.spc      1 <1>        0.000
     19 H           6.7351    0.2062   -5.8647 H.spc      1 <1>        0.000
     20 H           8.6371   -0.6952   -7.9583 H.spc      1 <1>        0.000
@<TRIPOS>BOND
     1    6    7 2  
     2   10   11 am 
     3    9   10 1  
     4    8    9 2  
     5    5    6 am 
     6    4    5 1  
     7    1    2 1  
     8    1    8 1  
     9    2    3 1  
    10    3    4 2  
    11   11   12 2  
    12    3   13 1  
    13    4   14 1  
    14    5   15 1  
    15    6   16 1  
    16    8   17 1  
    17    9   18 1  
    18   10   19 1  
    19   11   20 1  
# Name:          frag3-195-6/31924 -- energy: -2.256379
# Creation time: Sat Jun  5 12:52:15 2010


@<TRIPOS>MOLECULE
frag3-195-6/31924 -- energy: -2.256379
   20    19     1     1     1
SMALL
USER_CHARGES


@<TRIPOS>ATOM
      1 S1          2.6619   -4.6673   -6.0239 S.3        1 <1>        0.000
      2 S2          4.2747   -4.1433   -7.1366 S.3        1 <1>        0.000
      3 C1          4.8380   -2.7102   -6.2210 C.2        1 <1>        0.000
      4 C2          5.3483   -1.6720   -6.8986 C.2        1 <1>        0.000
      5 N1          5.7897   -0.4918   -6.3919 N.am       1 <1>        0.000
      6 C9          6.3372    0.5573   -7.0492 C.2        1 <1>        0.000
      7 O1          6.6680    1.6167   -6.5443 O.2        1 <1>        0.000
      8 C20         1.5903   -3.2646   -6.3259 C.2        1 <1>        0.000
      9 C21         1.4265   -2.3625   -5.3480 C.2        1 <1>        0.000
     10 N5          0.6874   -1.2262   -5.3938 N.am       1 <1>        0.000
     11 C28         0.0565   -0.6644   -6.4536 C.2        1 <1>        0.000
     12 O4         -0.6641    0.3183   -6.4101 O.2        1 <1>        0.000
     13 H           4.7672   -2.6829   -5.1336 H.spc      1 <1>        0.000
     14 H           5.4168   -1.7885   -7.9802 H.spc      1 <1>        0.000
     15 H           5.6963   -0.3813   -5.3822 H.spc      1 <1>        0.000
     16 H           6.4959    0.4454   -8.1218 H.spc      1 <1>        0.000
     17 H           1.0827   -3.1470   -7.2833 H.spc      1 <1>        0.000
     18 H           1.9454   -2.5648   -4.4111 H.spc      1 <1>        0.000
     19 H           0.5935   -0.7261   -4.5098 H.spc      1 <1>        0.000
     20 H           0.2059   -1.1306   -7.4275 H.spc      1 <1>        0.000
@<TRIPOS>BOND
     1    6    7 2  
     2   10   11 am 
     3    9   10 1  
     4    8    9 2  
     5    5    6 am 
     6    4    5 1  
     7    1    2 1  
     8    1    8 1  
     9    2    3 1  
    10    3    4 2  
    11   11   12 2  
    12    3   13 1  
    13    4   14 1  
    14    5   15 1  
    15    6   16 1  
    16    8   17 1  
    17    9   18 1  
    18   10   19 1  
    19   11   20 1  
# Name:          frag3-195-6/31924 -- energy: -2.019006
# Creation time: Sat Jun  5 12:52:15 2010


@<TRIPOS>MOLECULE
frag3-195-6/31924 -- energy: -2.019006
   20    19     1     1     1
SMALL
USER_CHARGES


@<TRIPOS>ATOM
      1 S1          4.2416   -3.8276   -7.3890 S.3        1 <1>        0.000
      2 S2          3.1627   -4.0279   -5.6884 S.3        1 <1>        0.000
      3 C1          1.7495   -3.0120   -6.0754 C.2        1 <1>        0.000
      4 C2          1.2084   -2.2459   -5.1189 C.2        1 <1>        0.000
      5 N1          0.1672   -1.3879   -5.2308 N.am       1 <1>        0.000
      6 C9         -0.6117   -1.1393   -6.3099 C.2        1 <1>        0.000
      7 O1         -1.4875   -0.2944   -6.3787 O.2        1 <1>        0.000
      8 C20         5.3400   -2.5003   -6.9325 C.2        1 <1>        0.000
      9 C21         5.1278   -1.2762   -7.4353 C.2        1 <1>        0.000
     10 N5          5.8256   -0.1457   -7.1834 N.am       1 <1>        0.000
     11 C28         6.8488    0.0488   -6.3164 C.2        1 <1>        0.000
     12 O4          7.4421    1.0987   -6.1382 O.2        1 <1>        0.000
     13 H           1.3296   -3.0143   -7.0813 H.spc      1 <1>        0.000
     14 H           1.6615   -2.3227   -4.1305 H.spc      1 <1>        0.000
     15 H          -0.0609   -0.8579   -4.3897 H.spc      1 <1>        0.000
     16 H          -0.4402   -1.7495   -7.1967 H.spc      1 <1>        0.000
     17 H           6.1732   -2.6817   -6.2535 H.spc      1 <1>        0.000
     18 H           4.2933   -1.1806   -8.1300 H.spc      1 <1>        0.000
     19 H           5.5427    0.6741   -7.7203 H.spc      1 <1>        0.000
     20 H           7.1697   -0.8095   -5.7261 H.spc      1 <1>        0.000
@<TRIPOS>BOND
     1    6    7 2  
     2   10   11 am 
     3    9   10 1  
     4    8    9 2  
     5    5    6 am 
     6    4    5 1  
     7    1    2 1  
     8    1    8 1  
     9    2    3 1  
    10    3    4 2  
    11   11   12 2  
    12    3   13 1  
    13    4   14 1  
    14    5   15 1  
    15    6   16 1  
    16    8   17 1  
    17    9   18 1  
    18   10   19 1  
    19   11   20 1  
# Name:          frag3-195-6/31924 -- energy: -1.943664
# Creation time: Sat Jun  5 12:52:15 2010


@<TRIPOS>MOLECULE
frag3-195-6/31924 -- energy: -1.943664
   20    19     1     1     1
SMALL
USER_CHARGES


@<TRIPOS>ATOM
      1 S1          4.5541   -3.8151   -6.8303 S.3        1 <1>        0.000
      2 S2          2.7791   -3.9425   -5.8546 S.3        1 <1>        0.000
      3 C1          2.0731   -2.3494   -6.2793 C.2        1 <1>        0.000
      4 C2          0.7599   -2.1579   -6.0853 C.2        1 <1>        0.000
      5 N1          0.0523   -1.0189   -6.3075 N.am       1 <1>        0.000
      6 C9         -1.2671   -0.7933   -6.1050 C.2        1 <1>        0.000
      7 O1         -2.0612   -1.5970   -5.6464 O.2        1 <1>        0.000
      8 C20         5.3433   -2.5059   -5.8935 C.2        1 <1>        0.000
      9 C21         5.9059   -1.4921   -6.5666 C.2        1 <1>        0.000
     10 N5          6.5196   -0.4007   -6.0424 N.am       1 <1>        0.000
     11 C28         7.1256    0.6253   -6.6881 C.2        1 <1>        0.000
     12 O4          7.2298    0.7374   -7.8979 O.2        1 <1>        0.000
     13 H           2.6977   -1.5542   -6.6862 H.spc      1 <1>        0.000
     14 H           0.1971   -3.0113   -5.7071 H.spc      1 <1>        0.000
     15 H           0.5853   -0.2307   -6.6750 H.spc      1 <1>        0.000
     16 H          -1.6522    0.1901   -6.3748 H.spc      1 <1>        0.000
     17 H           5.3651   -2.5335   -4.8041 H.spc      1 <1>        0.000
     18 H           5.8661   -1.5507   -7.6543 H.spc      1 <1>        0.000
     19 H           6.5255   -0.3452   -5.0239 H.spc      1 <1>        0.000
     20 H           7.5560    1.4167   -6.0745 H.spc      1 <1>        0.000
@<TRIPOS>BOND
     1    6    7 2  
     2   10   11 am 
     3    9   10 1  
     4    8    9 2  
     5    5    6 am 
     6    4    5 1  
     7    1    2 1  
     8    1    8 1  
     9    2    3 1  
    10    3    4 2  
    11   11   12 2  
    12    3   13 1  
    13    4   14 1  
    14    5   15 1  
    15    6   16 1  
    16    8   17 1  
    17    9   18 1  
    18   10   19 1  
    19   11   20 1  
# Name:          frag3-195-6/31924 -- energy: -1.649588
# Creation time: Sat Jun  5 12:52:15 2010


@<TRIPOS>MOLECULE
frag3-195-6/31924 -- energy: -1.649588
   20    19     1     1     1
SMALL
USER_CHARGES


@<TRIPOS>ATOM
      1 S1          2.9144   -2.7413   -7.2094 S.3        1 <1>        0.000
      2 S2          4.4277   -2.9772   -5.8787 S.3        1 <1>        0.000
      3 C1          5.0993   -1.3152   -5.8684 C.2        1 <1>        0.000
      4 C2          6.3086   -1.1077   -6.4097 C.2        1 <1>        0.000
      5 N1          6.9652    0.0758   -6.5311 N.am       1 <1>        0.000
      6 C9          8.1762    0.3149   -7.0871 C.2        1 <1>        0.000
      7 O1          8.8914   -0.5203   -7.6144 O.2        1 <1>        0.000
      8 C20         1.4996   -2.8959   -6.1205 C.2        1 <1>        0.000
      9 C21         0.3735   -2.2434   -6.4413 C.2        1 <1>        0.000
     10 N5         -0.8043   -2.2586   -5.7675 N.am       1 <1>        0.000
     11 C28        -1.9016   -1.4860   -5.9560 C.2        1 <1>        0.000
     12 O4         -2.9354   -1.5551   -5.3129 O.2        1 <1>        0.000
     13 H           4.5365   -0.4904   -5.4313 H.spc      1 <1>        0.000
     14 H           6.8229   -1.9877   -6.7959 H.spc      1 <1>        0.000
     15 H           6.4822    0.8911   -6.1538 H.spc      1 <1>        0.000
     16 H           8.5431    1.3410   -7.0612 H.spc      1 <1>        0.000
     17 H           1.5535   -3.5060   -5.2188 H.spc      1 <1>        0.000
     18 H           0.4076   -1.6328   -7.3436 H.spc      1 <1>        0.000
     19 H          -0.8731   -2.9454   -5.0165 H.spc      1 <1>        0.000
     20 H          -1.8563   -0.7399   -6.7493 H.spc      1 <1>        0.000
@<TRIPOS>BOND
     1    6    7 2  
     2   10   11 am 
     3    9   10 1  
     4    8    9 2  
     5    5    6 am 
     6    4    5 1  
     7    1    2 1  
     8    1    8 1  
     9    2    3 1  
    10    3    4 2  
    11   11   12 2  
    12    3   13 1  
    13    4   14 1  
    14    5   15 1  
    15    6   16 1  
    16    8   17 1  
    17    9   18 1  
    18   10   19 1  
    19   11   20 1  
# Name:          frag3-195-6/31924 -- energy: -1.773768
# Creation time: Sat Jun  5 12:52:15 2010


@<TRIPOS>MOLECULE
frag3-195-6/31924 -- energy: -1.773768
   20    19     1     1     1
SMALL
USER_CHARGES


@<TRIPOS>ATOM
      1 S1          2.7861   -3.7667   -7.1854 S.3        1 <1>        0.000
      2 S2          4.5121   -3.8147   -6.1275 S.3        1 <1>        0.000
      3 C1          5.2873   -2.3128   -6.7048 C.2        1 <1>        0.000
      4 C2          5.9332   -1.5328   -5.8273 C.2        1 <1>        0.000
      5 N1          6.6084   -0.3846   -6.0790 N.am       1 <1>        0.000
      6 C9          6.7247    0.2881   -7.2481 C.2        1 <1>        0.000
      7 O1          7.3457    1.3237   -7.4151 O.2        1 <1>        0.000
      8 C20         1.6291   -3.2917   -5.9110 C.2        1 <1>        0.000
      9 C21         0.7476   -2.3166   -6.1673 C.2        1 <1>        0.000
     10 N5         -0.2204   -1.8397   -5.3475 N.am       1 <1>        0.000
     11 C28        -1.1240   -0.8571   -5.5784 C.2        1 <1>        0.000
     12 O4         -1.2152   -0.2048   -6.6056 O.2        1 <1>        0.000
     13 H           5.2357   -2.0343   -7.7573 H.spc      1 <1>        0.000
     14 H           5.9133   -1.8604   -4.7879 H.spc      1 <1>        0.000
     15 H           7.0932    0.0272   -5.2817 H.spc      1 <1>        0.000
     16 H           6.2185   -0.1334   -8.1165 H.spc      1 <1>        0.000
     17 H           1.6401   -3.7873   -4.9403 H.spc      1 <1>        0.000
     18 H           0.8169   -1.8519   -7.1509 H.spc      1 <1>        0.000
     19 H          -0.2764   -2.2816   -4.4299 H.spc      1 <1>        0.000
     20 H          -1.8292   -0.6300   -4.7789 H.spc      1 <1>        0.000
@<TRIPOS>BOND
     1    6    7 2  
     2   10   11 am 
     3    9   10 1  
     4    8    9 2  
     5    5    6 am 
     6    4    5 1  
     7    1    2 1  
     8    1    8 1  
     9    2    3 1  
    10    3    4 2  
    11   11   12 2  
    12    3   13 1  
    13    4   14 1  
    14    5   15 1  
    15    6   16 1  
    16    8   17 1  
    17    9   18 1  
    18   10   19 1  
    19   11   20 1  
# Name:          frag3-195-6/31924 -- energy: -2.254624
# Creation time: Sat Jun  5 12:52:15 2010


@<TRIPOS>MOLECULE
frag3-195-6/31924 -- energy: -2.254624
   20    19     1     1     1
SMALL
USER_CHARGES


@<TRIPOS>ATOM
      1 S1          3.3287   -4.1200   -7.0412 S.3        1 <1>        0.000
      2 S2          4.7461   -4.2992   -5.6003 S.3        1 <1>        0.000
      3 C1          5.1214   -2.5696   -5.3124 C.2        1 <1>        0.000
      4 C2          5.3961   -1.7883   -6.3671 C.2        1 <1>        0.000
      5 N1          5.6651   -0.4561   -6.3576 N.am       1 <1>        0.000
      6 C9          5.8672    0.3705   -7.4106 C.2        1 <1>        0.000
      7 O1          6.1899    1.5442   -7.3384 O.2        1 <1>        0.000
      8 C20         1.9940   -3.3917   -6.0919 C.2        1 <1>        0.000
      9 C21         1.4637   -2.2374   -6.5202 C.2        1 <1>        0.000
     10 N5          0.4350   -1.5502   -5.9618 N.am       1 <1>        0.000
     11 C28        -0.1055   -0.3685   -6.3466 C.2        1 <1>        0.000
     12 O4         -1.0873    0.1563   -5.8488 O.2        1 <1>        0.000
     13 H           5.1262   -2.1619   -4.3015 H.spc      1 <1>        0.000
     14 H           5.4046   -2.2766   -7.3416 H.spc      1 <1>        0.000
     15 H           5.7222   -0.0221   -5.4363 H.spc      1 <1>        0.000
     16 H           5.7298   -0.0487   -8.4074 H.spc      1 <1>        0.000
     17 H           1.6227   -3.8755   -5.1885 H.spc      1 <1>        0.000
     18 H           1.9076   -1.8027   -7.4158 H.spc      1 <1>        0.000
     19 H           0.0110   -1.9820   -5.1407 H.spc      1 <1>        0.000
     20 H           0.3779    0.1570   -7.1702 H.spc      1 <1>        0.000
@<TRIPOS>BOND
     1    6    7 2  
     2   10   11 am 
     3    9   10 1  
     4    8    9 2  
     5    5    6 am 
     6    4    5 1  
     7    1    2 1  
     8    1    8 1  
     9    2    3 1  
    10    3    4 2  
    11   11   12 2  
    12    3   13 1  
    13    4   14 1  
    14    5   15 1  
    15    6   16 1  
    16    8   17 1  
    17    9   18 1  
    18   10   19 1  
    19   11   20 1  
# Name:          frag3-195-6/31924 -- energy: -2.749475
# Creation time: Sat Jun  5 12:52:15 2010


@<TRIPOS>MOLECULE
frag3-195-6/31924 -- energy: -2.749475
   20    19     1     1     1
SMALL
USER_CHARGES


@<TRIPOS>ATOM
      1 S1          3.1561   -4.5212   -6.8903 S.3        1 <1>        0.000
      2 S2          5.0555   -4.3264   -6.2047 S.3        1 <1>        0.000
      3 C1          5.5582   -2.8492   -7.0863 C.2        1 <1>        0.000
      4 C2          5.1511   -1.6566   -6.6275 C.2        1 <1>        0.000
      5 N1          5.4554   -0.4317   -7.1307 N.am       1 <1>        0.000
      6 C9          5.1241    0.7866   -6.6421 C.2        1 <1>        0.000
      7 O1          4.4980    0.9926   -5.6161 O.2        1 <1>        0.000
      8 C20         2.3077   -3.3530   -5.8293 C.2        1 <1>        0.000
      9 C21         1.6883   -2.3084   -6.3966 C.2        1 <1>        0.000
     10 N5          0.9723   -1.3400   -5.7718 N.am       1 <1>        0.000
     11 C28         0.3749   -0.2465   -6.3046 C.2        1 <1>        0.000
     12 O4         -0.3271    0.5440   -5.6969 O.2        1 <1>        0.000
     13 H           6.1822   -2.9187   -7.9773 H.spc      1 <1>        0.000
     14 H           4.5025   -1.6716   -5.7516 H.spc      1 <1>        0.000
     15 H           6.0058   -0.4299   -7.9895 H.spc      1 <1>        0.000
     16 H           5.4442    1.6573   -7.2144 H.spc      1 <1>        0.000
     17 H           2.2955   -3.4886   -4.7478 H.spc      1 <1>        0.000
     18 H           1.7688   -2.2280   -7.4806 H.spc      1 <1>        0.000
     19 H           0.8696   -1.4501   -4.7630 H.spc      1 <1>        0.000
     20 H           0.5355   -0.0576   -7.3660 H.spc      1 <1>        0.000
@<TRIPOS>BOND
     1    6    7 2  
     2   10   11 am 
     3    9   10 1  
     4    8    9 2  
     5    5    6 am 
     6    4    5 1  
     7    1    2 1  
     8    1    8 1  
     9    2    3 1  
    10    3    4 2  
    11   11   12 2  
    12    3   13 1  
    13    4   14 1  
    14    5   15 1  
    15    6   16 1  
    16    8   17 1  
    17    9   18 1  
    18   10   19 1  
    19   11   20 1  
# Name:          frag3-195-6/31924 -- energy: -1.636137
# Creation time: Sat Jun  5 12:52:15 2010


@<TRIPOS>MOLECULE
frag3-195-6/31924 -- energy: -1.636137
   20    19     1     1     1
SMALL
USER_CHARGES


@<TRIPOS>ATOM
      1 S1          4.3484   -3.6848   -6.6430 S.3        1 <1>        0.000
      2 S2          2.8187   -3.5817   -5.3154 S.3        1 <1>        0.000
      3 C1          1.4685   -3.1728   -6.4190 C.2        1 <1>        0.000
      4 C2          0.5129   -2.3377   -5.9868 C.2        1 <1>        0.000
      5 N1         -0.5614   -1.8814   -6.6819 N.am       1 <1>        0.000
      6 C9         -1.4943   -0.9795   -6.2965 C.2        1 <1>        0.000
      7 O1         -1.5724   -0.4681   -5.1921 O.2        1 <1>        0.000
      8 C20         5.4362   -2.4245   -5.9842 C.2        1 <1>        0.000
      9 C21         5.9304   -1.5034   -6.8230 C.2        1 <1>        0.000
     10 N5          6.7389   -0.4592   -6.5139 N.am       1 <1>        0.000
     11 C28         7.3361    0.4297   -7.3442 C.2        1 <1>        0.000
     12 O4          8.0524    1.3535   -6.9968 O.2        1 <1>        0.000
     13 H           1.4246   -3.5949   -7.4230 H.spc      1 <1>        0.000
     14 H           0.6089   -1.9844   -4.9601 H.spc      1 <1>        0.000
     15 H          -0.6808   -2.2696   -7.6176 H.spc      1 <1>        0.000
     16 H          -2.2390   -0.6853   -7.0361 H.spc      1 <1>        0.000
     17 H           5.6909   -2.4068   -4.9245 H.spc      1 <1>        0.000
     18 H           5.6511   -1.6049   -7.8717 H.spc      1 <1>        0.000
     19 H           6.9227   -0.3245   -5.5197 H.spc      1 <1>        0.000
     20 H           7.1614    0.3088   -8.4133 H.spc      1 <1>        0.000
@<TRIPOS>BOND
     1    6    7 2  
     2   10   11 am 
     3    9   10 1  
     4    8    9 2  
     5    5    6 am 
     6    4    5 1  
     7    1    2 1  
     8    1    8 1  
     9    2    3 1  
    10    3    4 2  
    11   11   12 2  
    12    3   13 1  
    13    4   14 1  
    14    5   15 1  
    15    6   16 1  
    16    8   17 1  
    17    9   18 1  
    18   10   19 1  
    19   11   20 1  
# Name:          frag3-195-6/31924 -- energy: -1.637905
# Creation time: Sat Jun  5 12:52:15 2010


@<TRIPOS>MOLECULE
frag3-195-6/31924 -- energy: -1.637905
   20    19     1     1     1
SMALL
USER_CHARGES


@<TRIPOS>ATOM
      1 S1          2.8830   -3.3181   -7.1748 S.3        1 <1>        0.000
      2 S2          4.4109   -3.2827   -5.8452 S.3        1 <1>        0.000
      3 C1          5.4210   -1.9872   -6.5486 C.2        1 <1>        0.000
      4 C2          6.3827   -1.4323   -5.7983 C.2        1 <1>        0.000
      5 N1          7.2677   -0.4718   -6.1640 N.am       1 <1>        0.000
      6 C9          7.3331    0.2173   -7.3274 C.2        1 <1>        0.000
      7 O1          8.2025    1.0151   -7.6339 O.2        1 <1>        0.000
      8 C20         1.4864   -3.1168   -6.0790 C.2        1 <1>        0.000
      9 C21         0.5077   -2.2720   -6.4292 C.2        1 <1>        0.000
     10 N5         -0.6361   -2.0072   -5.7535 N.am       1 <1>        0.000
     11 C28        -1.6211   -1.1269   -6.0542 C.2        1 <1>        0.000
     12 O4         -2.6232   -0.9273   -5.3888 O.2        1 <1>        0.000
     13 H           5.2572   -1.6532   -7.5732 H.spc      1 <1>        0.000
     14 H           6.4632   -1.7955   -4.7738 H.spc      1 <1>        0.000
     15 H           7.9781   -0.2376   -5.4706 H.spc      1 <1>        0.000
     16 H           6.5390    0.0437   -8.0536 H.spc      1 <1>        0.000
     17 H           1.4317   -3.6715   -5.1423 H.spc      1 <1>        0.000
     18 H           0.6480   -1.7350   -7.3673 H.spc      1 <1>        0.000
     19 H          -0.7753   -2.5460   -4.8987 H.spc      1 <1>        0.000
     20 H          -1.5080   -0.5469   -6.9701 H.spc      1 <1>        0.000
@<TRIPOS>BOND
     1    6    7 2  
     2   10   11 am 
     3    9   10 1  
     4    8    9 2  
     5    5    6 am 
     6    4    5 1  
     7    1    2 1  
     8    1    8 1  
     9    2    3 1  
    10    3    4 2  
    11   11   12 2  
    12    3   13 1  
    13    4   14 1  
    14    5   15 1  
    15    6   16 1  
    16    8   17 1  
    17    9   18 1  
    18   10   19 1  
    19   11   20 1  
# Name:          frag3-195-6/31924 -- energy: -2.253696
# Creation time: Sat Jun  5 12:52:15 2010


@<TRIPOS>MOLECULE
frag3-195-6/31924 -- energy: -2.253696
   20    19     1     1     1
SMALL
USER_CHARGES


@<TRIPOS>ATOM
      1 S1          2.7951   -4.0478   -7.4219 S.3        1 <1>        0.000
      2 S2          4.2210   -3.8182   -6.0047 S.3        1 <1>        0.000
      3 C1          4.9960   -2.3120   -6.5566 C.2        1 <1>        0.000
      4 C2          5.7047   -1.5778   -5.6897 C.2        1 <1>        0.000
      5 N1          6.3896   -0.4361   -5.9304 N.am       1 <1>        0.000
      6 C9          6.5885    0.1988   -7.1095 C.2        1 <1>        0.000
      7 O1          7.2143    1.2325   -7.2679 O.2        1 <1>        0.000
      8 C20         1.4320   -3.1890   -6.6630 C.2        1 <1>        0.000
      9 C21         1.4278   -1.8477   -6.6565 C.2        1 <1>        0.000
     10 N5          0.4790   -1.0249   -6.1579 N.am       1 <1>        0.000
     11 C28        -0.7019   -1.3411   -5.5730 C.2        1 <1>        0.000
     12 O4         -1.5318   -0.5465   -5.1659 O.2        1 <1>        0.000
     13 H           4.8939   -1.9903   -7.5930 H.spc      1 <1>        0.000
     14 H           5.7334   -1.9451   -4.6639 H.spc      1 <1>        0.000
     15 H           6.8128    0.0055   -5.1141 H.spc      1 <1>        0.000
     16 H           6.1492   -0.2557   -7.9975 H.spc      1 <1>        0.000
     17 H           0.6120   -3.7460   -6.2098 H.spc      1 <1>        0.000
     18 H           2.2938   -1.3633   -7.1076 H.spc      1 <1>        0.000
     19 H           0.6794   -0.0275   -6.2320 H.spc      1 <1>        0.000
     20 H          -0.9300   -2.4006   -5.4562 H.spc      1 <1>        0.000
@<TRIPOS>BOND
     1    6    7 2  
     2   10   11 am 
     3    9   10 1  
     4    8    9 2  
     5    5    6 am 
     6    4    5 1  
     7    1    2 1  
     8    1    8 1  
     9    2    3 1  
    10    3    4 2  
    11   11   12 2  
    12    3   13 1  
    13    4   14 1  
    14    5   15 1  
    15    6   16 1  
    16    8   17 1  
    17    9   18 1  
    18   10   19 1  
    19   11   20 1  
# Name:          frag3-195-6/31924 -- energy: -1.917198
# Creation time: Sat Jun  5 12:52:15 2010


@<TRIPOS>MOLECULE
frag3-195-6/31924 -- energy: -1.917198
   20    19     1     1     1
SMALL
USER_CHARGES


@<TRIPOS>ATOM
      1 S1          2.6836   -3.9777   -5.0246 S.3        1 <1>        0.000
      2 S2          3.9556   -4.0941   -6.5976 S.3        1 <1>        0.000
      3 C1          5.1608   -2.8613   -6.1283 C.2        1 <1>        0.000
      4 C2          5.2757   -1.7485   -6.8663 C.2        1 <1>        0.000
      5 N1          6.0960   -0.6906   -6.6517 N.am       1 <1>        0.000
      6 C9          6.2521    0.4267   -7.3993 C.2        1 <1>        0.000
      7 O1          6.9769    1.3690   -7.1288 O.2        1 <1>        0.000
      8 C20         1.4607   -2.8487   -5.6725 C.2        1 <1>        0.000
      9 C21         1.4438   -1.5862   -5.2230 C.2        1 <1>        0.000
     10 N5          0.6217   -0.5813   -5.6120 N.am       1 <1>        0.000
     11 C28        -0.3179   -0.5841   -6.5886 C.2        1 <1>        0.000
     12 O4         -0.5944   -1.5331   -7.3041 O.2        1 <1>        0.000
     13 H           5.7938   -3.0122   -5.2539 H.spc      1 <1>        0.000
     14 H           4.6326   -1.6866   -7.7442 H.spc      1 <1>        0.000
     15 H           6.6740   -0.7440   -5.8129 H.spc      1 <1>        0.000
     16 H           5.6795    0.4897   -8.3246 H.spc      1 <1>        0.000
     17 H           0.7407   -3.1807   -6.4205 H.spc      1 <1>        0.000
     18 H           2.1767   -1.3387   -4.4550 H.spc      1 <1>        0.000
     19 H           0.7240    0.2954   -5.1007 H.spc      1 <1>        0.000
     20 H          -0.8738    0.3397   -6.7485 H.spc      1 <1>        0.000
@<TRIPOS>BOND
     1    6    7 2  
     2   10   11 am 
     3    9   10 1  
     4    8    9 2  
     5    5    6 am 
     6    4    5 1  
     7    1    2 1  
     8    1    8 1  
     9    2    3 1  
    10    3    4 2  
    11   11   12 2  
    12    3   13 1  
    13    4   14 1  
    14    5   15 1  
    15    6   16 1  
    16    8   17 1  
    17    9   18 1  
    18   10   19 1  
    19   11   20 1  
# Name:          frag3-195-6/31924 -- energy: -1.895597
# Creation time: Sat Jun  5 12:52:15 2010


@<TRIPOS>MOLECULE
frag3-195-6/31924 -- energy: -1.895597
   20    19     1     1     1
SMALL
USER_CHARGES


@<TRIPOS>ATOM
      1 S1          3.5755   -3.1463   -7.3914 S.3        1 <1>        0.000
      2 S2          2.8670   -4.0125   -5.6993 S.3        1 <1>        0.000
      3 C1          1.9141   -2.6532   -5.0248 C.2        1 <1>        0.000
      4 C2          0.8009   -2.2678   -5.6659 C.2        1 <1>        0.000
      5 N1         -0.0685   -1.2917   -5.2954 N.am       1 <1>        0.000
      6 C9         -1.2372   -0.9372   -5.8795 C.2        1 <1>        0.000
      7 O1         -1.6141   -1.2919   -6.9837 O.2        1 <1>        0.000
      8 C20         5.1827   -2.5950   -6.8245 C.2        1 <1>        0.000
      9 C21         5.5501   -1.3309   -7.0763 C.2        1 <1>        0.000
     10 N5          6.7040   -0.7213   -6.7057 N.am       1 <1>        0.000
     11 C28         7.1295    0.5350   -6.9830 C.2        1 <1>        0.000
     12 O4          8.2106    1.0028   -6.6674 O.2        1 <1>        0.000
     13 H           2.2327   -2.1498   -4.1120 H.spc      1 <1>        0.000
     14 H           0.5671   -2.7980   -6.5891 H.spc      1 <1>        0.000
     15 H           0.1939   -0.7554   -4.4684 H.spc      1 <1>        0.000
     16 H          -1.8974   -0.2788   -5.3149 H.spc      1 <1>        0.000
     17 H           5.8467   -3.2720   -6.2871 H.spc      1 <1>        0.000
     18 H           4.8426   -0.7248   -7.6422 H.spc      1 <1>        0.000
     19 H           7.3383   -1.2861   -6.1408 H.spc      1 <1>        0.000
     20 H           6.4478    1.1822   -7.5348 H.spc      1 <1>        0.000
@<TRIPOS>BOND
     1    6    7 2  
     2   10   11 am 
     3    9   10 1  
     4    8    9 2  
     5    5    6 am 
     6    4    5 1  
     7    1    2 1  
     8    1    8 1  
     9    2    3 1  
    10    3    4 2  
    11   11   12 2  
    12    3   13 1  
    13    4   14 1  
    14    5   15 1  
    15    6   16 1  
    16    8   17 1  
    17    9   18 1  
    18   10   19 1  
    19   11   20 1  
# Name:          frag3-195-6/31924 -- energy: -1.975124
# Creation time: Sat Jun  5 12:52:15 2010


@<TRIPOS>MOLECULE
frag3-195-6/31924 -- energy: -1.975124
   20    19     1     1     1
SMALL
USER_CHARGES


@<TRIPOS>ATOM
      1 S1          2.8031   -3.6684   -7.6832 S.3        1 <1>        0.000
      2 S2          4.0448   -3.5059   -6.0926 S.3        1 <1>        0.000
      3 C1          5.0877   -2.1649   -6.6264 C.2        1 <1>        0.000
      4 C2          5.7702   -1.4561   -5.7184 C.2        1 <1>        0.000
      5 N1          6.6329   -0.4367   -5.9341 N.am       1 <1>        0.000
      6 C9          6.9588    0.1632   -7.1032 C.2        1 <1>        0.000
      7 O1          7.7446    1.0847   -7.2391 O.2        1 <1>        0.000
      8 C20         1.4811   -2.5866   -7.1819 C.2        1 <1>        0.000
      9 C21         0.8891   -2.7922   -5.9946 C.2        1 <1>        0.000
     10 N5         -0.0998   -2.0689   -5.4259 N.am       1 <1>        0.000
     11 C28        -0.7126   -0.9517   -5.8872 C.2        1 <1>        0.000
     12 O4         -1.5853   -0.3263   -5.3102 O.2        1 <1>        0.000
     13 H           5.1700   -1.9225   -7.6859 H.spc      1 <1>        0.000
     14 H           5.6110   -1.7349   -4.6767 H.spc      1 <1>        0.000
     15 H           7.1006   -0.0710   -5.1047 H.spc      1 <1>        0.000
     16 H           6.4744   -0.2121   -8.0047 H.spc      1 <1>        0.000
     17 H           1.1576   -1.7707   -7.8283 H.spc      1 <1>        0.000
     18 H           1.2499   -3.6456   -5.4204 H.spc      1 <1>        0.000
     19 H          -0.4313   -2.4111   -4.5240 H.spc      1 <1>        0.000
     20 H          -0.3968   -0.5790   -6.8616 H.spc      1 <1>        0.000
@<TRIPOS>BOND
     1    6    7 2  
     2   10   11 am 
     3    9   10 1  
     4    8    9 2  
     5    5    6 am 
     6    4    5 1  
     7    1    2 1  
     8    1    8 1  
     9    2    3 1  
    10    3    4 2  
    11   11   12 2  
    12    3   13 1  
    13    4   14 1  
    14    5   15 1  
    15    6   16 1  
    16    8   17 1  
    17    9   18 1  
    18   10   19 1  
    19   11   20 1  
# Name:          frag3-195-6/31924 -- energy: -1.742585
# Creation time: Sat Jun  5 12:52:15 2010


@<TRIPOS>MOLECULE
frag3-195-6/31924 -- energy: -1.742585
   20    19     1     1     1
SMALL
USER_CHARGES


@<TRIPOS>ATOM
      1 S1          4.5000   -3.5249   -6.0100 S.3        1 <1>        0.000
      2 S2          3.0542   -2.8507   -4.7635 S.3        1 <1>        0.000
      3 C1          2.0839   -1.8692   -5.8986 C.2        1 <1>        0.000
      4 C2          0.7475   -1.9088   -5.8159 C.2        1 <1>        0.000
      5 N1         -0.1522   -1.2153   -6.5580 N.am       1 <1>        0.000
      6 C9         -1.5017   -1.3160   -6.5608 C.2        1 <1>        0.000
      7 O1         -2.1598   -2.0573   -5.8494 O.2        1 <1>        0.000
      8 C20         5.3949   -2.0118   -6.3258 C.2        1 <1>        0.000
      9 C21         6.4687   -2.0489   -7.1252 C.2        1 <1>        0.000
     10 N5          7.2535   -1.0115   -7.5053 N.am       1 <1>        0.000
     11 C28         7.1039    0.3082   -7.2359 C.2        1 <1>        0.000
     12 O4          6.2215    0.7963   -6.5486 O.2        1 <1>        0.000
     13 H           2.5728   -1.2468   -6.6480 H.spc      1 <1>        0.000
     14 H           0.3332   -2.5783   -5.0622 H.spc      1 <1>        0.000
     15 H           0.2410   -0.5263   -7.1991 H.spc      1 <1>        0.000
     16 H          -2.0474   -0.6805   -7.2582 H.spc      1 <1>        0.000
     17 H           5.0722   -1.0733   -5.8751 H.spc      1 <1>        0.000
     18 H           6.7438   -3.0285   -7.5160 H.spc      1 <1>        0.000
     19 H           8.0664   -1.2571   -8.0703 H.spc      1 <1>        0.000
     20 H           7.8337    0.9917   -7.6699 H.spc      1 <1>        0.000
@<TRIPOS>BOND
     1    6    7 2  
     2   10   11 am 
     3    9   10 1  
     4    8    9 2  
     5    5    6 am 
     6    4    5 1  
     7    1    2 1  
     8    1    8 1  
     9    2    3 1  
    10    3    4 2  
    11   11   12 2  
    12    3   13 1  
    13    4   14 1  
    14    5   15 1  
    15    6   16 1  
    16    8   17 1  
    17    9   18 1  
    18   10   19 1  
    19   11   20 1  
# Name:          frag3-195-6/31924 -- energy: -1.948920
# Creation time: Sat Jun  5 12:52:16 2010


@<TRIPOS>MOLECULE
frag3-195-6/31924 -- energy: -1.948920
   20    19     1     1     1
SMALL
USER_CHARGES


@<TRIPOS>ATOM
      1 S1          3.9447   -4.0110   -6.9319 S.3        1 <1>        0.000
      2 S2          3.0626   -3.6330   -5.1466 S.3        1 <1>        0.000
      3 C1          1.6217   -2.7235   -5.6901 C.2        1 <1>        0.000
      4 C2          1.1990   -1.6805   -4.9619 C.2        1 <1>        0.000
      5 N1          0.1578   -0.8512   -5.2284 N.am       1 <1>        0.000
      6 C9         -0.6759   -0.8628   -6.2950 C.2        1 <1>        0.000
      7 O1         -0.5441   -1.5541   -7.2915 O.2        1 <1>        0.000
      8 C20         4.3980   -2.3541   -7.4284 C.2        1 <1>        0.000
      9 C21         5.4642   -1.7802   -6.8532 C.2        1 <1>        0.000
     10 N5          5.9814   -0.5549   -7.1112 N.am       1 <1>        0.000
     11 C28         6.9926    0.0938   -6.4849 C.2        1 <1>        0.000
     12 O4          7.4126    1.2016   -6.7736 O.2        1 <1>        0.000
     13 H           1.0953   -3.0129   -6.5996 H.spc      1 <1>        0.000
     14 H           1.7568   -1.4740   -4.0485 H.spc      1 <1>        0.000
     15 H          -0.0195   -0.1247   -4.5347 H.spc      1 <1>        0.000
     16 H          -1.5387   -0.1976   -6.2604 H.spc      1 <1>        0.000
     17 H           3.8193   -1.8217   -8.1832 H.spc      1 <1>        0.000
     18 H           5.9741   -2.3674   -6.0895 H.spc      1 <1>        0.000
     19 H           5.5491   -0.0503   -7.8851 H.spc      1 <1>        0.000
     20 H           7.4721   -0.4188   -5.6510 H.spc      1 <1>        0.000
@<TRIPOS>BOND
     1    6    7 2  
     2   10   11 am 
     3    9   10 1  
     4    8    9 2  
     5    5    6 am 
     6    4    5 1  
     7    1    2 1  
     8    1    8 1  
     9    2    3 1  
    10    3    4 2  
    11   11   12 2  
    12    3   13 1  
    13    4   14 1  
    14    5   15 1  
    15    6   16 1  
    16    8   17 1  
    17    9   18 1  
    18   10   19 1  
    19   11   20 1  
# Name:          frag3-195-6/31924 -- energy: -2.601354
# Creation time: Sat Jun  5 12:52:16 2010


@<TRIPOS>MOLECULE
frag3-195-6/31924 -- energy: -2.601354
   20    19     1     1     1
SMALL
USER_CHARGES


@<TRIPOS>ATOM
      1 S1          2.9356   -4.5598   -5.8165 S.3        1 <1>        0.000
      2 S2          4.5507   -4.4428   -7.0372 S.3        1 <1>        0.000
      3 C1          5.3639   -3.0040   -6.3478 C.2        1 <1>        0.000
      4 C2          5.0720   -1.7952   -6.8496 C.2        1 <1>        0.000
      5 N1          5.5500   -0.5926   -6.4394 N.am       1 <1>        0.000
      6 C9          5.2399    0.6418   -6.9003 C.2        1 <1>        0.000
      7 O1          5.7473    1.6866   -6.5291 O.2        1 <1>        0.000
      8 C20         2.0691   -3.0631   -6.2788 C.2        1 <1>        0.000
      9 C21         1.2981   -2.4599   -5.3638 C.2        1 <1>        0.000
     10 N5          0.5928   -1.3112   -5.5109 N.am       1 <1>        0.000
     11 C28         0.6317   -0.4135   -6.5254 C.2        1 <1>        0.000
     12 O4         -0.0366    0.6039   -6.5981 O.2        1 <1>        0.000
     13 H           6.0829   -3.1088   -5.5353 H.spc      1 <1>        0.000
     14 H           4.3699   -1.7760   -7.6831 H.spc      1 <1>        0.000
     15 H           6.2339   -0.6233   -5.6832 H.spc      1 <1>        0.000
     16 H           4.4704    0.7075   -7.6695 H.spc      1 <1>        0.000
     17 H           2.1666   -2.6512   -7.2833 H.spc      1 <1>        0.000
     18 H           1.2302   -2.9477   -4.3914 H.spc      1 <1>        0.000
     19 H          -0.0558   -1.0929   -4.7545 H.spc      1 <1>        0.000
     20 H           1.3189   -0.6183   -7.3463 H.spc      1 <1>        0.000
@<TRIPOS>BOND
     1    6    7 2  
     2   10   11 am 
     3    9   10 1  
     4    8    9 2  
     5    5    6 am 
     6    4    5 1  
     7    1    2 1  
     8    1    8 1  
     9    2    3 1  
    10    3    4 2  
    11   11   12 2  
    12    3   13 1  
    13    4   14 1  
    14    5   15 1  
    15    6   16 1  
    16    8   17 1  
    17    9   18 1  
    18   10   19 1  
    19   11   20 1  
# Name:          frag3-195-6/31924 -- energy: -1.764727
# Creation time: Sat Jun  5 12:52:16 2010


@<TRIPOS>MOLECULE
frag3-195-6/31924 -- energy: -1.764727
   20    19     1     1     1
SMALL
USER_CHARGES


@<TRIPOS>ATOM
      1 S1          4.4199   -3.3284   -5.7105 S.3        1 <1>        0.000
      2 S2          3.0779   -3.3179   -7.2243 S.3        1 <1>        0.000
      3 C1          1.7449   -2.4046   -6.4714 C.2        1 <1>        0.000
      4 C2          0.4899   -2.6047   -6.8942 C.2        1 <1>        0.000
      5 N1         -0.6467   -2.0408   -6.4226 N.am       1 <1>        0.000
      6 C9         -0.7867   -1.0909   -5.4681 C.2        1 <1>        0.000
      7 O1         -1.8424   -0.6367   -5.0623 O.2        1 <1>        0.000
      8 C20         5.3123   -1.8232   -6.0470 C.2        1 <1>        0.000
      9 C21         6.6177   -1.8929   -6.3410 C.2        1 <1>        0.000
     10 N5          7.4535   -0.8754   -6.6568 N.am       1 <1>        0.000
     11 C28         7.1497    0.4170   -6.9289 C.2        1 <1>        0.000
     12 O4          6.0245    0.8886   -6.9699 O.2        1 <1>        0.000
     13 H           1.9493   -1.6899   -5.6742 H.spc      1 <1>        0.000
     14 H           0.3690   -3.3074   -7.7187 H.spc      1 <1>        0.000
     15 H          -1.5136   -2.3764   -6.8425 H.spc      1 <1>        0.000
     16 H           0.1268   -0.6970   -5.0225 H.spc      1 <1>        0.000
     17 H           4.8036   -0.8597   -6.0141 H.spc      1 <1>        0.000
     18 H           7.0603   -2.8889   -6.3239 H.spc      1 <1>        0.000
     19 H           8.4446   -1.1136   -6.6950 H.spc      1 <1>        0.000
     20 H           7.9811    1.0931   -7.1282 H.spc      1 <1>        0.000
@<TRIPOS>BOND
     1    6    7 2  
     2   10   11 am 
     3    9   10 1  
     4    8    9 2  
     5    5    6 am 
     6    4    5 1  
     7    1    2 1  
     8    1    8 1  
     9    2    3 1  
    10    3    4 2  
    11   11   12 2  
    12    3   13 1  
    13    4   14 1  
    14    5   15 1  
    15    6   16 1  
    16    8   17 1  
    17    9   18 1  
    18   10   19 1  
    19   11   20 1  
# Name:          frag3-195-6/31924 -- energy: -1.933643
# Creation time: Sat Jun  5 12:52:16 2010


@<TRIPOS>MOLECULE
frag3-195-6/31924 -- energy: -1.933643
   20    19     1     1     1
SMALL
USER_CHARGES


@<TRIPOS>ATOM
      1 S1          4.6234   -3.8390   -6.5282 S.3        1 <1>        0.000
      2 S2          2.6351   -4.1939   -6.7296 S.3        1 <1>        0.000
      3 C1          1.9809   -2.9537   -5.6108 C.2        1 <1>        0.000
      4 C2          0.8823   -2.2768   -5.9766 C.2        1 <1>        0.000
      5 N1          0.2190   -1.3336   -5.2567 N.am       1 <1>        0.000
      6 C9         -0.8988   -0.6482   -5.5935 C.2        1 <1>        0.000
      7 O1         -1.6676   -0.9441   -6.4925 O.2        1 <1>        0.000
      8 C20         4.7237   -2.1797   -7.2007 C.2        1 <1>        0.000
      9 C21         5.7552   -1.4061   -6.8331 C.2        1 <1>        0.000
     10 N5          6.0223   -0.1430   -7.2527 N.am       1 <1>        0.000
     11 C28         6.9609    0.7225   -6.7980 C.2        1 <1>        0.000
     12 O4          7.7781    0.4858   -5.9244 O.2        1 <1>        0.000
     13 H           2.4654   -2.7546   -4.6549 H.spc      1 <1>        0.000
     14 H           0.4760   -2.5089   -6.9610 H.spc      1 <1>        0.000
     15 H           0.6154   -1.1134   -4.3430 H.spc      1 <1>        0.000
     16 H          -1.1313    0.2438   -5.0117 H.spc      1 <1>        0.000
     17 H           3.9655   -1.8095   -7.8907 H.spc      1 <1>        0.000
     18 H           6.4561   -1.8387   -6.1192 H.spc      1 <1>        0.000
     19 H           5.4370    0.2015   -8.0137 H.spc      1 <1>        0.000
     20 H           6.9876    1.7134   -7.2513 H.spc      1 <1>        0.000
@<TRIPOS>BOND
     1    6    7 2  
     2   10   11 am 
     3    9   10 1  
     4    8    9 2  
     5    5    6 am 
     6    4    5 1  
     7    1    2 1  
     8    1    8 1  
     9    2    3 1  
    10    3    4 2  
    11   11   12 2  
    12    3   13 1  
    13    4   14 1  
    14    5   15 1  
    15    6   16 1  
    16    8   17 1  
    17    9   18 1  
    18   10   19 1  
    19   11   20 1  
# Name:          frag3-195-6/31924 -- energy: -1.816988
# Creation time: Sat Jun  5 12:52:16 2010


@<TRIPOS>MOLECULE
frag3-195-6/31924 -- energy: -1.816988
   20    19     1     1     1
SMALL
USER_CHARGES


@<TRIPOS>ATOM
      1 S1          4.6405   -3.4802   -5.7103 S.3        1 <1>        0.000
      2 S2          3.1295   -3.4203   -7.0592 S.3        1 <1>        0.000
      3 C1          2.0832   -2.1780   -6.3104 C.2        1 <1>        0.000
      4 C2          0.7527   -2.3125   -6.3962 C.2        1 <1>        0.000
      5 N1         -0.1985   -1.5046   -5.8648 N.am       1 <1>        0.000
      6 C9         -1.5443   -1.6438   -5.9004 C.2        1 <1>        0.000
      7 O1         -2.3556   -0.8107   -5.5339 O.2        1 <1>        0.000
      8 C20         5.4423   -1.9187   -6.0491 C.2        1 <1>        0.000
      9 C21         6.6543   -1.9284   -6.6210 C.2        1 <1>        0.000
     10 N5          7.4044   -0.8589   -6.9834 N.am       1 <1>        0.000
     11 C28         7.0523    0.4490   -7.0265 C.2        1 <1>        0.000
     12 O4          5.9539    0.8973   -6.7415 O.2        1 <1>        0.000
     13 H           2.5210   -1.3247   -5.7923 H.spc      1 <1>        0.000
     14 H           0.3921   -3.1730   -6.9598 H.spc      1 <1>        0.000
     15 H           0.1470   -0.6812   -5.3719 H.spc      1 <1>        0.000
     16 H          -1.9371   -2.5826   -6.2908 H.spc      1 <1>        0.000
     17 H           4.9550   -0.9772   -5.7955 H.spc      1 <1>        0.000
     18 H           7.0869   -2.9094   -6.8174 H.spc      1 <1>        0.000
     19 H           8.3636   -1.0668   -7.2612 H.spc      1 <1>        0.000
     20 H           7.8149    1.1608   -7.3425 H.spc      1 <1>        0.000
@<TRIPOS>BOND
     1    6    7 2  
     2   10   11 am 
     3    9   10 1  
     4    8    9 2  
     5    5    6 am 
     6    4    5 1  
     7    1    2 1  
     8    1    8 1  
     9    2    3 1  
    10    3    4 2  
    11   11   12 2  
    12    3   13 1  
    13    4   14 1  
    14    5   15 1  
    15    6   16 1  
    16    8   17 1  
    17    9   18 1  
    18   10   19 1  
    19   11   20 1  
# Name:          frag3-195-6/31924 -- energy: -1.893754
# Creation time: Sat Jun  5 12:52:16 2010


@<TRIPOS>MOLECULE
frag3-195-6/31924 -- energy: -1.893754
   20    19     1     1     1
SMALL
USER_CHARGES


@<TRIPOS>ATOM
      1 S1          3.1565   -2.5096   -5.2178 S.3        1 <1>        0.000
      2 S2          4.1647   -3.2520   -6.8112 S.3        1 <1>        0.000
      3 C1          5.3013   -1.9091   -7.1222 C.2        1 <1>        0.000
      4 C2          6.2732   -1.6627   -6.2306 C.2        1 <1>        0.000
      5 N1          7.2457   -0.7211   -6.3048 N.am       1 <1>        0.000
      6 C9          7.6514   -0.0090   -7.3823 C.2        1 <1>        0.000
      7 O1          8.5529    0.8115   -7.3950 O.2        1 <1>        0.000
      8 C20         1.7356   -1.7957   -6.0312 C.2        1 <1>        0.000
      9 C21         0.5111   -2.1749   -5.6418 C.2        1 <1>        0.000
     10 N5         -0.6797   -1.7327   -6.1109 N.am       1 <1>        0.000
     11 C28        -1.9309   -2.1275   -5.7733 C.2        1 <1>        0.000
     12 O4         -2.9674   -1.6271   -6.1759 O.2        1 <1>        0.000
     13 H           5.2068   -1.3001   -8.0213 H.spc      1 <1>        0.000
     14 H           6.2819   -2.2939   -5.3420 H.spc      1 <1>        0.000
     15 H           7.7369   -0.5229   -5.4331 H.spc      1 <1>        0.000
     16 H           7.1258   -0.1847   -8.3209 H.spc      1 <1>        0.000
     17 H           1.8624   -1.0648   -6.8299 H.spc      1 <1>        0.000
     18 H           0.4684   -2.9279   -4.8549 H.spc      1 <1>        0.000
     19 H          -0.6273   -0.9993   -6.8178 H.spc      1 <1>        0.000
     20 H          -2.0187   -2.9653   -5.0816 H.spc      1 <1>        0.000
@<TRIPOS>BOND
     1    6    7 2  
     2   10   11 am 
     3    9   10 1  
     4    8    9 2  
     5    5    6 am 
     6    4    5 1  
     7    1    2 1  
     8    1    8 1  
     9    2    3 1  
    10    3    4 2  
    11   11   12 2  
    12    3   13 1  
    13    4   14 1  
    14    5   15 1  
    15    6   16 1  
    16    8   17 1  
    17    9   18 1  
    18   10   19 1  
    19   11   20 1  
# Name:          frag3-195-6/31924 -- energy: -1.851174
# Creation time: Sat Jun  5 12:52:16 2010


@<TRIPOS>MOLECULE
frag3-195-6/31924 -- energy: -1.851174
   20    19     1     1     1
SMALL
USER_CHARGES


@<TRIPOS>ATOM
      1 S1          4.0893   -3.4003   -7.0110 S.3        1 <1>        0.000
      2 S2          3.1388   -3.1250   -5.2458 S.3        1 <1>        0.000
      3 C1          1.5049   -2.7022   -5.8166 C.2        1 <1>        0.000
      4 C2          0.7620   -1.8407   -5.1096 C.2        1 <1>        0.000
      5 N1         -0.4747   -1.3743   -5.4011 N.am       1 <1>        0.000
      6 C9         -1.3023   -1.7426   -6.4072 C.2        1 <1>        0.000
      7 O1         -2.3866   -1.2458   -6.6581 O.2        1 <1>        0.000
      8 C20         5.0694   -1.9156   -7.0978 C.2        1 <1>        0.000
      9 C21         6.3102   -1.9264   -6.5893 C.2        1 <1>        0.000
     10 N5          7.2109   -0.9185   -6.5831 N.am       1 <1>        0.000
     11 C28         7.0999    0.3271   -7.1051 C.2        1 <1>        0.000
     12 O4          7.9927    1.1544   -7.1722 O.2        1 <1>        0.000
     13 H           1.1129   -3.1412   -6.7340 H.spc      1 <1>        0.000
     14 H           1.2079   -1.4699   -4.1867 H.spc      1 <1>        0.000
     15 H          -0.8308   -0.6481   -4.7796 H.spc      1 <1>        0.000
     16 H          -0.9689   -2.5567   -7.0508 H.spc      1 <1>        0.000
     17 H           4.6670   -1.0126   -7.5569 H.spc      1 <1>        0.000
     18 H           6.6307   -2.8593   -6.1256 H.spc      1 <1>        0.000
     19 H           8.0970   -1.1240   -6.1215 H.spc      1 <1>        0.000
     20 H           6.1256    0.6149   -7.5001 H.spc      1 <1>        0.000
@<TRIPOS>BOND
     1    6    7 2  
     2   10   11 am 
     3    9   10 1  
     4    8    9 2  
     5    5    6 am 
     6    4    5 1  
     7    1    2 1  
     8    1    8 1  
     9    2    3 1  
    10    3    4 2  
    11   11   12 2  
    12    3   13 1  
    13    4   14 1  
    14    5   15 1  
    15    6   16 1  
    16    8   17 1  
    17    9   18 1  
    18   10   19 1  
    19   11   20 1  
# Name:          frag3-195-6/31924 -- energy: -2.076497
# Creation time: Sat Jun  5 12:52:16 2010


@<TRIPOS>MOLECULE
frag3-195-6/31924 -- energy: -2.076497
   20    19     1     1     1
SMALL
USER_CHARGES


@<TRIPOS>ATOM
      1 S1          3.1506   -3.9647   -7.5697 S.3        1 <1>        0.000
      2 S2          4.5603   -3.8042   -6.1237 S.3        1 <1>        0.000
      3 C1          4.9917   -2.0777   -6.2840 C.2        1 <1>        0.000
      4 C2          6.2132   -1.6742   -5.9091 C.2        1 <1>        0.000
      5 N1          6.7362   -0.4246   -5.9904 N.am       1 <1>        0.000
      6 C9          6.2869    0.6305   -6.7098 C.2        1 <1>        0.000
      7 O1          5.2275    0.6791   -7.3132 O.2        1 <1>        0.000
      8 C20         1.6821   -3.5445   -6.6434 C.2        1 <1>        0.000
      9 C21         1.3046   -2.2600   -6.5790 C.2        1 <1>        0.000
     10 N5          0.2164   -1.7485   -5.9564 N.am       1 <1>        0.000
     11 C28        -0.1770   -0.4567   -5.8470 C.2        1 <1>        0.000
     12 O4         -1.1778   -0.0645   -5.2712 O.2        1 <1>        0.000
     13 H           4.2712   -1.3627   -6.6812 H.spc      1 <1>        0.000
     14 H           6.8642   -2.4408   -5.4889 H.spc      1 <1>        0.000
     15 H           7.5772   -0.2588   -5.4376 H.spc      1 <1>        0.000
     16 H           6.9263    1.5122   -6.7538 H.spc      1 <1>        0.000
     17 H           1.1034   -4.3187   -6.1396 H.spc      1 <1>        0.000
     18 H           1.9492   -1.5431   -7.0875 H.spc      1 <1>        0.000
     19 H          -0.3928   -2.4318   -5.5065 H.spc      1 <1>        0.000
     20 H           0.4561    0.2976   -6.3143 H.spc      1 <1>        0.000
@<TRIPOS>BOND
     1    6    7 2  
     2   10   11 am 
     3    9   10 1  
     4    8    9 2  
     5    5    6 am 
     6    4    5 1  
     7    1    2 1  
     8    1    8 1  
     9    2    3 1  
    10    3    4 2  
    11   11   12 2  
    12    3   13 1  
    13    4   14 1  
    14    5   15 1  
    15    6   16 1  
    16    8   17 1  
    17    9   18 1  
    18   10   19 1  
    19   11   20 1  
# Name:          frag3-195-6/31924 -- energy: -1.702233
# Creation time: Sat Jun  5 12:52:16 2010


@<TRIPOS>MOLECULE
frag3-195-6/31924 -- energy: -1.702233
   20    19     1     1     1
SMALL
USER_CHARGES


@<TRIPOS>ATOM
      1 S1          4.4839   -3.6857   -6.9651 S.3        1 <1>        0.000
      2 S2          2.8408   -3.8680   -5.7918 S.3        1 <1>        0.000
      3 C1          1.6453   -2.9705   -6.7758 C.2        1 <1>        0.000
      4 C2          0.6809   -2.2803   -6.1514 C.2        1 <1>        0.000
      5 N1         -0.2861   -1.5129   -6.7172 N.am       1 <1>        0.000
      6 C9         -1.2197   -0.7459   -6.1069 C.2        1 <1>        0.000
      7 O1         -1.5000   -0.7795   -4.9203 O.2        1 <1>        0.000
      8 C20         5.4656   -2.5598   -5.9804 C.2        1 <1>        0.000
      9 C21         6.0031   -1.4869   -6.5765 C.2        1 <1>        0.000
     10 N5          6.7457   -0.5095   -5.9995 N.am       1 <1>        0.000
     11 C28         7.1931    0.6498   -6.5397 C.2        1 <1>        0.000
     12 O4          6.9619    1.0394   -7.6723 O.2        1 <1>        0.000
     13 H           1.7006   -2.9850   -7.8643 H.spc      1 <1>        0.000
     14 H           0.6717   -2.3421   -5.0632 H.spc      1 <1>        0.000
     15 H          -0.3124   -1.5147   -7.7369 H.spc      1 <1>        0.000
     16 H          -1.7676   -0.0380   -6.7288 H.spc      1 <1>        0.000
     17 H           5.6232   -2.7429   -4.9175 H.spc      1 <1>        0.000
     18 H           5.8231   -1.3884   -7.6470 H.spc      1 <1>        0.000
     19 H           7.0026   -0.6691   -5.0254 H.spc      1 <1>        0.000
     20 H           7.8118    1.2881   -5.9090 H.spc      1 <1>        0.000
@<TRIPOS>BOND
     1    6    7 2  
     2   10   11 am 
     3    9   10 1  
     4    8    9 2  
     5    5    6 am 
     6    4    5 1  
     7    1    2 1  
     8    1    8 1  
     9    2    3 1  
    10    3    4 2  
    11   11   12 2  
    12    3   13 1  
    13    4   14 1  
    14    5   15 1  
    15    6   16 1  
    16    8   17 1  
    17    9   18 1  
    18   10   19 1  
    19   11   20 1  
# Name:          frag3-195-6/31924 -- energy: -2.336334
# Creation time: Sat Jun  5 12:52:16 2010


@<TRIPOS>MOLECULE
frag3-195-6/31924 -- energy: -2.336334
   20    19     1     1     1
SMALL
USER_CHARGES


@<TRIPOS>ATOM
      1 S1          4.2656   -4.1621   -7.1067 S.3        1 <1>        0.000
      2 S2          3.1260   -4.2360   -5.4289 S.3        1 <1>        0.000
      3 C1          2.4433   -2.5773   -5.4407 C.2        1 <1>        0.000
      4 C2          1.1969   -2.4006   -5.9031 C.2        1 <1>        0.000
      5 N1          0.4963   -1.2367   -5.9570 N.am       1 <1>        0.000
      6 C9         -0.7748   -1.0374   -6.3783 C.2        1 <1>        0.000
      7 O1         -1.4236   -0.0179   -6.2147 O.2        1 <1>        0.000
      8 C20         5.5038   -2.9669   -6.6026 C.2        1 <1>        0.000
      9 C21         5.3057   -1.6775   -6.9109 C.2        1 <1>        0.000
     10 N5          6.1049   -0.6268   -6.5934 N.am       1 <1>        0.000
     11 C28         5.9915    0.6703   -6.9695 C.2        1 <1>        0.000
     12 O4          6.7788    1.5590   -6.6911 O.2        1 <1>        0.000
     13 H           3.0286   -1.7315   -5.0800 H.spc      1 <1>        0.000
     14 H           0.6889   -3.2893   -6.2775 H.spc      1 <1>        0.000
     15 H           0.9933   -0.4049   -5.6384 H.spc      1 <1>        0.000
     16 H          -1.2591   -1.8574   -6.9085 H.spc      1 <1>        0.000
     17 H           6.3950   -3.2810   -6.0592 H.spc      1 <1>        0.000
     18 H           4.4042   -1.4473   -7.4787 H.spc      1 <1>        0.000
     19 H           6.8983   -0.8430   -5.9899 H.spc      1 <1>        0.000
     20 H           5.1241    0.9419   -7.5711 H.spc      1 <1>        0.000
@<TRIPOS>BOND
     1    6    7 2  
     2   10   11 am 
     3    9   10 1  
     4    8    9 2  
     5    5    6 am 
     6    4    5 1  
     7    1    2 1  
     8    1    8 1  
     9    2    3 1  
    10    3    4 2  
    11   11   12 2  
    12    3   13 1  
    13    4   14 1  
    14    5   15 1  
    15    6   16 1  
    16    8   17 1  
    17    9   18 1  
    18   10   19 1  
    19   11   20 1  
# Name:          frag3-195-6/31924 -- energy: -1.798380
# Creation time: Sat Jun  5 12:52:16 2010


@<TRIPOS>MOLECULE
frag3-195-6/31924 -- energy: -1.798380
   20    19     1     1     1
SMALL
USER_CHARGES


@<TRIPOS>ATOM
      1 S1          2.6057   -4.0840   -5.7735 S.3        1 <1>        0.000
      2 S2          4.0242   -3.5752   -7.1267 S.3        1 <1>        0.000
      3 C1          4.6837   -2.1009   -6.3595 C.2        1 <1>        0.000
      4 C2          5.7404   -1.4946   -6.9165 C.2        1 <1>        0.000
      5 N1          6.3554   -0.3571   -6.5079 N.am       1 <1>        0.000
      6 C9          7.5186    0.1806   -6.9431 C.2        1 <1>        0.000
      7 O1          7.9400    1.2892   -6.6606 O.2        1 <1>        0.000
      8 C20         1.4685   -2.7179   -5.9612 C.2        1 <1>        0.000
      9 C21         0.1543   -2.9741   -6.0062 C.2        1 <1>        0.000
     10 N5         -0.8584   -2.0797   -6.1142 N.am       1 <1>        0.000
     11 C28        -0.8105   -0.7286   -6.0205 C.2        1 <1>        0.000
     12 O4          0.1927   -0.0677   -5.8070 O.2        1 <1>        0.000
     13 H           4.2323   -1.7012   -5.4515 H.spc      1 <1>        0.000
     14 H           6.1554   -1.9725   -7.8039 H.spc      1 <1>        0.000
     15 H           5.8765    0.1637   -5.7732 H.spc      1 <1>        0.000
     16 H           8.1325   -0.4311   -7.6042 H.spc      1 <1>        0.000
     17 H           1.8375   -1.6951   -6.0377 H.spc      1 <1>        0.000
     18 H          -0.1341   -4.0237   -5.9494 H.spc      1 <1>        0.000
     19 H          -1.7812   -2.4773   -6.2897 H.spc      1 <1>        0.000
     20 H          -1.7476   -0.1863   -6.1465 H.spc      1 <1>        0.000
@<TRIPOS>BOND
     1    6    7 2  
     2   10   11 am 
     3    9   10 1  
     4    8    9 2  
     5    5    6 am 
     6    4    5 1  
     7    1    2 1  
     8    1    8 1  
     9    2    3 1  
    10    3    4 2  
    11   11   12 2  
    12    3   13 1  
    13    4   14 1  
    14    5   15 1  
    15    6   16 1  
    16    8   17 1  
    17    9   18 1  
    18   10   19 1  
    19   11   20 1  
# Name:          frag3-195-6/31924 -- energy: -1.571872
# Creation time: Sat Jun  5 12:52:16 2010


@<TRIPOS>MOLECULE
frag3-195-6/31924 -- energy: -1.571872
   20    19     1     1     1
SMALL
USER_CHARGES


@<TRIPOS>ATOM
      1 S1          2.5669   -3.0485   -7.1327 S.3        1 <1>        0.000
      2 S2          4.3487   -2.8862   -6.1800 S.3        1 <1>        0.000
      3 C1          5.1193   -1.6030   -7.1610 C.2        1 <1>        0.000
      4 C2          6.3135   -1.1277   -6.7811 C.2        1 <1>        0.000
      5 N1          7.0686   -0.1899   -7.4093 N.am       1 <1>        0.000
      6 C9          8.2603    0.3273   -7.0290 C.2        1 <1>        0.000
      7 O1          8.8889    0.0042   -6.0350 O.2        1 <1>        0.000
      8 C20         1.4407   -2.8561   -5.7560 C.2        1 <1>        0.000
      9 C21         0.2239   -2.3458   -5.9883 C.2        1 <1>        0.000
     10 N5         -0.7734   -2.1520   -5.0897 N.am       1 <1>        0.000
     11 C28        -1.9941   -1.5959   -5.2807 C.2        1 <1>        0.000
     12 O4         -2.4488   -1.2364   -6.3540 O.2        1 <1>        0.000
     13 H           4.6260   -1.2147   -8.0520 H.spc      1 <1>        0.000
     14 H           6.7265   -1.5419   -5.8613 H.spc      1 <1>        0.000
     15 H           6.6874    0.1726   -8.2832 H.spc      1 <1>        0.000
     16 H           8.6952    1.0981   -7.6652 H.spc      1 <1>        0.000
     17 H           1.7384   -3.1481   -4.7489 H.spc      1 <1>        0.000
     18 H           0.0112   -2.0531   -7.0165 H.spc      1 <1>        0.000
     19 H          -0.5776   -2.4682   -4.1399 H.spc      1 <1>        0.000
     20 H          -2.6229   -1.4582   -4.4011 H.spc      1 <1>        0.000
@<TRIPOS>BOND
     1    6    7 2  
     2   10   11 am 
     3    9   10 1  
     4    8    9 2  
     5    5    6 am 
     6    4    5 1  
     7    1    2 1  
     8    1    8 1  
     9    2    3 1  
    10    3    4 2  
    11   11   12 2  
    12    3   13 1  
    13    4   14 1  
    14    5   15 1  
    15    6   16 1  
    16    8   17 1  
    17    9   18 1  
    18   10   19 1  
    19   11   20 1  
# Name:          frag3-195-6/31924 -- energy: -1.439435
# Creation time: Sat Jun  5 12:52:16 2010


@<TRIPOS>MOLECULE
frag3-195-6/31924 -- energy: -1.439435
   20    19     1     1     1
SMALL
USER_CHARGES


@<TRIPOS>ATOM
      1 S1          2.9491   -2.3811   -7.0834 S.3        1 <1>        0.000
      2 S2          4.3441   -2.5606   -5.6251 S.3        1 <1>        0.000
      3 C1          5.6243   -1.4943   -6.2725 C.2        1 <1>        0.000
      4 C2          6.8977   -1.7213   -5.9210 C.2        1 <1>        0.000
      5 N1          8.0037   -1.0519   -6.3349 N.am       1 <1>        0.000
      6 C9          8.0874   -0.0287   -7.2175 C.2        1 <1>        0.000
      7 O1          7.1625    0.4183   -7.8757 O.2        1 <1>        0.000
      8 C20         1.5748   -1.7280   -6.1460 C.2        1 <1>        0.000
      9 C21         0.3410   -2.1747   -6.4159 C.2        1 <1>        0.000
     10 N5         -0.8152   -1.8295   -5.8000 N.am       1 <1>        0.000
     11 C28        -2.0779   -2.2466   -6.0593 C.2        1 <1>        0.000
     12 O4         -3.0769   -1.9115   -5.4456 O.2        1 <1>        0.000
     13 H           5.3733   -0.6722   -6.9428 H.spc      1 <1>        0.000
     14 H           7.0648   -2.5395   -5.2205 H.spc      1 <1>        0.000
     15 H           8.8868   -1.3599   -5.9279 H.spc      1 <1>        0.000
     16 H           9.0645    0.4353   -7.3515 H.spc      1 <1>        0.000
     17 H           1.7374   -0.9805   -5.3695 H.spc      1 <1>        0.000
     18 H           0.2577   -2.9002   -7.2251 H.spc      1 <1>        0.000
     19 H          -0.7221   -1.1624   -5.0341 H.spc      1 <1>        0.000
     20 H          -2.2124   -2.9417   -6.8880 H.spc      1 <1>        0.000
@<TRIPOS>BOND
     1    6    7 2  
     2   10   11 am 
     3    9   10 1  
     4    8    9 2  
     5    5    6 am 
     6    4    5 1  
     7    1    2 1  
     8    1    8 1  
     9    2    3 1  
    10    3    4 2  
    11   11   12 2  
    12    3   13 1  
    13    4   14 1  
    14    5   15 1  
    15    6   16 1  
    16    8   17 1  
    17    9   18 1  
    18   10   19 1  
    19   11   20 1  
# Name:          frag3-195-6/31924 -- energy: -1.830739
# Creation time: Sat Jun  5 12:52:16 2010


@<TRIPOS>MOLECULE
frag3-195-6/31924 -- energy: -1.830739
   20    19     1     1     1
SMALL
USER_CHARGES


@<TRIPOS>ATOM
      1 S1          4.2388   -3.1202   -5.6796 S.3        1 <1>        0.000
      2 S2          3.0488   -2.7062   -7.2659 S.3        1 <1>        0.000
      3 C1          1.4623   -2.5838   -6.4558 C.2        1 <1>        0.000
      4 C2          0.5491   -1.7276   -6.9336 C.2        1 <1>        0.000
      5 N1         -0.7120   -1.5225   -6.4813 N.am       1 <1>        0.000
      6 C9         -1.3211   -2.0658   -5.4012 C.2        1 <1>        0.000
      7 O1         -2.4629   -1.8402   -5.0388 O.2        1 <1>        0.000
      8 C20         5.0558   -1.5480   -5.4616 C.2        1 <1>        0.000
      9 C21         6.0855   -1.2403   -6.2631 C.2        1 <1>        0.000
     10 N5          6.8088   -0.0946   -6.2778 N.am       1 <1>        0.000
     11 C28         7.8745    0.2298   -7.0486 C.2        1 <1>        0.000
     12 O4          8.3869   -0.4906   -7.8897 O.2        1 <1>        0.000
     13 H           1.2395   -3.1980   -5.5833 H.spc      1 <1>        0.000
     14 H           0.8570   -1.1243   -7.7876 H.spc      1 <1>        0.000
     15 H          -1.2773   -0.8724   -7.0273 H.spc      1 <1>        0.000
     16 H          -0.7392   -2.7668   -4.8028 H.spc      1 <1>        0.000
     17 H           4.7238   -0.8516   -4.6916 H.spc      1 <1>        0.000
     18 H           6.3748   -2.0011   -6.9881 H.spc      1 <1>        0.000
     19 H           6.5095    0.6227   -5.6172 H.spc      1 <1>        0.000
     20 H           8.3113    1.2181   -6.9053 H.spc      1 <1>        0.000
@<TRIPOS>BOND
     1    6    7 2  
     2   10   11 am 
     3    9   10 1  
     4    8    9 2  
     5    5    6 am 
     6    4    5 1  
     7    1    2 1  
     8    1    8 1  
     9    2    3 1  
    10    3    4 2  
    11   11   12 2  
    12    3   13 1  
    13    4   14 1  
    14    5   15 1  
    15    6   16 1  
    16    8   17 1  
    17    9   18 1  
    18   10   19 1  
    19   11   20 1  
# Name:          frag3-195-6/31924 -- energy: -2.385935
# Creation time: Sat Jun  5 12:52:16 2010


@<TRIPOS>MOLECULE
frag3-195-6/31924 -- energy: -2.385935
   20    19     1     1     1
SMALL
USER_CHARGES


@<TRIPOS>ATOM
      1 S1          3.2377   -4.2715   -5.7446 S.3        1 <1>        0.000
      2 S2          4.4505   -4.0675   -7.3587 S.3        1 <1>        0.000
      3 C1          5.6837   -2.9533   -6.6858 C.2        1 <1>        0.000
      4 C2          5.5029   -1.6325   -6.8313 C.2        1 <1>        0.000
      5 N1          6.2986   -0.6354   -6.3624 N.am       1 <1>        0.000
      6 C9          6.0997    0.7021   -6.4259 C.2        1 <1>        0.000
      7 O1          5.1235    1.2514   -6.9078 O.2        1 <1>        0.000
      8 C20         2.5831   -2.6074   -5.6207 C.2        1 <1>        0.000
      9 C21         1.2951   -2.4047   -5.9318 C.2        1 <1>        0.000
     10 N5          0.6114   -1.2337   -5.8726 N.am       1 <1>        0.000
     11 C28        -0.6567   -0.9691   -6.2707 C.2        1 <1>        0.000
     12 O4         -1.2147    0.1118   -6.1846 O.2        1 <1>        0.000
     13 H           6.5617   -3.3413   -6.1694 H.spc      1 <1>        0.000
     14 H           4.6182   -1.3239   -7.3883 H.spc      1 <1>        0.000
     15 H           7.1585   -0.9341   -5.9022 H.spc      1 <1>        0.000
     16 H           6.8782    1.3424   -6.0111 H.spc      1 <1>        0.000
     17 H           3.2169   -1.7805   -5.3002 H.spc      1 <1>        0.000
     18 H           0.7349   -3.2766   -6.2696 H.spc      1 <1>        0.000
     19 H           1.1216   -0.4454   -5.4742 H.spc      1 <1>        0.000
     20 H          -1.2257   -1.7915   -6.7043 H.spc      1 <1>        0.000
@<TRIPOS>BOND
     1    6    7 2  
     2   10   11 am 
     3    9   10 1  
     4    8    9 2  
     5    5    6 am 
     6    4    5 1  
     7    1    2 1  
     8    1    8 1  
     9    2    3 1  
    10    3    4 2  
    11   11   12 2  
    12    3   13 1  
    13    4   14 1  
    14    5   15 1  
    15    6   16 1  
    16    8   17 1  
    17    9   18 1  
    18   10   19 1  
    19   11   20 1  
# Name:          frag3-195-6/31924 -- energy: -1.718055
# Creation time: Sat Jun  5 12:52:16 2010


@<TRIPOS>MOLECULE
frag3-195-6/31924 -- energy: -1.718055
   20    19     1     1     1
SMALL
USER_CHARGES


@<TRIPOS>ATOM
      1 S1          2.7751   -2.6906   -7.3029 S.3        1 <1>        0.000
      2 S2          4.0583   -2.6577   -5.7383 S.3        1 <1>        0.000
      3 C1          5.2979   -1.5342   -6.3565 C.2        1 <1>        0.000
      4 C2          6.5531   -1.6274   -5.8975 C.2        1 <1>        0.000
      5 N1          7.6307   -0.8971   -6.2722 N.am       1 <1>        0.000
      6 C9          7.7091    0.0714   -7.2149 C.2        1 <1>        0.000
      7 O1          8.7051    0.7166   -7.4933 O.2        1 <1>        0.000
      8 C20         1.2842   -2.0982   -6.5252 C.2        1 <1>        0.000
      9 C21         0.1136   -2.6610   -6.8524 C.2        1 <1>        0.000
     10 N5         -1.1101   -2.3752   -6.3512 N.am       1 <1>        0.000
     11 C28        -1.4357   -1.5974   -5.2902 C.2        1 <1>        0.000
     12 O4         -2.5667   -1.3591   -4.9025 O.2        1 <1>        0.000
     13 H           5.0372   -0.7803   -7.0993 H.spc      1 <1>        0.000
     14 H           6.7283   -2.3816   -5.1303 H.spc      1 <1>        0.000
     15 H           8.4987   -1.1045   -5.7783 H.spc      1 <1>        0.000
     16 H           6.8008    0.2940   -7.7748 H.spc      1 <1>        0.000
     17 H           1.3247   -1.2903   -5.7946 H.spc      1 <1>        0.000
     18 H           0.1514   -3.4415   -7.6123 H.spc      1 <1>        0.000
     19 H          -1.8962   -2.8044   -6.8393 H.spc      1 <1>        0.000
     20 H          -0.6141   -1.1451   -4.7347 H.spc      1 <1>        0.000
@<TRIPOS>BOND
     1    6    7 2  
     2   10   11 am 
     3    9   10 1  
     4    8    9 2  
     5    5    6 am 
     6    4    5 1  
     7    1    2 1  
     8    1    8 1  
     9    2    3 1  
    10    3    4 2  
    11   11   12 2  
    12    3   13 1  
    13    4   14 1  
    14    5   15 1  
    15    6   16 1  
    16    8   17 1  
    17    9   18 1  
    18   10   19 1  
    19   11   20 1  
# Name:          frag3-195-6/31924 -- energy: -1.984300
# Creation time: Sat Jun  5 12:52:16 2010


@<TRIPOS>MOLECULE
frag3-195-6/31924 -- energy: -1.984300
   20    19     1     1     1
SMALL
USER_CHARGES


@<TRIPOS>ATOM
      1 S1          3.2062   -2.9395   -7.5031 S.3        1 <1>        0.000
      2 S2          3.7798   -3.1247   -5.5659 S.3        1 <1>        0.000
      3 C1          4.8527   -1.6998   -5.4171 C.2        1 <1>        0.000
      4 C2          5.8193   -1.5222   -6.3301 C.2        1 <1>        0.000
      5 N1          6.7017   -0.4941   -6.4110 N.am       1 <1>        0.000
      6 C9          7.6732   -0.2839   -7.3297 C.2        1 <1>        0.000
      7 O1          8.4763    0.6335   -7.3174 O.2        1 <1>        0.000
      8 C20         1.7548   -1.9104   -7.3144 C.2        1 <1>        0.000
      9 C21         0.7866   -2.3158   -6.4800 C.2        1 <1>        0.000
     10 N5         -0.3656   -1.6684   -6.1790 N.am       1 <1>        0.000
     11 C28        -1.3221   -2.0043   -5.2800 C.2        1 <1>        0.000
     12 O4         -2.3483   -1.3802   -5.0692 O.2        1 <1>        0.000
     13 H           4.7231   -0.9899   -4.6002 H.spc      1 <1>        0.000
     14 H           5.9062   -2.2930   -7.0959 H.spc      1 <1>        0.000
     15 H           6.6221    0.2149   -5.6820 H.spc      1 <1>        0.000
     16 H           7.7437   -0.9963   -8.1516 H.spc      1 <1>        0.000
     17 H           1.6598   -0.9748   -7.8654 H.spc      1 <1>        0.000
     18 H           0.9441   -3.2754   -5.9876 H.spc      1 <1>        0.000
     19 H          -0.5362   -0.8093   -6.7017 H.spc      1 <1>        0.000
     20 H          -1.1605   -2.9098   -4.6952 H.spc      1 <1>        0.000
@<TRIPOS>BOND
     1    6    7 2  
     2   10   11 am 
     3    9   10 1  
     4    8    9 2  
     5    5    6 am 
     6    4    5 1  
     7    1    2 1  
     8    1    8 1  
     9    2    3 1  
    10    3    4 2  
    11   11   12 2  
    12    3   13 1  
    13    4   14 1  
    14    5   15 1  
    15    6   16 1  
    16    8   17 1  
    17    9   18 1  
    18   10   19 1  
    19   11   20 1  
# Name:          frag3-195-6/31924 -- energy: -1.678746
# Creation time: Sat Jun  5 12:52:16 2010


@<TRIPOS>MOLECULE
frag3-195-6/31924 -- energy: -1.678746
   20    19     1     1     1
SMALL
USER_CHARGES


@<TRIPOS>ATOM
      1 S1          4.1618   -2.5758   -5.4126 S.3        1 <1>        0.000
      2 S2          2.6660   -1.2593   -5.0539 S.3        1 <1>        0.000
      3 C1          1.4911   -1.7564   -6.3039 C.2        1 <1>        0.000
      4 C2          0.1881   -1.7942   -5.9945 C.2        1 <1>        0.000
      5 N1         -0.8507   -2.1086   -6.8088 N.am       1 <1>        0.000
      6 C9         -2.1468   -2.3199   -6.4817 C.2        1 <1>        0.000
      7 O1         -2.5764   -2.4808   -5.3511 O.2        1 <1>        0.000
      8 C20         5.4003   -1.4911   -6.1030 C.2        1 <1>        0.000
      9 C21         6.5588   -2.0153   -6.5235 C.2        1 <1>        0.000
     10 N5          7.5989   -1.3658   -7.0972 N.am       1 <1>        0.000
     11 C28         7.7634   -0.0365   -7.3030 C.2        1 <1>        0.000
     12 O4          8.7600    0.4939   -7.7635 O.2        1 <1>        0.000
     13 H           1.8295   -2.0253   -7.3046 H.spc      1 <1>        0.000
     14 H          -0.0682   -1.5422   -4.9655 H.spc      1 <1>        0.000
     15 H          -0.6246   -2.1975   -7.7994 H.spc      1 <1>        0.000
     16 H          -2.8686   -2.3488   -7.2980 H.spc      1 <1>        0.000
     17 H           5.2166   -0.4195   -6.1810 H.spc      1 <1>        0.000
     18 H           6.6782   -3.0902   -6.3880 H.spc      1 <1>        0.000
     19 H           8.3641   -1.9586   -7.4188 H.spc      1 <1>        0.000
     20 H           6.9324    0.6153   -7.0334 H.spc      1 <1>        0.000
@<TRIPOS>BOND
     1    6    7 2  
     2   10   11 am 
     3    9   10 1  
     4    8    9 2  
     5    5    6 am 
     6    4    5 1  
     7    1    2 1  
     8    1    8 1  
     9    2    3 1  
    10    3    4 2  
    11   11   12 2  
    12    3   13 1  
    13    4   14 1  
    14    5   15 1  
    15    6   16 1  
    16    8   17 1  
    17    9   18 1  
    18   10   19 1  
    19   11   20 1  
# Name:          frag3-195-6/31924 -- energy: -1.736953
# Creation time: Sat Jun  5 12:52:16 2010


@<TRIPOS>MOLECULE
frag3-195-6/31924 -- energy: -1.736953
   20    19     1     1     1
SMALL
USER_CHARGES


@<TRIPOS>ATOM
      1 S1          3.9564   -3.5288   -6.9049 S.3        1 <1>        0.000
      2 S2          3.0096   -3.1535   -5.1573 S.3        1 <1>        0.000
      3 C1          1.4578   -2.5165   -5.7548 C.2        1 <1>        0.000
      4 C2          0.5457   -2.0715   -4.8814 C.2        1 <1>        0.000
      5 N1         -0.6659   -1.5241   -5.1440 N.am       1 <1>        0.000
      6 C9         -1.1991   -1.2008   -6.3457 C.2        1 <1>        0.000
      7 O1         -0.6242   -1.2693   -7.4205 O.2        1 <1>        0.000
      8 C20         4.9020   -2.0330   -7.0996 C.2        1 <1>        0.000
      9 C21         6.1386   -1.9738   -6.5845 C.2        1 <1>        0.000
     10 N5          7.0150   -0.9474   -6.6495 N.am       1 <1>        0.000
     11 C28         6.8213    0.3111   -7.1130 C.2        1 <1>        0.000
     12 O4          7.6574    1.1977   -7.1417 O.2        1 <1>        0.000
     13 H           1.2517   -2.4890   -6.8248 H.spc      1 <1>        0.000
     14 H           0.8107   -2.1606   -3.8279 H.spc      1 <1>        0.000
     15 H          -1.2516   -1.3308   -4.3316 H.spc      1 <1>        0.000
     16 H          -2.2307   -0.8490   -6.3543 H.spc      1 <1>        0.000
     17 H           4.4820   -1.1781   -7.6296 H.spc      1 <1>        0.000
     18 H           6.4777   -2.8605   -6.0488 H.spc      1 <1>        0.000
     19 H           7.9526   -1.1477   -6.3013 H.spc      1 <1>        0.000
     20 H           5.8290    0.5522   -7.4943 H.spc      1 <1>        0.000
@<TRIPOS>BOND
     1    6    7 2  
     2   10   11 am 
     3    9   10 1  
     4    8    9 2  
     5    5    6 am 
     6    4    5 1  
     7    1    2 1  
     8    1    8 1  
     9    2    3 1  
    10    3    4 2  
    11   11   12 2  
    12    3   13 1  
    13    4   14 1  
    14    5   15 1  
    15    6   16 1  
    16    8   17 1  
    17    9   18 1  
    18   10   19 1  
    19   11   20 1  
# Name:          frag3-195-6/31924 -- energy: -2.389709
# Creation time: Sat Jun  5 12:52:16 2010


@<TRIPOS>MOLECULE
frag3-195-6/31924 -- energy: -2.389709
   20    19     1     1     1
SMALL
USER_CHARGES


@<TRIPOS>ATOM
      1 S1          4.9713   -4.3071   -5.9536 S.3        1 <1>        0.000
      2 S2          3.0732   -4.1597   -6.6504 S.3        1 <1>        0.000
      3 C1          2.4627   -2.8206   -5.6324 C.2        1 <1>        0.000
      4 C2          1.4597   -2.0611   -6.0939 C.2        1 <1>        0.000
      5 N1          0.8407   -1.0322   -5.4599 N.am       1 <1>        0.000
      6 C9         -0.2235   -0.3046   -5.8723 C.2        1 <1>        0.000
      7 O1         -0.8735   -0.5089   -6.8841 O.2        1 <1>        0.000
      8 C20         5.7559   -2.9829   -6.8653 C.2        1 <1>        0.000
      9 C21         5.4112   -1.7181   -6.5846 C.2        1 <1>        0.000
     10 N5          5.9091   -0.5856   -7.1398 N.am       1 <1>        0.000
     11 C28         5.5505    0.7014   -6.9143 C.2        1 <1>        0.000
     12 O4          4.6772    1.0694   -6.1461 O.2        1 <1>        0.000
     13 H           2.8995   -2.6259   -4.6529 H.spc      1 <1>        0.000
     14 H           1.0987   -2.2968   -7.0950 H.spc      1 <1>        0.000
     15 H           1.2290   -0.7734   -4.5529 H.spc      1 <1>        0.000
     16 H          -0.5254    0.5356   -5.2470 H.spc      1 <1>        0.000
     17 H           6.4987   -3.1999   -7.6330 H.spc      1 <1>        0.000
     18 H           4.6429   -1.5849   -5.8230 H.spc      1 <1>        0.000
     19 H           6.6563   -0.7212   -7.8208 H.spc      1 <1>        0.000
     20 H           6.0876    1.4730   -7.4658 H.spc      1 <1>        0.000
@<TRIPOS>BOND
     1    6    7 2  
     2   10   11 am 
     3    9   10 1  
     4    8    9 2  
     5    5    6 am 
     6    4    5 1  
     7    1    2 1  
     8    1    8 1  
     9    2    3 1  
    10    3    4 2  
    11   11   12 2  
    12    3   13 1  
    13    4   14 1  
    14    5   15 1  
    15    6   16 1  
    16    8   17 1  
    17    9   18 1  
    18   10   19 1  
    19   11   20 1  
# Name:          frag3-195-6/31924 -- energy: -1.579734
# Creation time: Sat Jun  5 12:52:16 2010


@<TRIPOS>MOLECULE
frag3-195-6/31924 -- energy: -1.579734
   20    19     1     1     1
SMALL
USER_CHARGES


@<TRIPOS>ATOM
      1 S1          3.9226   -2.8273   -5.2301 S.3        1 <1>        0.000
      2 S2          2.7454   -1.2319   -4.8141 S.3        1 <1>        0.000
      3 C1          1.1814   -1.8104   -5.4541 C.2        1 <1>        0.000
      4 C2          0.3258   -0.9255   -5.9839 C.2        1 <1>        0.000
      5 N1         -0.8823   -1.1746   -6.5494 N.am       1 <1>        0.000
      6 C9         -1.5604   -2.3450   -6.6043 C.2        1 <1>        0.000
      7 O1         -1.1448   -3.4253   -6.2182 O.2        1 <1>        0.000
      8 C20         4.8523   -2.1976   -6.6187 C.2        1 <1>        0.000
      9 C21         6.0074   -1.5592   -6.3842 C.2        1 <1>        0.000
     10 N5          6.8639   -1.0386   -7.2944 N.am       1 <1>        0.000
     11 C28         8.0190   -0.3606   -7.0910 C.2        1 <1>        0.000
     12 O4          8.6844    0.1858   -7.9544 O.2        1 <1>        0.000
     13 H           0.9262   -2.8694   -5.4142 H.spc      1 <1>        0.000
     14 H           0.6374    0.1187   -5.9574 H.spc      1 <1>        0.000
     15 H          -1.3388   -0.3762   -6.9905 H.spc      1 <1>        0.000
     16 H          -2.5636   -2.3202   -7.0299 H.spc      1 <1>        0.000
     17 H           4.4875   -2.3298   -7.6373 H.spc      1 <1>        0.000
     18 H           6.2904   -1.4459   -5.3377 H.spc      1 <1>        0.000
     19 H           6.6027   -1.1763   -8.2707 H.spc      1 <1>        0.000
     20 H           8.3854   -0.2981   -6.0663 H.spc      1 <1>        0.000
@<TRIPOS>BOND
     1    6    7 2  
     2   10   11 am 
     3    9   10 1  
     4    8    9 2  
     5    5    6 am 
     6    4    5 1  
     7    1    2 1  
     8    1    8 1  
     9    2    3 1  
    10    3    4 2  
    11   11   12 2  
    12    3   13 1  
    13    4   14 1  
    14    5   15 1  
    15    6   16 1  
    16    8   17 1  
    17    9   18 1  
    18   10   19 1  
    19   11   20 1  
# Name:          frag3-195-6/31924 -- energy: -1.681767
# Creation time: Sat Jun  5 12:52:16 2010


@<TRIPOS>MOLECULE
frag3-195-6/31924 -- energy: -1.681767
   20    19     1     1     1
SMALL
USER_CHARGES


@<TRIPOS>ATOM
      1 S1          4.4837   -3.3659   -6.7170 S.3        1 <1>        0.000
      2 S2          3.0726   -2.7669   -5.3949 S.3        1 <1>        0.000
      3 C1          1.7698   -2.2761   -6.5105 C.2        1 <1>        0.000
      4 C2          0.5304   -2.1023   -6.0348 C.2        1 <1>        0.000
      5 N1         -0.5739   -1.7012   -6.7122 N.am       1 <1>        0.000
      6 C9         -1.8219   -1.4789   -6.2386 C.2        1 <1>        0.000
      7 O1         -2.1677   -1.5804   -5.0726 O.2        1 <1>        0.000
      8 C20         5.4638   -1.8822   -6.8491 C.2        1 <1>        0.000
      9 C21         6.4721   -1.6938   -5.9855 C.2        1 <1>        0.000
     10 N5          7.3410   -0.6558   -5.9396 N.am       1 <1>        0.000
     11 C28         7.5201    0.3399   -6.8413 C.2        1 <1>        0.000
     12 O4          6.9246    0.4538   -7.9007 O.2        1 <1>        0.000
     13 H           1.9806   -2.1194   -7.5684 H.spc      1 <1>        0.000
     14 H           0.3920   -2.3084   -4.9734 H.spc      1 <1>        0.000
     15 H          -0.4468   -1.5464   -7.7123 H.spc      1 <1>        0.000
     16 H          -2.5836   -1.1839   -6.9604 H.spc      1 <1>        0.000
     17 H           5.2470   -1.1412   -7.6185 H.spc      1 <1>        0.000
     18 H           6.6088   -2.4681   -5.2306 H.spc      1 <1>        0.000
     19 H           7.9412   -0.6185   -5.1157 H.spc      1 <1>        0.000
     20 H           8.2589    1.1042   -6.6000 H.spc      1 <1>        0.000
@<TRIPOS>BOND
     1    6    7 2  
     2   10   11 am 
     3    9   10 1  
     4    8    9 2  
     5    5    6 am 
     6    4    5 1  
     7    1    2 1  
     8    1    8 1  
     9    2    3 1  
    10    3    4 2  
    11   11   12 2  
    12    3   13 1  
    13    4   14 1  
    14    5   15 1  
    15    6   16 1  
    16    8   17 1  
    17    9   18 1  
    18   10   19 1  
    19   11   20 1  
# Name:          frag3-195-6/31924 -- energy: -2.446342
# Creation time: Sat Jun  5 12:52:16 2010


@<TRIPOS>MOLECULE
frag3-195-6/31924 -- energy: -2.446342
   20    19     1     1     1
SMALL
USER_CHARGES


@<TRIPOS>ATOM
      1 S1          4.5075   -4.1891   -7.3073 S.3        1 <1>        0.000
      2 S2          3.1120   -4.4149   -5.8572 S.3        1 <1>        0.000
      3 C1          2.0414   -3.0324   -6.2214 C.2        1 <1>        0.000
      4 C2          1.3153   -2.4898   -5.2348 C.2        1 <1>        0.000
      5 N1          0.4831   -1.4229   -5.3072 N.am       1 <1>        0.000
      6 C9          0.2113   -0.6340   -6.3733 C.2        1 <1>        0.000
      7 O1         -0.5302    0.3334   -6.3733 O.2        1 <1>        0.000
      8 C20         5.2512   -2.6442   -6.8091 C.2        1 <1>        0.000
      9 C21         4.8802   -1.5160   -7.4309 C.2        1 <1>        0.000
     10 N5          5.3015   -0.2556   -7.1757 N.am       1 <1>        0.000
     11 C28         6.0448    0.2004   -6.1384 C.2        1 <1>        0.000
     12 O4          6.3964    1.3552   -5.9682 O.2        1 <1>        0.000
     13 H           1.9795   -2.6348   -7.2344 H.spc      1 <1>        0.000
     14 H           1.4047   -2.9632   -4.2570 H.spc      1 <1>        0.000
     15 H          -0.0033   -1.1821   -4.4436 H.spc      1 <1>        0.000
     16 H           0.6987   -0.8863   -7.3150 H.spc      1 <1>        0.000
     17 H           5.9947   -2.6188   -6.0124 H.spc      1 <1>        0.000
     18 H           4.1542   -1.6269   -8.2363 H.spc      1 <1>        0.000
     19 H           5.0208    0.4484   -7.8584 H.spc      1 <1>        0.000
     20 H           6.3555   -0.5293   -5.3907 H.spc      1 <1>        0.000
@<TRIPOS>BOND
     1    6    7 2  
     2   10   11 am 
     3    9   10 1  
     4    8    9 2  
     5    5    6 am 
     6    4    5 1  
     7    1    2 1  
     8    1    8 1  
     9    2    3 1  
    10    3    4 2  
    11   11   12 2  
    12    3   13 1  
    13    4   14 1  
    14    5   15 1  
    15    6   16 1  
    16    8   17 1  
    17    9   18 1  
    18   10   19 1  
    19   11   20 1  
# Name:          frag3-195-6/31924 -- energy: -2.319875
# Creation time: Sat Jun  5 12:52:16 2010


@<TRIPOS>MOLECULE
frag3-195-6/31924 -- energy: -2.319875
   20    19     1     1     1
SMALL
USER_CHARGES


@<TRIPOS>ATOM
      1 S1          4.0800   -3.6386   -7.6366 S.3        1 <1>        0.000
      2 S2          2.8095   -4.5171   -6.3256 S.3        1 <1>        0.000
      3 C1          1.4937   -3.3113   -6.2974 C.2        1 <1>        0.000
      4 C2          1.6952   -2.1402   -5.6744 C.2        1 <1>        0.000
      5 N1          0.8409   -1.0930   -5.5808 N.am       1 <1>        0.000
      6 C9         -0.3960   -0.9610   -6.1153 C.2        1 <1>        0.000
      7 O1         -1.1417   -0.0093   -5.9601 O.2        1 <1>        0.000
      8 C20         5.1768   -2.7857   -6.5166 C.2        1 <1>        0.000
      9 C21         5.4523   -1.4936   -6.7353 C.2        1 <1>        0.000
     10 N5          6.2287   -0.6735   -5.9870 N.am       1 <1>        0.000
     11 C28         6.5262    0.6331   -6.1855 C.2        1 <1>        0.000
     12 O4          6.2488    1.2803   -7.1822 O.2        1 <1>        0.000
     13 H           0.5395   -3.5235   -6.7797 H.spc      1 <1>        0.000
     14 H           2.6614   -2.0167   -5.1853 H.spc      1 <1>        0.000
     15 H           1.1738   -0.2982   -5.0350 H.spc      1 <1>        0.000
     16 H          -0.7570   -1.7782   -6.7398 H.spc      1 <1>        0.000
     17 H           5.6160   -3.3087   -5.6671 H.spc      1 <1>        0.000
     18 H           4.9979   -1.0489   -7.6206 H.spc      1 <1>        0.000
     19 H           6.6472   -1.0987   -5.1596 H.spc      1 <1>        0.000
     20 H           7.0585    1.1503   -5.3872 H.spc      1 <1>        0.000
@<TRIPOS>BOND
     1    6    7 2  
     2   10   11 am 
     3    9   10 1  
     4    8    9 2  
     5    5    6 am 
     6    4    5 1  
     7    1    2 1  
     8    1    8 1  
     9    2    3 1  
    10    3    4 2  
    11   11   12 2  
    12    3   13 1  
    13    4   14 1  
    14    5   15 1  
    15    6   16 1  
    16    8   17 1  
    17    9   18 1  
    18   10   19 1  
    19   11   20 1  
# Name:          frag3-195-6/31924 -- energy: -1.697034
# Creation time: Sat Jun  5 12:52:16 2010


@<TRIPOS>MOLECULE
frag3-195-6/31924 -- energy: -1.697034
   20    19     1     1     1
SMALL
USER_CHARGES


@<TRIPOS>ATOM
      1 S1          4.0985   -3.2246   -5.5256 S.3        1 <1>        0.000
      2 S2          3.0029   -2.8848   -7.1949 S.3        1 <1>        0.000
      3 C1          1.4660   -2.3416   -6.4679 C.2        1 <1>        0.000
      4 C2          0.4075   -2.1256   -7.2600 C.2        1 <1>        0.000
      5 N1         -0.8438   -1.7517   -6.8933 N.am       1 <1>        0.000
      6 C9         -1.3271   -1.5412   -5.6463 C.2        1 <1>        0.000
      7 O1         -0.6861   -1.6295   -4.6116 O.2        1 <1>        0.000
      8 C20         4.8825   -1.6349   -5.3186 C.2        1 <1>        0.000
      9 C21         5.8533   -1.2782   -6.1719 C.2        1 <1>        0.000
     10 N5          6.5422   -0.1121   -6.2023 N.am       1 <1>        0.000
     11 C28         7.5572    0.2565   -7.0201 C.2        1 <1>        0.000
     12 O4          8.0614   -0.4422   -7.8843 O.2        1 <1>        0.000
     13 H           1.3896   -2.1874   -5.3916 H.spc      1 <1>        0.000
     14 H           0.5715   -2.2674   -8.3282 H.spc      1 <1>        0.000
     15 H          -1.5064   -1.6109   -7.6559 H.spc      1 <1>        0.000
     16 H          -2.3791   -1.2695   -5.5590 H.spc      1 <1>        0.000
     17 H           4.5778   -0.9663   -4.5134 H.spc      1 <1>        0.000
     18 H           6.1198   -2.0136   -6.9311 H.spc      1 <1>        0.000
     19 H           6.2571    0.5848   -5.5142 H.spc      1 <1>        0.000
     20 H           7.9576    1.2626   -6.8957 H.spc      1 <1>        0.000
@<TRIPOS>BOND
     1    6    7 2  
     2   10   11 am 
     3    9   10 1  
     4    8    9 2  
     5    5    6 am 
     6    4    5 1  
     7    1    2 1  
     8    1    8 1  
     9    2    3 1  
    10    3    4 2  
    11   11   12 2  
    12    3   13 1  
    13    4   14 1  
    14    5   15 1  
    15    6   16 1  
    16    8   17 1  
    17    9   18 1  
    18   10   19 1  
    19   11   20 1  
# Name:          frag3-195-6/31924 -- energy: -1.727251
# Creation time: Sat Jun  5 12:52:16 2010


@<TRIPOS>MOLECULE
frag3-195-6/31924 -- energy: -1.727251
   20    19     1     1     1
SMALL
USER_CHARGES


@<TRIPOS>ATOM
      1 S1          4.1934   -2.6231   -5.3677 S.3        1 <1>        0.000
      2 S2          2.7927   -2.4383   -6.8204 S.3        1 <1>        0.000
      3 C1          1.4930   -1.6159   -5.9092 C.2        1 <1>        0.000
      4 C2          0.2222   -1.9913   -6.1098 C.2        1 <1>        0.000
      5 N1         -0.8897   -1.5189   -5.4909 N.am       1 <1>        0.000
      6 C9         -2.1824   -1.8604   -5.7008 C.2        1 <1>        0.000
      7 O1         -2.5742   -2.7057   -6.4884 O.2        1 <1>        0.000
      8 C20         5.4281   -1.4722   -5.9544 C.2        1 <1>        0.000
      9 C21         6.5700   -1.9572   -6.4619 C.2        1 <1>        0.000
     10 N5          7.6042   -1.2543   -6.9829 N.am       1 <1>        0.000
     11 C28         7.6947    0.0769   -7.2201 C.2        1 <1>        0.000
     12 O4          8.6624    0.6505   -7.6903 O.2        1 <1>        0.000
     13 H           1.7304   -0.8216   -5.2015 H.spc      1 <1>        0.000
     14 H           0.0627   -2.7675   -6.8582 H.spc      1 <1>        0.000
     15 H          -0.7298   -0.8129   -4.7723 H.spc      1 <1>        0.000
     16 H          -2.9379   -1.3354   -5.1163 H.spc      1 <1>        0.000
     17 H           5.2561   -0.3972   -5.9007 H.spc      1 <1>        0.000
     18 H           6.6789   -3.0417   -6.4545 H.spc      1 <1>        0.000
     19 H           8.4280   -1.8023   -7.2307 H.spc      1 <1>        0.000
     20 H           6.8275    0.6875   -6.9688 H.spc      1 <1>        0.000
@<TRIPOS>BOND
     1    6    7 2  
     2   10   11 am 
     3    9   10 1  
     4    8    9 2  
     5    5    6 am 
     6    4    5 1  
     7    1    2 1  
     8    1    8 1  
     9    2    3 1  
    10    3    4 2  
    11   11   12 2  
    12    3   13 1  
    13    4   14 1  
    14    5   15 1  
    15    6   16 1  
    16    8   17 1  
    17    9   18 1  
    18   10   19 1  
    19   11   20 1  
# Name:          frag3-195-6/31924 -- energy: -1.599962
# Creation time: Sat Jun  5 12:52:16 2010


@<TRIPOS>MOLECULE
frag3-195-6/31924 -- energy: -1.599962
   20    19     1     1     1
SMALL
USER_CHARGES


@<TRIPOS>ATOM
      1 S1          4.1003   -2.6461   -5.9970 S.3        1 <1>        0.000
      2 S2          2.9283   -2.5129   -7.6444 S.3        1 <1>        0.000
      3 C1          1.5503   -1.5876   -6.9827 C.2        1 <1>        0.000
      4 C2          0.5070   -2.2562   -6.4701 C.2        1 <1>        0.000
      5 N1         -0.6053   -1.7404   -5.8908 N.am       1 <1>        0.000
      6 C9         -1.7264   -2.3826   -5.4877 C.2        1 <1>        0.000
      7 O1         -2.7218   -1.8535   -5.0233 O.2        1 <1>        0.000
      8 C20         5.4537   -1.5796   -6.4673 C.2        1 <1>        0.000
      9 C21         6.4213   -1.3315   -5.5749 C.2        1 <1>        0.000
     10 N5          7.5359   -0.5806   -5.7520 N.am       1 <1>        0.000
     11 C28         8.0315   -0.0554   -6.8987 C.2        1 <1>        0.000
     12 O4          7.5398   -0.1835   -8.0080 O.2        1 <1>        0.000
     13 H           1.5576   -0.4977   -6.9955 H.spc      1 <1>        0.000
     14 H           0.5593   -3.3435   -6.5257 H.spc      1 <1>        0.000
     15 H          -0.5958   -0.7319   -5.7382 H.spc      1 <1>        0.000
     16 H          -1.7406   -3.4680   -5.5869 H.spc      1 <1>        0.000
     17 H           5.4916   -1.1383   -7.4633 H.spc      1 <1>        0.000
     18 H           6.2981   -1.7863   -4.5920 H.spc      1 <1>        0.000
     19 H           8.0743   -0.3844   -4.9082 H.spc      1 <1>        0.000
     20 H           8.9471    0.5313   -6.8237 H.spc      1 <1>        0.000
@<TRIPOS>BOND
     1    6    7 2  
     2   10   11 am 
     3    9   10 1  
     4    8    9 2  
     5    5    6 am 
     6    4    5 1  
     7    1    2 1  
     8    1    8 1  
     9    2    3 1  
    10    3    4 2  
    11   11   12 2  
    12    3   13 1  
    13    4   14 1  
    14    5   15 1  
    15    6   16 1  
    16    8   17 1  
    17    9   18 1  
    18   10   19 1  
    19   11   20 1  
# Name:          frag3-195-6/31924 -- energy: -1.780989
# Creation time: Sat Jun  5 12:52:16 2010


@<TRIPOS>MOLECULE
frag3-195-6/31924 -- energy: -1.780989
   20    19     1     1     1
SMALL
USER_CHARGES


@<TRIPOS>ATOM
      1 S1          3.8767   -3.6547   -6.8694 S.3        1 <1>        0.000
      2 S2          2.6989   -3.8946   -5.2385 S.3        1 <1>        0.000
      3 C1          1.4959   -2.6055   -5.5199 C.2        1 <1>        0.000
      4 C2          0.6346   -2.7327   -6.5410 C.2        1 <1>        0.000
      5 N1         -0.3659   -1.8873   -6.8937 N.am       1 <1>        0.000
      6 C9         -0.7150   -0.7115   -6.3207 C.2        1 <1>        0.000
      7 O1         -0.3237   -0.3047   -5.2388 O.2        1 <1>        0.000
      8 C20         5.1626   -2.6145   -6.1980 C.2        1 <1>        0.000
      9 C21         5.5171   -1.5087   -6.8652 C.2        1 <1>        0.000
     10 N5          6.4394   -0.5851   -6.5070 N.am       1 <1>        0.000
     11 C28         6.8554    0.5142   -7.1805 C.2        1 <1>        0.000
     12 O4          7.7387    1.2754   -6.8240 O.2        1 <1>        0.000
     13 H           1.4617   -1.7292   -4.8726 H.spc      1 <1>        0.000
     14 H           0.7530   -3.6213   -7.1610 H.spc      1 <1>        0.000
     15 H          -0.9282   -2.1749   -7.6946 H.spc      1 <1>        0.000
     16 H          -1.4048   -0.0734   -6.8731 H.spc      1 <1>        0.000
     17 H           5.6517   -2.8753   -5.2595 H.spc      1 <1>        0.000
     18 H           5.0015   -1.3314   -7.8090 H.spc      1 <1>        0.000
     19 H           6.8841   -0.7385   -5.6020 H.spc      1 <1>        0.000
     20 H           6.3569    0.7378   -8.1237 H.spc      1 <1>        0.000
@<TRIPOS>BOND
     1    6    7 2  
     2   10   11 am 
     3    9   10 1  
     4    8    9 2  
     5    5    6 am 
     6    4    5 1  
     7    1    2 1  
     8    1    8 1  
     9    2    3 1  
    10    3    4 2  
    11   11   12 2  
    12    3   13 1  
    13    4   14 1  
    14    5   15 1  
    15    6   16 1  
    16    8   17 1  
    17    9   18 1  
    18   10   19 1  
    19   11   20 1  
# Name:          frag3-195-6/31924 -- energy: -1.577964
# Creation time: Sat Jun  5 12:52:16 2010


@<TRIPOS>MOLECULE
frag3-195-6/31924 -- energy: -1.577964
   20    19     1     1     1
SMALL
USER_CHARGES


@<TRIPOS>ATOM
      1 S1          4.3018   -2.3485   -5.7792 S.3        1 <1>        0.000
      2 S2          2.7386   -1.9898   -7.0203 S.3        1 <1>        0.000
      3 C1          1.3741   -2.1940   -5.8785 C.2        1 <1>        0.000
      4 C2          0.1221   -2.1552   -6.3562 C.2        1 <1>        0.000
      5 N1         -1.0325   -2.3260   -5.6620 N.am       1 <1>        0.000
      6 C9         -2.3071   -2.2562   -6.1127 C.2        1 <1>        0.000
      7 O1         -3.3093   -2.3396   -5.4232 O.2        1 <1>        0.000
      8 C20         5.2749   -0.8697   -6.0458 C.2        1 <1>        0.000
      9 C21         6.5722   -1.0045   -6.3542 C.2        1 <1>        0.000
     10 N5          7.4610   -0.0152   -6.6218 N.am       1 <1>        0.000
     11 C28         8.6554   -0.0942   -7.2572 C.2        1 <1>        0.000
     12 O4          9.1633   -1.1169   -7.6856 O.2        1 <1>        0.000
     13 H           1.5581   -2.3470   -4.8151 H.spc      1 <1>        0.000
     14 H           0.0190   -1.9647   -7.4245 H.spc      1 <1>        0.000
     15 H          -0.9251   -2.5345   -4.6693 H.spc      1 <1>        0.000
     16 H          -2.4497   -2.1132   -7.1838 H.spc      1 <1>        0.000
     17 H           4.8225    0.1182   -5.9592 H.spc      1 <1>        0.000
     18 H           6.9564   -2.0238   -6.3945 H.spc      1 <1>        0.000
     19 H           7.1938    0.9154   -6.3009 H.spc      1 <1>        0.000
     20 H           9.2087    0.8344   -7.3972 H.spc      1 <1>        0.000
@<TRIPOS>BOND
     1    6    7 2  
     2   10   11 am 
     3    9   10 1  
     4    8    9 2  
     5    5    6 am 
     6    4    5 1  
     7    1    2 1  
     8    1    8 1  
     9    2    3 1  
    10    3    4 2  
    11   11   12 2  
    12    3   13 1  
    13    4   14 1  
    14    5   15 1  
    15    6   16 1  
    16    8   17 1  
    17    9   18 1  
    18   10   19 1  
    19   11   20 1  
# Name:          frag3-195-6/31924 -- energy: -2.229621
# Creation time: Sat Jun  5 12:52:16 2010


@<TRIPOS>MOLECULE
frag3-195-6/31924 -- energy: -2.229621
   20    19     1     1     1
SMALL
USER_CHARGES


@<TRIPOS>ATOM
      1 S1          2.8633   -4.1523   -6.4141 S.3        1 <1>        0.000
      2 S2          4.8472   -4.1514   -5.9902 S.3        1 <1>        0.000
      3 C1          5.4139   -2.8992   -7.1405 C.2        1 <1>        0.000
      4 C2          5.5878   -1.6469   -6.6935 C.2        1 <1>        0.000
      5 N1          6.0426   -0.5762   -7.3957 N.am       1 <1>        0.000
      6 C9          6.2431    0.6913   -6.9647 C.2        1 <1>        0.000
      7 O1          6.0673    1.0889   -5.8253 O.2        1 <1>        0.000
      8 C20         2.4222   -2.4930   -5.9019 C.2        1 <1>        0.000
      9 C21         1.1498   -2.0974   -6.0460 C.2        1 <1>        0.000
     10 N5          0.6167   -0.9007   -5.6923 N.am       1 <1>        0.000
     11 C28        -0.6604   -0.4670   -5.8237 C.2        1 <1>        0.000
     12 O4         -1.5789   -1.1059   -6.3091 O.2        1 <1>        0.000
     13 H           5.6132   -3.1505   -8.1823 H.spc      1 <1>        0.000
     14 H           5.3357   -1.4676   -5.6483 H.spc      1 <1>        0.000
     15 H           6.2617   -0.7504   -8.3765 H.spc      1 <1>        0.000
     16 H           6.5913    1.4183   -7.6984 H.spc      1 <1>        0.000
     17 H           3.1712   -1.8210   -5.4829 H.spc      1 <1>        0.000
     18 H           0.4671   -2.8171   -6.4976 H.spc      1 <1>        0.000
     19 H           1.2659   -0.2370   -5.2699 H.spc      1 <1>        0.000
     20 H          -0.8857    0.5375   -5.4654 H.spc      1 <1>        0.000
@<TRIPOS>BOND
     1    6    7 2  
     2   10   11 am 
     3    9   10 1  
     4    8    9 2  
     5    5    6 am 
     6    4    5 1  
     7    1    2 1  
     8    1    8 1  
     9    2    3 1  
    10    3    4 2  
    11   11   12 2  
    12    3   13 1  
    13    4   14 1  
    14    5   15 1  
    15    6   16 1  
    16    8   17 1  
    17    9   18 1  
    18   10   19 1  
    19   11   20 1  
# Name:          frag3-195-6/31924 -- energy: -2.190555
# Creation time: Sat Jun  5 12:52:16 2010


@<TRIPOS>MOLECULE
frag3-195-6/31924 -- energy: -2.190555
   20    19     1     1     1
SMALL
USER_CHARGES


@<TRIPOS>ATOM
      1 S1          2.9954   -3.8340   -7.6484 S.3        1 <1>        0.000
      2 S2          4.3791   -3.7592   -6.1749 S.3        1 <1>        0.000
      3 C1          5.1487   -2.1920   -6.5203 C.2        1 <1>        0.000
      4 C2          5.8237   -1.5575   -5.5537 C.2        1 <1>        0.000
      5 N1          6.5014   -0.3872   -5.6360 N.am       1 <1>        0.000
      6 C9          6.5590    0.4789   -6.6749 C.2        1 <1>        0.000
      7 O1          5.8449    0.4508   -7.6649 O.2        1 <1>        0.000
      8 C20         1.6019   -3.0844   -6.8346 C.2        1 <1>        0.000
      9 C21         1.5785   -1.7534   -6.6686 C.2        1 <1>        0.000
     10 N5          0.6061   -1.0052   -6.1043 N.am       1 <1>        0.000
     11 C28        -0.5863   -1.3994   -5.5952 C.2        1 <1>        0.000
     12 O4         -1.4377   -0.6672   -5.1212 O.2        1 <1>        0.000
     13 H           5.0709   -1.7509   -7.5140 H.spc      1 <1>        0.000
     14 H           5.8286   -2.0435   -4.5780 H.spc      1 <1>        0.000
     15 H           7.0372   -0.1249   -4.8087 H.spc      1 <1>        0.000
     16 H           7.3075    1.2696   -6.6231 H.spc      1 <1>        0.000
     17 H           0.7769   -3.6995   -6.4752 H.spc      1 <1>        0.000
     18 H           2.4501   -1.2099   -7.0334 H.spc      1 <1>        0.000
     19 H           0.7955   -0.0042   -6.0543 H.spc      1 <1>        0.000
     20 H          -0.8036   -2.4674   -5.6110 H.spc      1 <1>        0.000
@<TRIPOS>BOND
     1    6    7 2  
     2   10   11 am 
     3    9   10 1  
     4    8    9 2  
     5    5    6 am 
     6    4    5 1  
     7    1    2 1  
     8    1    8 1  
     9    2    3 1  
    10    3    4 2  
    11   11   12 2  
    12    3   13 1  
    13    4   14 1  
    14    5   15 1  
    15    6   16 1  
    16    8   17 1  
    17    9   18 1  
    18   10   19 1  
    19   11   20 1  
# Name:          frag3-195-6/31924 -- energy: -1.635164
# Creation time: Sat Jun  5 12:52:16 2010


@<TRIPOS>MOLECULE
frag3-195-6/31924 -- energy: -1.635164
   20    19     1     1     1
SMALL
USER_CHARGES


@<TRIPOS>ATOM
      1 S1          2.7428   -1.2852   -6.7922 S.3        1 <1>        0.000
      2 S2          4.0385   -1.6131   -5.2681 S.3        1 <1>        0.000
      3 C1          5.5426   -0.9595   -5.9813 C.2        1 <1>        0.000
      4 C2          6.5266   -1.8099   -6.3078 C.2        1 <1>        0.000
      5 N1          7.7160   -1.5137   -6.8901 N.am       1 <1>        0.000
      6 C9          8.1783   -0.3091   -7.3000 C.2        1 <1>        0.000
      7 O1          9.2366   -0.1111   -7.8717 O.2        1 <1>        0.000
      8 C20         1.1945   -1.2257   -5.9000 C.2        1 <1>        0.000
      9 C21         0.1827   -1.9990   -6.3168 C.2        1 <1>        0.000
     10 N5         -1.0473   -2.1181   -5.7603 N.am       1 <1>        0.000
     11 C28        -2.1066   -2.8502   -6.1818 C.2        1 <1>        0.000
     12 O4         -3.1903   -2.9152   -5.6268 O.2        1 <1>        0.000
     13 H           5.6575    0.1116   -6.1477 H.spc      1 <1>        0.000
     14 H           6.3507   -2.8610   -6.0789 H.spc      1 <1>        0.000
     15 H           8.3448   -2.3030   -7.0386 H.spc      1 <1>        0.000
     16 H           7.5497    0.5590   -7.1016 H.spc      1 <1>        0.000
     17 H           1.0761   -0.5736   -5.0346 H.spc      1 <1>        0.000
     18 H           0.3705   -2.6015   -7.2055 H.spc      1 <1>        0.000
     19 H          -1.1962   -1.5821   -4.9054 H.spc      1 <1>        0.000
     20 H          -1.9791   -3.4309   -7.0954 H.spc      1 <1>        0.000
@<TRIPOS>BOND
     1    6    7 2  
     2   10   11 am 
     3    9   10 1  
     4    8    9 2  
     5    5    6 am 
     6    4    5 1  
     7    1    2 1  
     8    1    8 1  
     9    2    3 1  
    10    3    4 2  
    11   11   12 2  
    12    3   13 1  
    13    4   14 1  
    14    5   15 1  
    15    6   16 1  
    16    8   17 1  
    17    9   18 1  
    18   10   19 1  
    19   11   20 1  
# Name:          frag3-195-6/31924 -- energy: -1.742529
# Creation time: Sat Jun  5 12:52:16 2010


@<TRIPOS>MOLECULE
frag3-195-6/31924 -- energy: -1.742529
   20    19     1     1     1
SMALL
USER_CHARGES


@<TRIPOS>ATOM
      1 S1          3.0471   -3.1754   -7.0970 S.3        1 <1>        0.000
      2 S2          4.0199   -3.5021   -5.3495 S.3        1 <1>        0.000
      3 C1          4.9626   -1.9910   -5.2236 C.2        1 <1>        0.000
      4 C2          5.6938   -1.5923   -6.2759 C.2        1 <1>        0.000
      5 N1          6.4398   -0.4674   -6.3915 N.am       1 <1>        0.000
      6 C9          7.1708   -0.0379   -7.4462 C.2        1 <1>        0.000
      7 O1          7.8705    0.9602   -7.4695 O.2        1 <1>        0.000
      8 C20         1.6001   -2.3100   -6.5128 C.2        1 <1>        0.000
      9 C21         0.3980   -2.6655   -6.9853 C.2        1 <1>        0.000
     10 N5         -0.8101   -2.1564   -6.6431 N.am       1 <1>        0.000
     11 C28        -1.0982   -1.1985   -5.7289 C.2        1 <1>        0.000
     12 O4         -0.2797   -0.5736   -5.0737 O.2        1 <1>        0.000
     13 H           4.9445   -1.4018   -4.3068 H.spc      1 <1>        0.000
     14 H           5.6866   -2.2535   -7.1424 H.spc      1 <1>        0.000
     15 H           6.4522    0.1388   -5.5713 H.spc      1 <1>        0.000
     16 H           7.1305   -0.6375   -8.3556 H.spc      1 <1>        0.000
     17 H           1.6928   -1.5053   -5.7834 H.spc      1 <1>        0.000
     18 H           0.3910   -3.4581   -7.7336 H.spc      1 <1>        0.000
     19 H          -1.6105   -2.5467   -7.1406 H.spc      1 <1>        0.000
     20 H          -2.1504   -0.9663   -5.5647 H.spc      1 <1>        0.000
@<TRIPOS>BOND
     1    6    7 2  
     2   10   11 am 
     3    9   10 1  
     4    8    9 2  
     5    5    6 am 
     6    4    5 1  
     7    1    2 1  
     8    1    8 1  
     9    2    3 1  
    10    3    4 2  
    11   11   12 2  
    12    3   13 1  
    13    4   14 1  
    14    5   15 1  
    15    6   16 1  
    16    8   17 1  
    17    9   18 1  
    18   10   19 1  
    19   11   20 1  
# Name:          frag3-195-6/31924 -- energy: -1.683550
# Creation time: Sat Jun  5 12:52:16 2010


@<TRIPOS>MOLECULE
frag3-195-6/31924 -- energy: -1.683550
   20    19     1     1     1
SMALL
USER_CHARGES


@<TRIPOS>ATOM
      1 S1          2.8961   -3.4488   -5.0831 S.3        1 <1>        0.000
      2 S2          3.9163   -3.5180   -6.8274 S.3        1 <1>        0.000
      3 C1          5.1240   -2.2381   -6.5566 C.2        1 <1>        0.000
      4 C2          5.6452   -1.5885   -7.6052 C.2        1 <1>        0.000
      5 N1          6.5378   -0.5719   -7.5954 N.am       1 <1>        0.000
      6 C9          7.0938    0.0558   -6.5325 C.2        1 <1>        0.000
      7 O1          7.8911    0.9762   -6.5828 O.2        1 <1>        0.000
      8 C20         1.3527   -2.7447   -5.6211 C.2        1 <1>        0.000
      9 C21         0.8366   -1.7061   -4.9517 C.2        1 <1>        0.000
     10 N5         -0.2988   -1.0214   -5.2245 N.am       1 <1>        0.000
     11 C28        -1.0876   -1.0936   -6.3241 C.2        1 <1>        0.000
     12 O4         -0.8926   -1.8109   -7.2925 O.2        1 <1>        0.000
     13 H           5.4371   -1.9849   -5.5437 H.spc      1 <1>        0.000
     14 H           5.3088   -1.9196   -8.5877 H.spc      1 <1>        0.000
     15 H           6.8312   -0.2329   -8.5116 H.spc      1 <1>        0.000
     16 H           6.8020   -0.2936   -5.5421 H.spc      1 <1>        0.000
     17 H           0.8327   -3.1548   -6.4869 H.spc      1 <1>        0.000
     18 H           1.3996   -1.3710   -4.0806 H.spc      1 <1>        0.000
     19 H          -0.6011   -0.3631   -4.5064 H.spc      1 <1>        0.000
     20 H          -1.9719   -0.4567   -6.3457 H.spc      1 <1>        0.000
@<TRIPOS>BOND
     1    6    7 2  
     2   10   11 am 
     3    9   10 1  
     4    8    9 2  
     5    5    6 am 
     6    4    5 1  
     7    1    2 1  
     8    1    8 1  
     9    2    3 1  
    10    3    4 2  
    11   11   12 2  
    12    3   13 1  
    13    4   14 1  
    14    5   15 1  
    15    6   16 1  
    16    8   17 1  
    17    9   18 1  
    18   10   19 1  
    19   11   20 1  
# Name:          frag3-195-6/31924 -- energy: -2.577077
# Creation time: Sat Jun  5 12:52:16 2010


@<TRIPOS>MOLECULE
frag3-195-6/31924 -- energy: -2.577077
   20    19     1     1     1
SMALL
USER_CHARGES


@<TRIPOS>ATOM
      1 S1          3.1050   -4.4265   -7.5272 S.3        1 <1>        0.000
      2 S2          4.8713   -4.0873   -6.5931 S.3        1 <1>        0.000
      3 C1          4.9388   -2.3017   -6.6766 C.2        1 <1>        0.000
      4 C2          5.6447   -1.6347   -5.7530 C.2        1 <1>        0.000
      5 N1          5.8443   -0.2944   -5.6711 N.am       1 <1>        0.000
      6 C9          5.2688    0.6887   -6.4025 C.2        1 <1>        0.000
      7 O1          4.3886    0.5330   -7.2328 O.2        1 <1>        0.000
      8 C20         1.9807   -3.6031   -6.4063 C.2        1 <1>        0.000
      9 C21         1.7200   -2.3020   -6.5970 C.2        1 <1>        0.000
     10 N5          0.8819   -1.5149   -5.8803 N.am       1 <1>        0.000
     11 C28         0.6129   -0.1956   -6.0310 C.2        1 <1>        0.000
     12 O4         -0.2426    0.4284   -5.4261 O.2        1 <1>        0.000
     13 H           4.4139   -1.7644   -7.4665 H.spc      1 <1>        0.000
     14 H           6.1135   -2.2393   -4.9766 H.spc      1 <1>        0.000
     15 H           6.5154    0.0118   -4.9666 H.spc      1 <1>        0.000
     16 H           5.6220    1.7062   -6.2353 H.spc      1 <1>        0.000
     17 H           1.5167   -4.1483   -5.5844 H.spc      1 <1>        0.000
     18 H           2.2427   -1.8219   -7.4243 H.spc      1 <1>        0.000
     19 H           0.3840   -1.9805   -5.1215 H.spc      1 <1>        0.000
     20 H           1.2128    0.3555   -6.7553 H.spc      1 <1>        0.000
@<TRIPOS>BOND
     1    6    7 2  
     2   10   11 am 
     3    9   10 1  
     4    8    9 2  
     5    5    6 am 
     6    4    5 1  
     7    1    2 1  
     8    1    8 1  
     9    2    3 1  
    10    3    4 2  
    11   11   12 2  
    12    3   13 1  
    13    4   14 1  
    14    5   15 1  
    15    6   16 1  
    16    8   17 1  
    17    9   18 1  
    18   10   19 1  
    19   11   20 1  
# Name:          frag3-195-6/31924 -- energy: -1.904675
# Creation time: Sat Jun  5 12:52:16 2010


@<TRIPOS>MOLECULE
frag3-195-6/31924 -- energy: -1.904675
   20    19     1     1     1
SMALL
USER_CHARGES


@<TRIPOS>ATOM
      1 S1          4.5246   -3.9534   -6.7421 S.3        1 <1>        0.000
      2 S2          3.1670   -3.4283   -5.3337 S.3        1 <1>        0.000
      3 C1          1.7303   -3.1540   -6.3537 C.2        1 <1>        0.000
      4 C2          0.8438   -2.2144   -6.0016 C.2        1 <1>        0.000
      5 N1         -0.2793   -1.8379   -6.6614 N.am       1 <1>        0.000
      6 C9         -1.2382   -0.9669   -6.2701 C.2        1 <1>        0.000
      7 O1         -1.2117   -0.2903   -5.2548 O.2        1 <1>        0.000
      8 C20         5.2789   -2.3735   -7.0780 C.2        1 <1>        0.000
      9 C21         5.7575   -1.6541   -6.0510 C.2        1 <1>        0.000
     10 N5          6.3848   -0.4575   -6.1012 N.am       1 <1>        0.000
     11 C28         6.7473    0.2696   -7.1858 C.2        1 <1>        0.000
     12 O4          7.3096    1.3509   -7.1634 O.2        1 <1>        0.000
     13 H           1.5752   -3.7459   -7.2557 H.spc      1 <1>        0.000
     14 H           1.0503   -1.6874   -5.0701 H.spc      1 <1>        0.000
     15 H          -0.4203   -2.2689   -7.5750 H.spc      1 <1>        0.000
     16 H          -2.1089   -0.8605   -6.9172 H.spc      1 <1>        0.000
     17 H           5.3501   -1.9985   -8.0990 H.spc      1 <1>        0.000
     18 H           5.6247   -2.0857   -5.0589 H.spc      1 <1>        0.000
     19 H           6.6174   -0.0450   -5.1978 H.spc      1 <1>        0.000
     20 H           6.5155   -0.1496   -8.1649 H.spc      1 <1>        0.000
@<TRIPOS>BOND
     1    6    7 2  
     2   10   11 am 
     3    9   10 1  
     4    8    9 2  
     5    5    6 am 
     6    4    5 1  
     7    1    2 1  
     8    1    8 1  
     9    2    3 1  
    10    3    4 2  
    11   11   12 2  
    12    3   13 1  
    13    4   14 1  
    14    5   15 1  
    15    6   16 1  
    16    8   17 1  
    17    9   18 1  
    18   10   19 1  
    19   11   20 1  
# Name:          frag3-195-6/31924 -- energy: -1.669675
# Creation time: Sat Jun  5 12:52:16 2010


@<TRIPOS>MOLECULE
frag3-195-6/31924 -- energy: -1.669675
   20    19     1     1     1
SMALL
USER_CHARGES


@<TRIPOS>ATOM
      1 S1          4.3908   -3.1169   -5.7081 S.3        1 <1>        0.000
      2 S2          2.7772   -2.8378   -6.9007 S.3        1 <1>        0.000
      3 C1          1.5070   -2.5843   -5.6691 C.2        1 <1>        0.000
      4 C2          0.2695   -2.2615   -6.0681 C.2        1 <1>        0.000
      5 N1         -0.8282   -2.0682   -5.2934 N.am       1 <1>        0.000
      6 C9         -2.0521   -1.6210   -5.6595 C.2        1 <1>        0.000
      7 O1         -2.3260   -1.0961   -6.7261 O.2        1 <1>        0.000
      8 C20         5.3876   -1.7069   -6.1666 C.2        1 <1>        0.000
      9 C21         6.6791   -1.9010   -6.4663 C.2        1 <1>        0.000
     10 N5          7.5816   -0.9727   -6.8645 N.am       1 <1>        0.000
     11 C28         7.3831    0.3345   -7.1619 C.2        1 <1>        0.000
     12 O4          8.2451    1.1222   -7.5126 O.2        1 <1>        0.000
     13 H           1.7359   -2.6908   -4.6087 H.spc      1 <1>        0.000
     14 H           0.1273   -2.1397   -7.1419 H.spc      1 <1>        0.000
     15 H          -0.7158   -2.2893   -4.3040 H.spc      1 <1>        0.000
     16 H          -2.8621   -1.7400   -4.9399 H.spc      1 <1>        0.000
     17 H           4.9534   -0.7077   -6.2019 H.spc      1 <1>        0.000
     18 H           7.0457   -2.9238   -6.3797 H.spc      1 <1>        0.000
     19 H           8.5426   -1.3029   -6.9526 H.spc      1 <1>        0.000
     20 H           6.3647    0.7145   -7.0805 H.spc      1 <1>        0.000
@<TRIPOS>BOND
     1    6    7 2  
     2   10   11 am 
     3    9   10 1  
     4    8    9 2  
     5    5    6 am 
     6    4    5 1  
     7    1    2 1  
     8    1    8 1  
     9    2    3 1  
    10    3    4 2  
    11   11   12 2  
    12    3   13 1  
    13    4   14 1  
    14    5   15 1  
    15    6   16 1  
    16    8   17 1  
    17    9   18 1  
    18   10   19 1  
    19   11   20 1  
# Name:          frag3-195-6/31924 -- energy: -1.595905
# Creation time: Sat Jun  5 12:52:16 2010


@<TRIPOS>MOLECULE
frag3-195-6/31924 -- energy: -1.595905
   20    19     1     1     1
SMALL
USER_CHARGES


@<TRIPOS>ATOM
      1 S1          4.2784   -2.8833   -5.8709 S.3        1 <1>        0.000
      2 S2          2.6030   -2.6885   -6.9984 S.3        1 <1>        0.000
      3 C1          1.3594   -2.6416   -5.7083 C.2        1 <1>        0.000
      4 C2          0.1148   -2.2590   -6.0291 C.2        1 <1>        0.000
      5 N1         -0.9657   -2.1957   -5.2075 N.am       1 <1>        0.000
      6 C9         -2.2466   -1.8900   -5.5213 C.2        1 <1>        0.000
      7 O1         -2.6209   -1.3979   -6.5724 O.2        1 <1>        0.000
      8 C20         5.1156   -1.3496   -6.2685 C.2        1 <1>        0.000
      9 C21         6.4088   -1.4009   -6.6175 C.2        1 <1>        0.000
     10 N5          7.2027   -0.3620   -6.9810 N.am       1 <1>        0.000
     11 C28         8.5554   -0.3062   -7.0404 C.2        1 <1>        0.000
     12 O4          9.2097    0.6647   -7.3817 O.2        1 <1>        0.000
     13 H           1.6097   -2.9184   -4.6842 H.spc      1 <1>        0.000
     14 H          -0.0486   -1.9656   -7.0661 H.spc      1 <1>        0.000
     15 H          -0.7883   -2.4062   -4.2253 H.spc      1 <1>        0.000
     16 H          -3.0081   -2.1017   -4.7707 H.spc      1 <1>        0.000
     17 H           4.5860   -0.3978   -6.2275 H.spc      1 <1>        0.000
     18 H           6.8744   -2.3864   -6.6083 H.spc      1 <1>        0.000
     19 H           6.7146    0.4937   -7.2456 H.spc      1 <1>        0.000
     20 H           9.1048   -1.2047   -6.7595 H.spc      1 <1>        0.000
@<TRIPOS>BOND
     1    6    7 2  
     2   10   11 am 
     3    9   10 1  
     4    8    9 2  
     5    5    6 am 
     6    4    5 1  
     7    1    2 1  
     8    1    8 1  
     9    2    3 1  
    10    3    4 2  
    11   11   12 2  
    12    3   13 1  
    13    4   14 1  
    14    5   15 1  
    15    6   16 1  
    16    8   17 1  
    17    9   18 1  
    18   10   19 1  
    19   11   20 1  
# Name:          frag3-195-6/31924 -- energy: -1.943315
# Creation time: Sat Jun  5 12:52:16 2010


@<TRIPOS>MOLECULE
frag3-195-6/31924 -- energy: -1.943315
   20    19     1     1     1
SMALL
USER_CHARGES


@<TRIPOS>ATOM
      1 S1          4.1467   -3.1235   -5.7604 S.3        1 <1>        0.000
      2 S2          3.0969   -2.5857   -7.4084 S.3        1 <1>        0.000
      3 C1          1.5871   -2.0062   -6.6512 C.2        1 <1>        0.000
      4 C2          0.4674   -2.7293   -6.7960 C.2        1 <1>        0.000
      5 N1         -0.7556   -2.4784   -6.2687 N.am       1 <1>        0.000
      6 C9         -1.1542   -1.4196   -5.5252 C.2        1 <1>        0.000
      7 O1         -2.2614   -1.2672   -5.0386 O.2        1 <1>        0.000
      8 C20         5.0264   -1.6068   -5.4239 C.2        1 <1>        0.000
      9 C21         6.0287   -1.2487   -6.2394 C.2        1 <1>        0.000
     10 N5          6.7899   -0.1297   -6.1729 N.am       1 <1>        0.000
     11 C28         7.8181    0.2493   -6.9693 C.2        1 <1>        0.000
     12 O4          8.2244   -0.3638   -7.9429 O.2        1 <1>        0.000
     13 H           1.5760   -1.0781   -6.0796 H.spc      1 <1>        0.000
     14 H           0.5506   -3.6255   -7.4109 H.spc      1 <1>        0.000
     15 H          -1.4709   -3.1807   -6.4571 H.spc      1 <1>        0.000
     16 H          -0.4202   -0.6340   -5.3458 H.spc      1 <1>        0.000
     17 H           4.7539   -0.9839   -4.5719 H.spc      1 <1>        0.000
     18 H           6.2581   -1.9389   -7.0513 H.spc      1 <1>        0.000
     19 H           6.5565    0.5165   -5.4191 H.spc      1 <1>        0.000
     20 H           8.3255    1.1810   -6.7192 H.spc      1 <1>        0.000
@<TRIPOS>BOND
     1    6    7 2  
     2   10   11 am 
     3    9   10 1  
     4    8    9 2  
     5    5    6 am 
     6    4    5 1  
     7    1    2 1  
     8    1    8 1  
     9    2    3 1  
    10    3    4 2  
    11   11   12 2  
    12    3   13 1  
    13    4   14 1  
    14    5   15 1  
    15    6   16 1  
    16    8   17 1  
    17    9   18 1  
    18   10   19 1  
    19   11   20 1  
# Name:          frag3-195-6/31924 -- energy: -1.978536
# Creation time: Sat Jun  5 12:52:16 2010


@<TRIPOS>MOLECULE
frag3-195-6/31924 -- energy: -1.978536
   20    19     1     1     1
SMALL
USER_CHARGES


@<TRIPOS>ATOM
      1 S1          3.2183   -3.0724   -5.3068 S.3        1 <1>        0.000
      2 S2          3.9938   -3.2990   -7.1628 S.3        1 <1>        0.000
      3 C1          5.0561   -1.8725   -7.2441 C.2        1 <1>        0.000
      4 C2          6.2098   -1.8754   -6.5583 C.2        1 <1>        0.000
      5 N1          7.1572   -0.9110   -6.5198 N.am       1 <1>        0.000
      6 C9          7.1233    0.3307   -7.0582 C.2        1 <1>        0.000
      7 O1          7.9872    1.1829   -6.9452 O.2        1 <1>        0.000
      8 C20         1.7131   -2.1986   -5.6790 C.2        1 <1>        0.000
      9 C21         0.5456   -2.8531   -5.6112 C.2        1 <1>        0.000
     10 N5         -0.6941   -2.3622   -5.8291 N.am       1 <1>        0.000
     11 C28        -1.0743   -1.0852   -6.0764 C.2        1 <1>        0.000
     12 O4         -2.2215   -0.6943   -6.2060 O.2        1 <1>        0.000
     13 H           4.7729   -1.0073   -7.8436 H.spc      1 <1>        0.000
     14 H           6.4075   -2.7640   -5.9588 H.spc      1 <1>        0.000
     15 H           8.0119   -1.1514   -6.0178 H.spc      1 <1>        0.000
     16 H           6.2434    0.5920   -7.6461 H.spc      1 <1>        0.000
     17 H           1.7405   -1.1454   -5.9583 H.spc      1 <1>        0.000
     18 H           0.6032   -3.9094   -5.3484 H.spc      1 <1>        0.000
     19 H          -1.4487   -3.0480   -5.8040 H.spc      1 <1>        0.000
     20 H          -0.2833   -0.3409   -6.1676 H.spc      1 <1>        0.000
@<TRIPOS>BOND
     1    6    7 2  
     2   10   11 am 
     3    9   10 1  
     4    8    9 2  
     5    5    6 am 
     6    4    5 1  
     7    1    2 1  
     8    1    8 1  
     9    2    3 1  
    10    3    4 2  
    11   11   12 2  
    12    3   13 1  
    13    4   14 1  
    14    5   15 1  
    15    6   16 1  
    16    8   17 1  
    17    9   18 1  
    18   10   19 1  
    19   11   20 1  
# Name:          frag3-195-6/31924 -- energy: -1.615887
# Creation time: Sat Jun  5 12:52:16 2010


@<TRIPOS>MOLECULE
frag3-195-6/31924 -- energy: -1.615887
   20    19     1     1     1
SMALL
USER_CHARGES


@<TRIPOS>ATOM
      1 S1          4.3176   -3.0135   -5.9940 S.3        1 <1>        0.000
      2 S2          2.7786   -2.0207   -5.1317 S.3        1 <1>        0.000
      3 C1          1.4168   -2.6013   -6.1293 C.2        1 <1>        0.000
      4 C2          0.1966   -2.0855   -5.9325 C.2        1 <1>        0.000
      5 N1         -0.9451   -2.3690   -6.6085 N.am       1 <1>        0.000
      6 C9         -2.2078   -1.9610   -6.3429 C.2        1 <1>        0.000
      7 O1         -2.5370   -1.2170   -5.4336 O.2        1 <1>        0.000
      8 C20         5.4674   -1.6764   -6.2660 C.2        1 <1>        0.000
      9 C21         6.6815   -1.9553   -6.7575 C.2        1 <1>        0.000
     10 N5          7.6718   -1.0824   -7.0571 N.am       1 <1>        0.000
     11 C28         7.6277    0.2712   -7.1065 C.2        1 <1>        0.000
     12 O4          8.5464    1.0012   -7.4372 O.2        1 <1>        0.000
     13 H           1.5764   -3.3662   -6.8893 H.spc      1 <1>        0.000
     14 H           0.1104   -1.3495   -5.1332 H.spc      1 <1>        0.000
     15 H          -0.8373   -2.9697   -7.4258 H.spc      1 <1>        0.000
     16 H          -2.9983   -2.3284   -6.9972 H.spc      1 <1>        0.000
     17 H           5.1860   -0.6488   -6.0357 H.spc      1 <1>        0.000
     18 H           6.8976   -3.0084   -6.9374 H.spc      1 <1>        0.000
     19 H           8.5758   -1.5012   -7.2758 H.spc      1 <1>        0.000
     20 H           6.6889    0.7489   -6.8261 H.spc      1 <1>        0.000
@<TRIPOS>BOND
     1    6    7 2  
     2   10   11 am 
     3    9   10 1  
     4    8    9 2  
     5    5    6 am 
     6    4    5 1  
     7    1    2 1  
     8    1    8 1  
     9    2    3 1  
    10    3    4 2  
    11   11   12 2  
    12    3   13 1  
    13    4   14 1  
    14    5   15 1  
    15    6   16 1  
    16    8   17 1  
    17    9   18 1  
    18   10   19 1  
    19   11   20 1  
# Name:          frag3-195-6/31924 -- energy: -1.734850
# Creation time: Sat Jun  5 12:52:16 2010


@<TRIPOS>MOLECULE
frag3-195-6/31924 -- energy: -1.734850
   20    19     1     1     1
SMALL
USER_CHARGES


@<TRIPOS>ATOM
      1 S1          3.0531   -2.9861   -6.7209 S.3        1 <1>        0.000
      2 S2          4.4088   -2.9249   -5.2167 S.3        1 <1>        0.000
      3 C1          5.5396   -1.7013   -5.8566 C.2        1 <1>        0.000
      4 C2          6.3472   -2.0320   -6.8759 C.2        1 <1>        0.000
      5 N1          7.2387   -1.2392   -7.5212 N.am       1 <1>        0.000
      6 C9          7.4503    0.0888   -7.3650 C.2        1 <1>        0.000
      7 O1          6.8722    0.8116   -6.5695 O.2        1 <1>        0.000
      8 C20         1.9166   -1.7154   -6.1935 C.2        1 <1>        0.000
      9 C21         0.6047   -1.9835   -6.1825 C.2        1 <1>        0.000
     10 N5         -0.4045   -1.1702   -5.7880 N.am       1 <1>        0.000
     11 C28        -1.7385   -1.4055   -5.7899 C.2        1 <1>        0.000
     12 O4         -2.2737   -2.4521   -6.1174 O.2        1 <1>        0.000
     13 H           5.5737   -0.7006   -5.4259 H.spc      1 <1>        0.000
     14 H           6.2785   -3.0614   -7.2276 H.spc      1 <1>        0.000
     15 H           7.8258   -1.7038   -8.2139 H.spc      1 <1>        0.000
     16 H           8.2014    0.5523   -8.0046 H.spc      1 <1>        0.000
     17 H           2.2844   -0.7367   -5.8853 H.spc      1 <1>        0.000
     18 H           0.3141   -2.9740   -6.5326 H.spc      1 <1>        0.000
     19 H          -0.1205   -0.2538   -5.4416 H.spc      1 <1>        0.000
     20 H          -2.3891   -0.5908   -5.4719 H.spc      1 <1>        0.000
@<TRIPOS>BOND
     1    6    7 2  
     2   10   11 am 
     3    9   10 1  
     4    8    9 2  
     5    5    6 am 
     6    4    5 1  
     7    1    2 1  
     8    1    8 1  
     9    2    3 1  
    10    3    4 2  
    11   11   12 2  
    12    3   13 1  
    13    4   14 1  
    14    5   15 1  
    15    6   16 1  
    16    8   17 1  
    17    9   18 1  
    18   10   19 1  
    19   11   20 1  
# Name:          frag3-195-6/31924 -- energy: -2.006812
# Creation time: Sat Jun  5 12:52:16 2010


@<TRIPOS>MOLECULE
frag3-195-6/31924 -- energy: -2.006812
   20    19     1     1     1
SMALL
USER_CHARGES


@<TRIPOS>ATOM
      1 S1          2.8112   -4.3881   -5.7902 S.3        1 <1>        0.000
      2 S2          4.2389   -3.9430   -7.1584 S.3        1 <1>        0.000
      3 C1          5.1394   -2.6730   -6.2758 C.2        1 <1>        0.000
      4 C2          5.6401   -1.6372   -6.9634 C.2        1 <1>        0.000
      5 N1          6.3130   -0.5656   -6.4731 N.am       1 <1>        0.000
      6 C9          6.4915    0.6517   -7.0375 C.2        1 <1>        0.000
      7 O1          7.0639    1.5970   -6.5223 O.2        1 <1>        0.000
      8 C20         1.8858   -2.8571   -5.7749 C.2        1 <1>        0.000
      9 C21         0.6108   -2.8734   -6.1874 C.2        1 <1>        0.000
     10 N5         -0.2565   -1.8325   -6.2221 N.am       1 <1>        0.000
     11 C28        -0.0629   -0.5504   -5.8282 C.2        1 <1>        0.000
     12 O4         -0.8606    0.3618   -5.9635 O.2        1 <1>        0.000
     13 H           5.2784   -2.7407   -5.1968 H.spc      1 <1>        0.000
     14 H           5.4891   -1.6580   -8.0427 H.spc      1 <1>        0.000
     15 H           6.7416   -0.6947   -5.5566 H.spc      1 <1>        0.000
     16 H           6.0886    0.7997   -8.0394 H.spc      1 <1>        0.000
     17 H           2.3494   -1.9302   -5.4371 H.spc      1 <1>        0.000
     18 H           0.2277   -3.8330   -6.5345 H.spc      1 <1>        0.000
     19 H          -1.1819   -2.0430   -6.5960 H.spc      1 <1>        0.000
     20 H           0.8874   -0.3144   -5.3494 H.spc      1 <1>        0.000
@<TRIPOS>BOND
     1    6    7 2  
     2   10   11 am 
     3    9   10 1  
     4    8    9 2  
     5    5    6 am 
     6    4    5 1  
     7    1    2 1  
     8    1    8 1  
     9    2    3 1  
    10    3    4 2  
    11   11   12 2  
    12    3   13 1  
    13    4   14 1  
    14    5   15 1  
    15    6   16 1  
    16    8   17 1  
    17    9   18 1  
    18   10   19 1  
    19   11   20 1  
# Name:          frag3-195-6/31924 -- energy: -1.778573
# Creation time: Sat Jun  5 12:52:16 2010


@<TRIPOS>MOLECULE
frag3-195-6/31924 -- energy: -1.778573
   20    19     1     1     1
SMALL
USER_CHARGES


@<TRIPOS>ATOM
      1 S1          4.0883   -2.8796   -5.2477 S.3        1 <1>        0.000
      2 S2          3.0615   -2.3789   -6.9216 S.3        1 <1>        0.000
      3 C1          1.4396   -2.0924   -6.2325 C.2        1 <1>        0.000
      4 C2          0.3620   -2.2559   -7.0120 C.2        1 <1>        0.000
      5 N1         -0.9413   -2.1254   -6.6630 N.am       1 <1>        0.000
      6 C9         -1.4657   -1.8344   -5.4493 C.2        1 <1>        0.000
      7 O1         -2.6515   -1.7035   -5.1987 O.2        1 <1>        0.000
      8 C20         5.3431   -1.6099   -5.2404 C.2        1 <1>        0.000
      9 C21         6.1040   -1.4508   -6.3336 C.2        1 <1>        0.000
     10 N5          7.0783   -0.5333   -6.5364 N.am       1 <1>        0.000
     11 C28         7.8748   -0.3569   -7.6180 C.2        1 <1>        0.000
     12 O4          8.7216    0.5113   -7.7438 O.2        1 <1>        0.000
     13 H           1.3275   -1.7886   -5.1917 H.spc      1 <1>        0.000
     14 H           0.5566   -2.5259   -8.0500 H.spc      1 <1>        0.000
     15 H          -1.6166   -2.2650   -7.4146 H.spc      1 <1>        0.000
     16 H          -0.7660   -1.7058   -4.6234 H.spc      1 <1>        0.000
     17 H           5.4881   -0.9766   -4.3652 H.spc      1 <1>        0.000
     18 H           5.9155   -2.1417   -7.1553 H.spc      1 <1>        0.000
     19 H           7.2349    0.1170   -5.7663 H.spc      1 <1>        0.000
     20 H           7.7475   -1.0517   -8.4482 H.spc      1 <1>        0.000
@<TRIPOS>BOND
     1    6    7 2  
     2   10   11 am 
     3    9   10 1  
     4    8    9 2  
     5    5    6 am 
     6    4    5 1  
     7    1    2 1  
     8    1    8 1  
     9    2    3 1  
    10    3    4 2  
    11   11   12 2  
    12    3   13 1  
    13    4   14 1  
    14    5   15 1  
    15    6   16 1  
    16    8   17 1  
    17    9   18 1  
    18   10   19 1  
    19   11   20 1  
# Name:          frag3-195-6/31924 -- energy: -1.775220
# Creation time: Sat Jun  5 12:52:16 2010


@<TRIPOS>MOLECULE
frag3-195-6/31924 -- energy: -1.775220
   20    19     1     1     1
SMALL
USER_CHARGES


@<TRIPOS>ATOM
      1 S1          2.7545   -3.2353   -7.2954 S.3        1 <1>        0.000
      2 S2          4.4872   -3.3665   -6.2476 S.3        1 <1>        0.000
      3 C1          4.8962   -1.6271   -6.0982 C.2        1 <1>        0.000
      4 C2          6.0175   -1.1790   -6.6816 C.2        1 <1>        0.000
      5 N1          6.4753    0.1002   -6.7130 N.am       1 <1>        0.000
      6 C9          7.7355    0.5392   -6.9405 C.2        1 <1>        0.000
      7 O1          8.7183   -0.1691   -7.0807 O.2        1 <1>        0.000
      8 C20         1.5742   -3.1085   -5.9525 C.2        1 <1>        0.000
      9 C21         0.4859   -2.3463   -6.1306 C.2        1 <1>        0.000
     10 N5         -0.5302   -2.1491   -5.2526 N.am       1 <1>        0.000
     11 C28        -1.6574   -1.4132   -5.4088 C.2        1 <1>        0.000
     12 O4         -1.9423   -0.7553   -6.3953 O.2        1 <1>        0.000
     13 H           4.2472   -0.9483   -5.5449 H.spc      1 <1>        0.000
     14 H           6.6307   -1.9247   -7.1875 H.spc      1 <1>        0.000
     15 H           5.7778    0.8247   -6.5428 H.spc      1 <1>        0.000
     16 H           7.8844    1.6171   -7.0037 H.spc      1 <1>        0.000
     17 H           1.7373   -3.6382   -5.0139 H.spc      1 <1>        0.000
     18 H           0.4084   -1.8276   -7.0861 H.spc      1 <1>        0.000
     19 H          -0.4320   -2.6188   -4.3525 H.spc      1 <1>        0.000
     20 H          -2.3692   -1.4090   -4.5833 H.spc      1 <1>        0.000
@<TRIPOS>BOND
     1    6    7 2  
     2   10   11 am 
     3    9   10 1  
     4    8    9 2  
     5    5    6 am 
     6    4    5 1  
     7    1    2 1  
     8    1    8 1  
     9    2    3 1  
    10    3    4 2  
    11   11   12 2  
    12    3   13 1  
    13    4   14 1  
    14    5   15 1  
    15    6   16 1  
    16    8   17 1  
    17    9   18 1  
    18   10   19 1  
    19   11   20 1  
# Name:          frag3-195-6/31924 -- energy: -1.848945
# Creation time: Sat Jun  5 12:52:16 2010


@<TRIPOS>MOLECULE
frag3-195-6/31924 -- energy: -1.848945
   20    19     1     1     1
SMALL
USER_CHARGES


@<TRIPOS>ATOM
      1 S1          2.8820   -3.7373   -7.1330 S.3        1 <1>        0.000
      2 S2          4.5082   -3.7024   -5.9249 S.3        1 <1>        0.000
      3 C1          5.1808   -2.0985   -6.3430 C.2        1 <1>        0.000
      4 C2          6.4870   -1.8714   -6.1475 C.2        1 <1>        0.000
      5 N1          7.1832   -0.7435   -6.4362 N.am       1 <1>        0.000
      6 C9          6.7399    0.3977   -7.0139 C.2        1 <1>        0.000
      7 O1          7.4095    1.3941   -7.2261 O.2        1 <1>        0.000
      8 C20         1.9808   -2.3245   -6.5085 C.2        1 <1>        0.000
      9 C21         0.6488   -2.4091   -6.3956 C.2        1 <1>        0.000
     10 N5         -0.2006   -1.4676   -5.9186 N.am       1 <1>        0.000
     11 C28        -1.5501   -1.5138   -5.8067 C.2        1 <1>        0.000
     12 O4         -2.2550   -0.6336   -5.3427 O.2        1 <1>        0.000
     13 H           4.5382   -1.3180   -6.7505 H.spc      1 <1>        0.000
     14 H           7.0566   -2.6885   -5.7048 H.spc      1 <1>        0.000
     15 H           8.1716   -0.7571   -6.1847 H.spc      1 <1>        0.000
     16 H           5.6929    0.4284   -7.3156 H.spc      1 <1>        0.000
     17 H           2.5054   -1.4120   -6.2252 H.spc      1 <1>        0.000
     18 H           0.1957   -3.3439   -6.7258 H.spc      1 <1>        0.000
     19 H           0.2369   -0.6033   -5.5991 H.spc      1 <1>        0.000
     20 H          -2.0487   -2.4156   -6.1621 H.spc      1 <1>        0.000
@<TRIPOS>BOND
     1    6    7 2  
     2   10   11 am 
     3    9   10 1  
     4    8    9 2  
     5    5    6 am 
     6    4    5 1  
     7    1    2 1  
     8    1    8 1  
     9    2    3 1  
    10    3    4 2  
    11   11   12 2  
    12    3   13 1  
    13    4   14 1  
    14    5   15 1  
    15    6   16 1  
    16    8   17 1  
    17    9   18 1  
    18   10   19 1  
    19   11   20 1  
# Name:          frag3-195-6/31924 -- energy: -1.703073
# Creation time: Sat Jun  5 12:52:16 2010


@<TRIPOS>MOLECULE
frag3-195-6/31924 -- energy: -1.703073
   20    19     1     1     1
SMALL
USER_CHARGES


@<TRIPOS>ATOM
      1 S1          4.3004   -3.3990   -6.6648 S.3        1 <1>        0.000
      2 S2          2.9878   -2.8443   -5.2256 S.3        1 <1>        0.000
      3 C1          1.4415   -3.1137   -6.0773 C.2        1 <1>        0.000
      4 C2          0.4231   -2.2701   -5.8635 C.2        1 <1>        0.000
      5 N1         -0.8050   -2.2867   -6.4401 N.am       1 <1>        0.000
      6 C9         -1.8394   -1.4350   -6.2496 C.2        1 <1>        0.000
      7 O1         -1.8327   -0.4642   -5.5105 O.2        1 <1>        0.000
      8 C20         5.2291   -1.8882   -6.8668 C.2        1 <1>        0.000
      9 C21         6.4973   -1.8475   -6.4348 C.2        1 <1>        0.000
     10 N5          7.3662   -0.8130   -6.5227 N.am       1 <1>        0.000
     11 C28         7.1991    0.3905   -7.1227 C.2        1 <1>        0.000
     12 O4          8.0472    1.2612   -7.2185 O.2        1 <1>        0.000
     13 H           1.3278   -3.9538   -6.7624 H.spc      1 <1>        0.000
     14 H           0.6025   -1.4752   -5.1396 H.spc      1 <1>        0.000
     15 H          -0.9707   -3.0416   -7.1058 H.spc      1 <1>        0.000
     16 H          -2.7568   -1.6332   -6.8038 H.spc      1 <1>        0.000
     17 H           4.7733   -1.0147   -7.3329 H.spc      1 <1>        0.000
     18 H           6.8727   -2.7525   -5.9572 H.spc      1 <1>        0.000
     19 H           8.2713   -0.9597   -6.0758 H.spc      1 <1>        0.000
     20 H           6.2214    0.5982   -7.5575 H.spc      1 <1>        0.000
@<TRIPOS>BOND
     1    6    7 2  
     2   10   11 am 
     3    9   10 1  
     4    8    9 2  
     5    5    6 am 
     6    4    5 1  
     7    1    2 1  
     8    1    8 1  
     9    2    3 1  
    10    3    4 2  
    11   11   12 2  
    12    3   13 1  
    13    4   14 1  
    14    5   15 1  
    15    6   16 1  
    16    8   17 1  
    17    9   18 1  
    18   10   19 1  
    19   11   20 1  
# Name:          frag3-195-6/31924 -- energy: -1.624335
# Creation time: Sat Jun  5 12:52:16 2010


@<TRIPOS>MOLECULE
frag3-195-6/31924 -- energy: -1.624335
   20    19     1     1     1
SMALL
USER_CHARGES


@<TRIPOS>ATOM
      1 S1          4.1042   -2.7368   -6.8745 S.3        1 <1>        0.000
      2 S2          2.7421   -2.8791   -5.3799 S.3        1 <1>        0.000
      3 C1          1.5016   -1.7313   -5.9693 C.2        1 <1>        0.000
      4 C2          0.2087   -2.0719   -5.8733 C.2        1 <1>        0.000
      5 N1         -0.8710   -1.3283   -6.2277 N.am       1 <1>        0.000
      6 C9         -2.1838   -1.6328   -6.1006 C.2        1 <1>        0.000
      7 O1         -2.6341   -2.7363   -5.8412 O.2        1 <1>        0.000
      8 C20         5.4710   -1.9826   -6.0004 C.2        1 <1>        0.000
      9 C21         6.3961   -1.3183   -6.7061 C.2        1 <1>        0.000
     10 N5          7.4804   -0.6587   -6.2276 N.am       1 <1>        0.000
     11 C28         8.4332    0.0200   -6.9113 C.2        1 <1>        0.000
     12 O4          8.3663    0.3461   -8.0848 O.2        1 <1>        0.000
     13 H           1.7923   -0.7725   -6.3986 H.spc      1 <1>        0.000
     14 H          -0.0002   -3.0600   -5.4634 H.spc      1 <1>        0.000
     15 H          -0.6656   -0.4204   -6.6448 H.spc      1 <1>        0.000
     16 H          -2.8995   -0.8229   -6.2421 H.spc      1 <1>        0.000
     17 H           5.5495   -2.0619   -4.9161 H.spc      1 <1>        0.000
     18 H           6.2621   -1.3066   -7.7878 H.spc      1 <1>        0.000
     19 H           7.5941   -0.6760   -5.2141 H.spc      1 <1>        0.000
     20 H           9.3356    0.2980   -6.3668 H.spc      1 <1>        0.000
@<TRIPOS>BOND
     1    6    7 2  
     2   10   11 am 
     3    9   10 1  
     4    8    9 2  
     5    5    6 am 
     6    4    5 1  
     7    1    2 1  
     8    1    8 1  
     9    2    3 1  
    10    3    4 2  
    11   11   12 2  
    12    3   13 1  
    13    4   14 1  
    14    5   15 1  
    15    6   16 1  
    16    8   17 1  
    17    9   18 1  
    18   10   19 1  
    19   11   20 1  
# Name:          frag3-195-6/31924 -- energy: -1.631715
# Creation time: Sat Jun  5 12:52:16 2010


@<TRIPOS>MOLECULE
frag3-195-6/31924 -- energy: -1.631715
   20    19     1     1     1
SMALL
USER_CHARGES


@<TRIPOS>ATOM
      1 S1          3.2370   -2.2923   -5.2565 S.3        1 <1>        0.000
      2 S2          4.1936   -2.9920   -6.8998 S.3        1 <1>        0.000
      3 C1          5.4896   -1.7737   -7.0580 C.2        1 <1>        0.000
      4 C2          6.5652   -1.8631   -6.2610 C.2        1 <1>        0.000
      5 N1          7.6610   -1.0630   -6.2529 N.am       1 <1>        0.000
      6 C9          7.8756    0.0770   -6.9508 C.2        1 <1>        0.000
      7 O1          7.0785    0.6071   -7.7075 O.2        1 <1>        0.000
      8 C20         1.7703   -1.5966   -5.9998 C.2        1 <1>        0.000
      9 C21         0.5745   -2.0928   -5.6552 C.2        1 <1>        0.000
     10 N5         -0.6442   -1.6863   -6.0823 N.am       1 <1>        0.000
     11 C28        -1.8665   -2.1861   -5.7801 C.2        1 <1>        0.000
     12 O4         -2.9199   -1.8481   -6.2929 O.2        1 <1>        0.000
     13 H           5.4081   -0.9704   -7.7902 H.spc      1 <1>        0.000
     14 H           6.5579   -2.6749   -5.5336 H.spc      1 <1>        0.000
     15 H           8.4220   -1.3589   -5.6415 H.spc      1 <1>        0.000
     16 H           8.8433    0.5630   -6.8261 H.spc      1 <1>        0.000
     17 H           1.8464   -0.7828   -6.7210 H.spc      1 <1>        0.000
     18 H           0.5839   -2.9217   -4.9474 H.spc      1 <1>        0.000
     19 H          -0.6417   -0.8917   -6.7218 H.spc      1 <1>        0.000
     20 H          -1.9123   -2.9577   -5.0115 H.spc      1 <1>        0.000
@<TRIPOS>BOND
     1    6    7 2  
     2   10   11 am 
     3    9   10 1  
     4    8    9 2  
     5    5    6 am 
     6    4    5 1  
     7    1    2 1  
     8    1    8 1  
     9    2    3 1  
    10    3    4 2  
    11   11   12 2  
    12    3   13 1  
    13    4   14 1  
    14    5   15 1  
    15    6   16 1  
    16    8   17 1  
    17    9   18 1  
    18   10   19 1  
    19   11   20 1  
# Name:          frag3-195-6/31924 -- energy: -1.621260
# Creation time: Sat Jun  5 12:52:16 2010


@<TRIPOS>MOLECULE
frag3-195-6/31924 -- energy: -1.621260
   20    19     1     1     1
SMALL
USER_CHARGES


@<TRIPOS>ATOM
      1 S1          2.6026   -1.6636   -6.8136 S.3        1 <1>        0.000
      2 S2          4.0046   -2.0146   -5.3897 S.3        1 <1>        0.000
      3 C1          5.2602   -0.8360   -5.8873 C.2        1 <1>        0.000
      4 C2          6.4053   -1.2991   -6.4093 C.2        1 <1>        0.000
      5 N1          7.4524   -0.5702   -6.8769 N.am       1 <1>        0.000
      6 C9          8.5837   -1.0085   -7.4773 C.2        1 <1>        0.000
      7 O1          9.5286   -0.3107   -7.8047 O.2        1 <1>        0.000
      8 C20         1.1697   -1.3472   -5.7852 C.2        1 <1>        0.000
      9 C21         0.0267   -1.9870   -6.0697 C.2        1 <1>        0.000
     10 N5         -1.1489   -1.9060   -5.3965 N.am       1 <1>        0.000
     11 C28        -2.3334   -2.5002   -5.6802 C.2        1 <1>        0.000
     12 O4         -2.5370   -3.2668   -6.6065 O.2        1 <1>        0.000
     13 H           5.0963    0.2350   -5.7680 H.spc      1 <1>        0.000
     14 H           6.5077   -2.3829   -6.4648 H.spc      1 <1>        0.000
     15 H           7.3759    0.4402   -6.7601 H.spc      1 <1>        0.000
     16 H           8.6562   -2.0759   -7.6858 H.spc      1 <1>        0.000
     17 H           1.2262   -0.6511   -4.9483 H.spc      1 <1>        0.000
     18 H           0.0433   -2.6454   -6.9382 H.spc      1 <1>        0.000
     19 H          -1.1397   -1.3176   -4.5633 H.spc      1 <1>        0.000
     20 H          -3.1749   -2.2739   -5.0254 H.spc      1 <1>        0.000
@<TRIPOS>BOND
     1    6    7 2  
     2   10   11 am 
     3    9   10 1  
     4    8    9 2  
     5    5    6 am 
     6    4    5 1  
     7    1    2 1  
     8    1    8 1  
     9    2    3 1  
    10    3    4 2  
    11   11   12 2  
    12    3   13 1  
    13    4   14 1  
    14    5   15 1  
    15    6   16 1  
    16    8   17 1  
    17    9   18 1  
    18   10   19 1  
    19   11   20 1  
# Name:          frag3-195-6/31924 -- energy: -2.394590
# Creation time: Sat Jun  5 12:52:16 2010


@<TRIPOS>MOLECULE
frag3-195-6/31924 -- energy: -2.394590
   20    19     1     1     1
SMALL
USER_CHARGES


@<TRIPOS>ATOM
      1 S1          3.2430   -3.9878   -7.4951 S.3        1 <1>        0.000
      2 S2          4.1811   -4.0145   -5.6966 S.3        1 <1>        0.000
      3 C1          4.5279   -2.2691   -5.4955 C.2        1 <1>        0.000
      4 C2          5.4421   -1.6978   -6.2933 C.2        1 <1>        0.000
      5 N1          5.8136   -0.3921   -6.3214 N.am       1 <1>        0.000
      6 C9          6.6734    0.2236   -7.1664 C.2        1 <1>        0.000
      7 O1          6.9886    1.4008   -7.1253 O.2        1 <1>        0.000
      8 C20         1.5926   -3.5099   -6.9921 C.2        1 <1>        0.000
      9 C21         1.4021   -2.2714   -6.5154 C.2        1 <1>        0.000
     10 N5          0.2323   -1.7154   -6.1140 N.am       1 <1>        0.000
     11 C28         0.0068   -0.4793   -5.6068 C.2        1 <1>        0.000
     12 O4         -1.0889    0.0030   -5.3749 O.2        1 <1>        0.000
     13 H           4.0061   -1.6825   -4.7394 H.spc      1 <1>        0.000
     14 H           5.9447   -2.3576   -7.0005 H.spc      1 <1>        0.000
     15 H           5.3883    0.2041   -5.6114 H.spc      1 <1>        0.000
     16 H           7.1226   -0.3853   -7.9510 H.spc      1 <1>        0.000
     17 H           0.7612   -4.2103   -7.0717 H.spc      1 <1>        0.000
     18 H           2.2876   -1.6401   -6.4422 H.spc      1 <1>        0.000
     19 H          -0.5915   -2.3096   -6.2066 H.spc      1 <1>        0.000
     20 H           0.8791    0.1364   -5.3874 H.spc      1 <1>        0.000
@<TRIPOS>BOND
     1    6    7 2  
     2   10   11 am 
     3    9   10 1  
     4    8    9 2  
     5    5    6 am 
     6    4    5 1  
     7    1    2 1  
     8    1    8 1  
     9    2    3 1  
    10    3    4 2  
    11   11   12 2  
    12    3   13 1  
    13    4   14 1  
    14    5   15 1  
    15    6   16 1  
    16    8   17 1  
    17    9   18 1  
    18   10   19 1  
    19   11   20 1  
# Name:          frag3-195-6/31924 -- energy: -2.807542
# Creation time: Sat Jun  5 12:52:16 2010


@<TRIPOS>MOLECULE
frag3-195-6/31924 -- energy: -2.807542
   20    19     1     1     1
SMALL
USER_CHARGES


@<TRIPOS>ATOM
      1 S1          2.8414   -4.1343   -5.0710 S.3        1 <1>        0.000
      2 S2          4.0823   -4.5297   -6.6241 S.3        1 <1>        0.000
      3 C1          5.2188   -3.1572   -6.4803 C.2        1 <1>        0.000
      4 C2          4.7945   -1.9263   -6.8028 C.2        1 <1>        0.000
      5 N1          5.4867   -0.7630   -6.7240 N.am       1 <1>        0.000
      6 C9          5.0572    0.4969   -6.9688 C.2        1 <1>        0.000
      7 O1          5.7458    1.5026   -6.9359 O.2        1 <1>        0.000
      8 C20         1.8631   -2.8076   -5.7612 C.2        1 <1>        0.000
      9 C21         1.7854   -1.6478   -5.0945 C.2        1 <1>        0.000
     10 N5          1.1257   -0.5237   -5.4667 N.am       1 <1>        0.000
     11 C28         0.4890   -0.2608   -6.6337 C.2        1 <1>        0.000
     12 O4          0.5247   -0.9589   -7.6339 O.2        1 <1>        0.000
     13 H           6.2404   -3.3181   -6.1360 H.spc      1 <1>        0.000
     14 H           3.7716   -1.8524   -7.1721 H.spc      1 <1>        0.000
     15 H           6.4632   -0.8491   -6.4421 H.spc      1 <1>        0.000
     16 H           4.0035    0.6236   -7.2171 H.spc      1 <1>        0.000
     17 H           1.3389   -2.9395   -6.7077 H.spc      1 <1>        0.000
     18 H           2.3141   -1.6031   -4.1423 H.spc      1 <1>        0.000
     19 H           1.1058    0.2256   -4.7749 H.spc      1 <1>        0.000
     20 H          -0.1054    0.6515   -6.6831 H.spc      1 <1>        0.000
@<TRIPOS>BOND
     1    6    7 2  
     2   10   11 am 
     3    9   10 1  
     4    8    9 2  
     5    5    6 am 
     6    4    5 1  
     7    1    2 1  
     8    1    8 1  
     9    2    3 1  
    10    3    4 2  
    11   11   12 2  
    12    3   13 1  
    13    4   14 1  
    14    5   15 1  
    15    6   16 1  
    16    8   17 1  
    17    9   18 1  
    18   10   19 1  
    19   11   20 1  
# Name:          frag3-195-6/31924 -- energy: -1.944173
# Creation time: Sat Jun  5 12:52:16 2010


@<TRIPOS>MOLECULE
frag3-195-6/31924 -- energy: -1.944173
   20    19     1     1     1
SMALL
USER_CHARGES


@<TRIPOS>ATOM
      1 S1          4.0078   -3.7333   -6.6521 S.3        1 <1>        0.000
      2 S2          3.3541   -2.7964   -4.9784 S.3        1 <1>        0.000
      3 C1          1.6210   -2.6242   -5.3605 C.2        1 <1>        0.000
      4 C2          1.1228   -1.4056   -5.6128 C.2        1 <1>        0.000
      5 N1         -0.1464   -1.0821   -5.9570 N.am       1 <1>        0.000
      6 C9         -1.2162   -1.8984   -6.1058 C.2        1 <1>        0.000
      7 O1         -2.3270   -1.5585   -6.4750 O.2        1 <1>        0.000
      8 C20         4.8529   -2.3943   -7.4719 C.2        1 <1>        0.000
      9 C21         5.7825   -1.7052   -6.7928 C.2        1 <1>        0.000
     10 N5          6.5479   -0.6836   -7.2392 N.am       1 <1>        0.000
     11 C28         7.4219    0.0940   -6.5565 C.2        1 <1>        0.000
     12 O4          7.9934    1.0777   -6.9950 O.2        1 <1>        0.000
     13 H           0.9735   -3.5006   -5.3886 H.spc      1 <1>        0.000
     14 H           1.8238   -0.5749   -5.5311 H.spc      1 <1>        0.000
     15 H          -0.3194   -0.0913   -6.1268 H.spc      1 <1>        0.000
     16 H          -1.0712   -2.9537   -5.8748 H.spc      1 <1>        0.000
     17 H           4.6186   -2.1403   -8.5057 H.spc      1 <1>        0.000
     18 H           5.9397   -2.0049   -5.7567 H.spc      1 <1>        0.000
     19 H           6.4536   -0.4678   -8.2316 H.spc      1 <1>        0.000
     20 H           7.6329   -0.1842   -5.5240 H.spc      1 <1>        0.000
@<TRIPOS>BOND
     1    6    7 2  
     2   10   11 am 
     3    9   10 1  
     4    8    9 2  
     5    5    6 am 
     6    4    5 1  
     7    1    2 1  
     8    1    8 1  
     9    2    3 1  
    10    3    4 2  
    11   11   12 2  
    12    3   13 1  
    13    4   14 1  
    14    5   15 1  
    15    6   16 1  
    16    8   17 1  
    17    9   18 1  
    18   10   19 1  
    19   11   20 1  
# Name:          frag3-195-6/31924 -- energy: -2.001666
# Creation time: Sat Jun  5 12:52:16 2010


@<TRIPOS>MOLECULE
frag3-195-6/31924 -- energy: -2.001666
   20    19     1     1     1
SMALL
USER_CHARGES


@<TRIPOS>ATOM
      1 S1          2.7002   -4.3205   -6.3139 S.3        1 <1>        0.000
      2 S2          4.6088   -3.9375   -6.8907 S.3        1 <1>        0.000
      3 C1          4.9390   -2.4657   -5.9181 C.2        1 <1>        0.000
      4 C2          5.6637   -1.4826   -6.4730 C.2        1 <1>        0.000
      5 N1          5.9860   -0.2846   -5.9163 N.am       1 <1>        0.000
      6 C9          6.6455    0.7553   -6.4788 C.2        1 <1>        0.000
      7 O1          7.2667    0.7167   -7.5272 O.2        1 <1>        0.000
      8 C20         1.8612   -2.8991   -7.0173 C.2        1 <1>        0.000
      9 C21         1.0227   -2.2059   -6.2336 C.2        1 <1>        0.000
     10 N5          0.3227   -1.0915   -6.5684 N.am       1 <1>        0.000
     11 C28        -0.7469   -0.5410   -5.9440 C.2        1 <1>        0.000
     12 O4         -1.2552   -0.9533   -4.9153 O.2        1 <1>        0.000
     13 H           4.5596   -2.3728   -4.9005 H.spc      1 <1>        0.000
     14 H           6.0352   -1.6642   -7.4815 H.spc      1 <1>        0.000
     15 H           5.6925   -0.1522   -4.9485 H.spc      1 <1>        0.000
     16 H           6.6189    1.7078   -5.9496 H.spc      1 <1>        0.000
     17 H           2.0287   -2.6069   -8.0540 H.spc      1 <1>        0.000
     18 H           0.8884   -2.5771   -5.2176 H.spc      1 <1>        0.000
     19 H           0.6457   -0.6023   -7.4031 H.spc      1 <1>        0.000
     20 H          -1.1898    0.3446   -6.3997 H.spc      1 <1>        0.000
@<TRIPOS>BOND
     1    6    7 2  
     2   10   11 am 
     3    9   10 1  
     4    8    9 2  
     5    5    6 am 
     6    4    5 1  
     7    1    2 1  
     8    1    8 1  
     9    2    3 1  
    10    3    4 2  
    11   11   12 2  
    12    3   13 1  
    13    4   14 1  
    14    5   15 1  
    15    6   16 1  
    16    8   17 1  
    17    9   18 1  
    18   10   19 1  
    19   11   20 1  
# Name:          frag3-195-6/31924 -- energy: -1.542330
# Creation time: Sat Jun  5 12:52:16 2010


@<TRIPOS>MOLECULE
frag3-195-6/31924 -- energy: -1.542330
   20    19     1     1     1
SMALL
USER_CHARGES


@<TRIPOS>ATOM
      1 S1          2.6922   -2.6742   -5.6955 S.3        1 <1>        0.000
      2 S2          4.1422   -2.3892   -7.0823 S.3        1 <1>        0.000
      3 C1          5.3759   -1.5573   -6.0893 C.2        1 <1>        0.000
      4 C2          6.4992   -1.1260   -6.6793 C.2        1 <1>        0.000
      5 N1          7.5265   -0.4468   -6.1074 N.am       1 <1>        0.000
      6 C9          8.6643    0.0054   -6.6845 C.2        1 <1>        0.000
      7 O1          8.9529   -0.1036   -7.8647 O.2        1 <1>        0.000
      8 C20         1.2486   -2.1646   -6.6196 C.2        1 <1>        0.000
      9 C21         0.0498   -2.2259   -6.0249 C.2        1 <1>        0.000
     10 N5         -1.1480   -1.8593   -6.5445 N.am       1 <1>        0.000
     11 C28        -2.3787   -1.9375   -5.9830 C.2        1 <1>        0.000
     12 O4         -2.6104   -2.2307   -4.8218 O.2        1 <1>        0.000
     13 H           5.2166   -1.4037   -5.0220 H.spc      1 <1>        0.000
     14 H           6.5999   -1.3461   -7.7421 H.spc      1 <1>        0.000
     15 H           7.4277   -0.2515   -5.1112 H.spc      1 <1>        0.000
     16 H           9.3839    0.5099   -6.0398 H.spc      1 <1>        0.000
     17 H           1.3422   -1.8111   -7.6464 H.spc      1 <1>        0.000
     18 H           0.0355   -2.6150   -5.0068 H.spc      1 <1>        0.000
     19 H          -1.1184   -1.4715   -7.4874 H.spc      1 <1>        0.000
     20 H          -3.2339   -1.7201   -6.6229 H.spc      1 <1>        0.000
@<TRIPOS>BOND
     1    6    7 2  
     2   10   11 am 
     3    9   10 1  
     4    8    9 2  
     5    5    6 am 
     6    4    5 1  
     7    1    2 1  
     8    1    8 1  
     9    2    3 1  
    10    3    4 2  
    11   11   12 2  
    12    3   13 1  
    13    4   14 1  
    14    5   15 1  
    15    6   16 1  
    16    8   17 1  
    17    9   18 1  
    18   10   19 1  
    19   11   20 1  
# Name:          frag3-195-6/31924 -- energy: -3.355802
# Creation time: Sat Jun  5 12:52:16 2010


@<TRIPOS>MOLECULE
frag3-195-6/31924 -- energy: -3.355802
   20    19     1     1     1
SMALL
USER_CHARGES


@<TRIPOS>ATOM
      1 S1          2.8938   -4.6421   -6.0937 S.3        1 <1>        0.000
      2 S2          4.7003   -4.3413   -6.9655 S.3        1 <1>        0.000
      3 C1          5.2783   -2.9357   -6.0188 C.2        1 <1>        0.000
      4 C2          5.0120   -1.7009   -6.4688 C.2        1 <1>        0.000
      5 N1          5.3292   -0.5196   -5.8783 N.am       1 <1>        0.000
      6 C9          4.9523    0.7303   -6.2356 C.2        1 <1>        0.000
      7 O1          4.0747    1.0046   -7.0371 O.2        1 <1>        0.000
      8 C20         1.9165   -3.4003   -6.9345 C.2        1 <1>        0.000
      9 C21         1.7799   -2.1962   -6.3616 C.2        1 <1>        0.000
     10 N5          1.1115   -1.1226   -6.8519 N.am       1 <1>        0.000
     11 C28         0.8692    0.0716   -6.2593 C.2        1 <1>        0.000
     12 O4          1.0968    0.3422   -5.0918 O.2        1 <1>        0.000
     13 H           5.8363   -3.0811   -5.0938 H.spc      1 <1>        0.000
     14 H           4.4796   -1.6379   -7.4179 H.spc      1 <1>        0.000
     15 H           5.9309   -0.5827   -5.0571 H.spc      1 <1>        0.000
     16 H           5.4777    1.5626   -5.7673 H.spc      1 <1>        0.000
     17 H           1.4427   -3.6185   -7.8916 H.spc      1 <1>        0.000
     18 H           2.2603   -2.0650   -5.3920 H.spc      1 <1>        0.000
     19 H           0.7404   -1.2288   -7.7961 H.spc      1 <1>        0.000
     20 H           0.4343    0.8566   -6.8779 H.spc      1 <1>        0.000
@<TRIPOS>BOND
     1    6    7 2  
     2   10   11 am 
     3    9   10 1  
     4    8    9 2  
     5    5    6 am 
     6    4    5 1  
     7    1    2 1  
     8    1    8 1  
     9    2    3 1  
    10    3    4 2  
    11   11   12 2  
    12    3   13 1  
    13    4   14 1  
    14    5   15 1  
    15    6   16 1  
    16    8   17 1  
    17    9   18 1  
    18   10   19 1  
    19   11   20 1  
# Name:          frag3-195-6/31924 -- energy: -1.838341
# Creation time: Sat Jun  5 12:52:16 2010


@<TRIPOS>MOLECULE
frag3-195-6/31924 -- energy: -1.838341
   20    19     1     1     1
SMALL
USER_CHARGES


@<TRIPOS>ATOM
      1 S1          2.9292   -4.1348   -5.8536 S.3        1 <1>        0.000
      2 S2          4.5299   -3.9412   -7.0824 S.3        1 <1>        0.000
      3 C1          5.5285   -2.8040   -6.1280 C.2        1 <1>        0.000
      4 C2          5.6764   -1.5463   -6.5679 C.2        1 <1>        0.000
      5 N1          6.3567   -0.5348   -5.9696 N.am       1 <1>        0.000
      6 C9          6.4547    0.7594   -6.3536 C.2        1 <1>        0.000
      7 O1          6.1228    1.2042   -7.4398 O.2        1 <1>        0.000
      8 C20         1.6878   -3.2516   -6.7907 C.2        1 <1>        0.000
      9 C21         0.9460   -2.3281   -6.1646 C.2        1 <1>        0.000
     10 N5         -0.0152   -1.5383   -6.7045 N.am       1 <1>        0.000
     11 C28        -0.6902   -0.5103   -6.1357 C.2        1 <1>        0.000
     12 O4         -0.5120   -0.0840   -5.0067 O.2        1 <1>        0.000
     13 H           6.0084   -3.1283   -5.2046 H.spc      1 <1>        0.000
     14 H           5.1945   -1.3079   -7.5161 H.spc      1 <1>        0.000
     15 H           6.8605   -0.7832   -5.1182 H.spc      1 <1>        0.000
     16 H           6.8652    1.4642   -5.6306 H.spc      1 <1>        0.000
     17 H           1.5378   -3.4605   -7.8499 H.spc      1 <1>        0.000
     18 H           1.1369   -2.1965   -5.0995 H.spc      1 <1>        0.000
     19 H          -0.2642   -1.7467   -7.6714 H.spc      1 <1>        0.000
     20 H          -1.4572   -0.0231   -6.7378 H.spc      1 <1>        0.000
@<TRIPOS>BOND
     1    6    7 2  
     2   10   11 am 
     3    9   10 1  
     4    8    9 2  
     5    5    6 am 
     6    4    5 1  
     7    1    2 1  
     8    1    8 1  
     9    2    3 1  
    10    3    4 2  
    11   11   12 2  
    12    3   13 1  
    13    4   14 1  
    14    5   15 1  
    15    6   16 1  
    16    8   17 1  
    17    9   18 1  
    18   10   19 1  
    19   11   20 1  
# Name:          frag3-195-6/31924 -- energy: -1.563788
# Creation time: Sat Jun  5 12:52:16 2010


@<TRIPOS>MOLECULE
frag3-195-6/31924 -- energy: -1.563788
   20    19     1     1     1
SMALL
USER_CHARGES


@<TRIPOS>ATOM
      1 S1          2.5500   -1.4214   -5.5283 S.3        1 <1>        0.000
      2 S2          4.1689   -2.5536   -5.9842 S.3        1 <1>        0.000
      3 C1          5.1893   -1.3333   -6.8053 C.2        1 <1>        0.000
      4 C2          6.5003   -1.2959   -6.5277 C.2        1 <1>        0.000
      5 N1          7.4370   -0.4759   -7.0695 N.am       1 <1>        0.000
      6 C9          8.7704   -0.4475   -6.8388 C.2        1 <1>        0.000
      7 O1          9.5909    0.1752   -7.4912 O.2        1 <1>        0.000
      8 C20         1.2368   -2.4587   -6.1620 C.2        1 <1>        0.000
      9 C21        -0.0298   -2.0424   -6.0295 C.2        1 <1>        0.000
     10 N5         -1.1517   -2.6667   -6.4673 N.am       1 <1>        0.000
     11 C28        -2.4393   -2.4579   -6.1005 C.2        1 <1>        0.000
     12 O4         -2.8083   -1.7317   -5.1926 O.2        1 <1>        0.000
     13 H           4.7527   -0.6335   -7.5179 H.spc      1 <1>        0.000
     14 H           6.8553   -2.0059   -5.7807 H.spc      1 <1>        0.000
     15 H           7.0896    0.2101   -7.7397 H.spc      1 <1>        0.000
     16 H           9.1428   -1.0317   -5.9973 H.spc      1 <1>        0.000
     17 H           1.4625   -3.4091   -6.6456 H.spc      1 <1>        0.000
     18 H          -0.1752   -1.0946   -5.5112 H.spc      1 <1>        0.000
     19 H          -1.0061   -3.3928   -7.1687 H.spc      1 <1>        0.000
     20 H          -3.2103   -2.9831   -6.6643 H.spc      1 <1>        0.000
@<TRIPOS>BOND
     1    6    7 2  
     2   10   11 am 
     3    9   10 1  
     4    8    9 2  
     5    5    6 am 
     6    4    5 1  
     7    1    2 1  
     8    1    8 1  
     9    2    3 1  
    10    3    4 2  
    11   11   12 2  
    12    3   13 1  
    13    4   14 1  
    14    5   15 1  
    15    6   16 1  
    16    8   17 1  
    17    9   18 1  
    18   10   19 1  
    19   11   20 1  
# Name:          frag3-195-6/31924 -- energy: -2.077207
# Creation time: Sat Jun  5 12:52:16 2010


@<TRIPOS>MOLECULE
frag3-195-6/31924 -- energy: -2.077207
   20    19     1     1     1
SMALL
USER_CHARGES


@<TRIPOS>ATOM
      1 S1          4.7020   -4.1010   -5.8281 S.3        1 <1>        0.000
      2 S2          3.0377   -3.9234   -6.9697 S.3        1 <1>        0.000
      3 C1          1.8989   -3.2427   -5.7753 C.2        1 <1>        0.000
      4 C2          1.0580   -2.2706   -6.1522 C.2        1 <1>        0.000
      5 N1          0.1047   -1.6587   -5.4062 N.am       1 <1>        0.000
      6 C9         -0.6344   -0.5665   -5.7096 C.2        1 <1>        0.000
      7 O1         -0.6695   -0.0123   -6.7962 O.2        1 <1>        0.000
      8 C20         5.3206   -2.4283   -5.8889 C.2        1 <1>        0.000
      9 C21         5.5257   -1.8591   -7.0866 C.2        1 <1>        0.000
     10 N5          5.9555   -0.6019   -7.3408 N.am       1 <1>        0.000
     11 C28         6.1601    0.4198   -6.4743 C.2        1 <1>        0.000
     12 O4          6.5553    1.5348   -6.7689 O.2        1 <1>        0.000
     13 H           1.8880   -3.6141   -4.7506 H.spc      1 <1>        0.000
     14 H           1.1511   -1.9300   -7.1834 H.spc      1 <1>        0.000
     15 H          -0.0797   -2.0778   -4.4947 H.spc      1 <1>        0.000
     16 H          -1.2512   -0.1458   -4.9154 H.spc      1 <1>        0.000
     17 H           5.5280   -1.8793   -4.9704 H.spc      1 <1>        0.000
     18 H           5.3221   -2.4830   -7.9569 H.spc      1 <1>        0.000
     19 H           6.1528   -0.3943   -8.3198 H.spc      1 <1>        0.000
     20 H           5.9531    0.2278   -5.4215 H.spc      1 <1>        0.000
@<TRIPOS>BOND
     1    6    7 2  
     2   10   11 am 
     3    9   10 1  
     4    8    9 2  
     5    5    6 am 
     6    4    5 1  
     7    1    2 1  
     8    1    8 1  
     9    2    3 1  
    10    3    4 2  
    11   11   12 2  
    12    3   13 1  
    13    4   14 1  
    14    5   15 1  
    15    6   16 1  
    16    8   17 1  
    17    9   18 1  
    18   10   19 1  
    19   11   20 1  
# Name:          frag3-195-6/31924 -- energy: -2.143271
# Creation time: Sat Jun  5 12:52:16 2010


@<TRIPOS>MOLECULE
frag3-195-6/31924 -- energy: -2.143271
   20    19     1     1     1
SMALL
USER_CHARGES


@<TRIPOS>ATOM
      1 S1          4.1930   -3.3679   -7.7952 S.3        1 <1>        0.000
      2 S2          2.7185   -4.4223   -6.8880 S.3        1 <1>        0.000
      3 C1          1.4607   -3.1561   -6.7532 C.2        1 <1>        0.000
      4 C2          1.0687   -2.7604   -5.5335 C.2        1 <1>        0.000
      5 N1          0.1646   -1.7954   -5.2285 N.am       1 <1>        0.000
      6 C9         -0.3104   -0.8039   -6.0185 C.2        1 <1>        0.000
      7 O1         -1.0461    0.0997   -5.6597 O.2        1 <1>        0.000
      8 C20         4.6065   -2.2040   -6.5007 C.2        1 <1>        0.000
      9 C21         5.5354   -1.2710   -6.7479 C.2        1 <1>        0.000
     10 N5          5.9610   -0.2901   -5.9137 N.am       1 <1>        0.000
     11 C28         6.9633    0.6039   -6.0933 C.2        1 <1>        0.000
     12 O4          7.6993    0.6576   -7.0646 O.2        1 <1>        0.000
     13 H           1.0209   -2.7142   -7.6473 H.spc      1 <1>        0.000
     14 H           1.5296   -3.2732   -4.6892 H.spc      1 <1>        0.000
     15 H          -0.2060   -1.8204   -4.2785 H.spc      1 <1>        0.000
     16 H          -0.0090   -0.8143   -7.0660 H.spc      1 <1>        0.000
     17 H           4.1124   -2.2531   -5.5303 H.spc      1 <1>        0.000
     18 H           6.0026   -1.3040   -7.7321 H.spc      1 <1>        0.000
     19 H           5.4575   -0.2150   -5.0298 H.spc      1 <1>        0.000
     20 H           7.1256    1.3370   -5.3031 H.spc      1 <1>        0.000
@<TRIPOS>BOND
     1    6    7 2  
     2   10   11 am 
     3    9   10 1  
     4    8    9 2  
     5    5    6 am 
     6    4    5 1  
     7    1    2 1  
     8    1    8 1  
     9    2    3 1  
    10    3    4 2  
    11   11   12 2  
    12    3   13 1  
    13    4   14 1  
    14    5   15 1  
    15    6   16 1  
    16    8   17 1  
    17    9   18 1  
    18   10   19 1  
    19   11   20 1  
# Name:          frag3-195-6/31924 -- energy: -2.341669
# Creation time: Sat Jun  5 12:52:16 2010


@<TRIPOS>MOLECULE
frag3-195-6/31924 -- energy: -2.341669
   20    19     1     1     1
SMALL
USER_CHARGES


@<TRIPOS>ATOM
      1 S1          2.9991   -3.9140   -5.1216 S.3        1 <1>        0.000
      2 S2          3.9674   -4.2006   -6.8787 S.3        1 <1>        0.000
      3 C1          5.3100   -3.0381   -6.6951 C.2        1 <1>        0.000
      4 C2          5.0523   -1.7246   -6.7837 C.2        1 <1>        0.000
      5 N1          5.9199   -0.6950   -6.6346 N.am       1 <1>        0.000
      6 C9          5.7156    0.6256   -6.8487 C.2        1 <1>        0.000
      7 O1          6.5442    1.5080   -6.7031 O.2        1 <1>        0.000
      8 C20         1.9822   -2.5059   -5.5312 C.2        1 <1>        0.000
      9 C21         0.7570   -2.7177   -6.0327 C.2        1 <1>        0.000
     10 N5         -0.1683   -1.7900   -6.3769 N.am       1 <1>        0.000
     11 C28        -0.0362   -0.4427   -6.4374 C.2        1 <1>        0.000
     12 O4          0.9712    0.1851   -6.1533 O.2        1 <1>        0.000
     13 H           6.3252   -3.3909   -6.5135 H.spc      1 <1>        0.000
     14 H           4.0196   -1.4528   -7.0022 H.spc      1 <1>        0.000
     15 H           6.8552   -0.9500   -6.3176 H.spc      1 <1>        0.000
     16 H           4.7221    0.9271   -7.1808 H.spc      1 <1>        0.000
     17 H           2.3506   -1.4918   -5.3764 H.spc      1 <1>        0.000
     18 H           0.4717   -3.7592   -6.1810 H.spc      1 <1>        0.000
     19 H          -1.0883   -2.1548   -6.6238 H.spc      1 <1>        0.000
     20 H          -0.9034    0.1290   -6.7679 H.spc      1 <1>        0.000
@<TRIPOS>BOND
     1    6    7 2  
     2   10   11 am 
     3    9   10 1  
     4    8    9 2  
     5    5    6 am 
     6    4    5 1  
     7    1    2 1  
     8    1    8 1  
     9    2    3 1  
    10    3    4 2  
    11   11   12 2  
    12    3   13 1  
    13    4   14 1  
    14    5   15 1  
    15    6   16 1  
    16    8   17 1  
    17    9   18 1  
    18   10   19 1  
    19   11   20 1  
# Name:          frag3-195-6/31924 -- energy: -1.578735
# Creation time: Sat Jun  5 12:52:16 2010


@<TRIPOS>MOLECULE
frag3-195-6/31924 -- energy: -1.578735
   20    19     1     1     1
SMALL
USER_CHARGES


@<TRIPOS>ATOM
      1 S1          4.1304   -1.9749   -5.8302 S.3        1 <1>        0.000
      2 S2          2.4964   -1.9154   -7.0301 S.3        1 <1>        0.000
      3 C1          1.2221   -1.5923   -5.8135 C.2        1 <1>        0.000
      4 C2         -0.0109   -2.0727   -6.0289 C.2        1 <1>        0.000
      5 N1         -1.0923   -1.9673   -5.2134 N.am       1 <1>        0.000
      6 C9         -2.3404   -2.4569   -5.4001 C.2        1 <1>        0.000
      7 O1         -2.7058   -3.1216   -6.3551 O.2        1 <1>        0.000
      8 C20         5.1761   -0.7713   -6.6451 C.2        1 <1>        0.000
      9 C21         6.4997   -0.9807   -6.6609 C.2        1 <1>        0.000
     10 N5          7.4473   -0.2080   -7.2490 N.am       1 <1>        0.000
     11 C28         8.7936   -0.3621   -7.2436 C.2        1 <1>        0.000
     12 O4          9.3985   -1.2867   -6.7270 O.2        1 <1>        0.000
     13 H           1.4448   -1.0162   -4.9154 H.spc      1 <1>        0.000
     14 H          -0.1631   -2.6092   -6.9654 H.spc      1 <1>        0.000
     15 H          -0.9442   -1.4512   -4.3461 H.spc      1 <1>        0.000
     16 H          -3.0819   -2.2385   -4.6316 H.spc      1 <1>        0.000
     17 H           4.7459    0.1117   -7.1176 H.spc      1 <1>        0.000
     18 H           6.8548   -1.8718   -6.1432 H.spc      1 <1>        0.000
     19 H           7.0986    0.5993   -7.7659 H.spc      1 <1>        0.000
     20 H           9.3858    0.4048   -7.7429 H.spc      1 <1>        0.000
@<TRIPOS>BOND
     1    6    7 2  
     2   10   11 am 
     3    9   10 1  
     4    8    9 2  
     5    5    6 am 
     6    4    5 1  
     7    1    2 1  
     8    1    8 1  
     9    2    3 1  
    10    3    4 2  
    11   11   12 2  
    12    3   13 1  
    13    4   14 1  
    14    5   15 1  
    15    6   16 1  
    16    8   17 1  
    17    9   18 1  
    18   10   19 1  
    19   11   20 1  
# Name:          frag3-195-6/31924 -- energy: -1.629100
# Creation time: Sat Jun  5 12:52:16 2010


@<TRIPOS>MOLECULE
frag3-195-6/31924 -- energy: -1.629100
   20    19     1     1     1
SMALL
USER_CHARGES


@<TRIPOS>ATOM
      1 S1          2.7913   -3.5186   -5.8194 S.3        1 <1>        0.000
      2 S2          4.3461   -3.2389   -7.0898 S.3        1 <1>        0.000
      3 C1          5.4281   -2.2558   -6.0578 C.2        1 <1>        0.000
      4 C2          6.1273   -1.2591   -6.6185 C.2        1 <1>        0.000
      5 N1          6.9641   -0.3860   -6.0007 N.am       1 <1>        0.000
      6 C9          7.8431    0.4789   -6.5588 C.2        1 <1>        0.000
      7 O1          8.0675    0.5906   -7.7526 O.2        1 <1>        0.000
      8 C20         1.4628   -2.7751   -6.7589 C.2        1 <1>        0.000
      9 C21         0.4333   -2.2315   -6.0958 C.2        1 <1>        0.000
     10 N5         -0.6446   -1.5992   -6.6230 N.am       1 <1>        0.000
     11 C28        -1.7880   -1.2114   -6.0082 C.2        1 <1>        0.000
     12 O4         -2.0166   -1.3038   -4.8135 O.2        1 <1>        0.000
     13 H           5.5171   -2.4639   -4.9916 H.spc      1 <1>        0.000
     14 H           6.0107   -1.1350   -7.6951 H.spc      1 <1>        0.000
     15 H           6.9251   -0.3814   -4.9815 H.spc      1 <1>        0.000
     16 H           8.3976    1.1311   -5.8841 H.spc      1 <1>        0.000
     17 H           1.4903   -2.7646   -7.8485 H.spc      1 <1>        0.000
     18 H           0.4657   -2.3059   -5.0088 H.spc      1 <1>        0.000
     19 H          -0.5865   -1.3865   -7.6189 H.spc      1 <1>        0.000
     20 H          -2.5696   -0.7805   -6.6339 H.spc      1 <1>        0.000
@<TRIPOS>BOND
     1    6    7 2  
     2   10   11 am 
     3    9   10 1  
     4    8    9 2  
     5    5    6 am 
     6    4    5 1  
     7    1    2 1  
     8    1    8 1  
     9    2    3 1  
    10    3    4 2  
    11   11   12 2  
    12    3   13 1  
    13    4   14 1  
    14    5   15 1  
    15    6   16 1  
    16    8   17 1  
    17    9   18 1  
    18   10   19 1  
    19   11   20 1  
# Name:          frag3-195-6/31924 -- energy: -2.514285
# Creation time: Sat Jun  5 12:52:16 2010


@<TRIPOS>MOLECULE
frag3-195-6/31924 -- energy: -2.514285
   20    19     1     1     1
SMALL
USER_CHARGES


@<TRIPOS>ATOM
      1 S1          4.3335   -4.0842   -5.8477 S.3        1 <1>        0.000
      2 S2          3.1306   -3.9858   -7.4754 S.3        1 <1>        0.000
      3 C1          2.1193   -2.5827   -7.0455 C.2        1 <1>        0.000
      4 C2          1.1897   -2.7168   -6.0869 C.2        1 <1>        0.000
      5 N1          0.3591   -1.7679   -5.5960 N.am       1 <1>        0.000
      6 C9          0.1625   -0.5040   -6.0396 C.2        1 <1>        0.000
      7 O1         -0.5967    0.3145   -5.5506 O.2        1 <1>        0.000
      8 C20         5.6388   -2.9740   -6.3361 C.2        1 <1>        0.000
      9 C21         5.4034   -1.6540   -6.3420 C.2        1 <1>        0.000
     10 N5          6.2652   -0.6574   -6.6530 N.am       1 <1>        0.000
     11 C28         6.0406    0.6770   -6.7113 C.2        1 <1>        0.000
     12 O4          4.9683    1.2255   -6.5128 O.2        1 <1>        0.000
     13 H           2.2540   -1.6283   -7.5544 H.spc      1 <1>        0.000
     14 H           1.0918   -3.7109   -5.6507 H.spc      1 <1>        0.000
     15 H          -0.1927   -2.0415   -4.7830 H.spc      1 <1>        0.000
     16 H           0.7347   -0.1902   -6.9127 H.spc      1 <1>        0.000
     17 H           6.6151   -3.3625   -6.6260 H.spc      1 <1>        0.000
     18 H           4.3959   -1.3460   -6.0625 H.spc      1 <1>        0.000
     19 H           7.2162   -0.9525   -6.8742 H.spc      1 <1>        0.000
     20 H           6.8895    1.3153   -6.9563 H.spc      1 <1>        0.000
@<TRIPOS>BOND
     1    6    7 2  
     2   10   11 am 
     3    9   10 1  
     4    8    9 2  
     5    5    6 am 
     6    4    5 1  
     7    1    2 1  
     8    1    8 1  
     9    2    3 1  
    10    3    4 2  
    11   11   12 2  
    12    3   13 1  
    13    4   14 1  
    14    5   15 1  
    15    6   16 1  
    16    8   17 1  
    17    9   18 1  
    18   10   19 1  
    19   11   20 1  
# Name:          frag3-195-6/31924 -- energy: -1.828873
# Creation time: Sat Jun  5 12:52:16 2010


@<TRIPOS>MOLECULE
frag3-195-6/31924 -- energy: -1.828873
   20    19     1     1     1
SMALL
USER_CHARGES


@<TRIPOS>ATOM
      1 S1          2.5298   -4.3459   -6.5436 S.3        1 <1>        0.000
      2 S2          4.1632   -3.6614   -7.5287 S.3        1 <1>        0.000
      3 C1          4.8445   -2.5638   -6.2905 C.2        1 <1>        0.000
      4 C2          5.3932   -1.4055   -6.6824 C.2        1 <1>        0.000
      5 N1          5.9232   -0.4326   -5.8976 N.am       1 <1>        0.000
      6 C9          6.6731    0.6328   -6.2645 C.2        1 <1>        0.000
      7 O1          7.0464    0.8807   -7.3990 O.2        1 <1>        0.000
      8 C20         1.5631   -2.8452   -6.4309 C.2        1 <1>        0.000
      9 C21         0.7229   -2.6968   -5.3978 C.2        1 <1>        0.000
     10 N5         -0.0652   -1.6282   -5.1228 N.am       1 <1>        0.000
     11 C28        -0.1714   -0.4565   -5.7955 C.2        1 <1>        0.000
     12 O4          0.3919   -0.1874   -6.8436 O.2        1 <1>        0.000
     13 H           4.8138   -2.8329   -5.2347 H.spc      1 <1>        0.000
     14 H           5.4167   -1.2233   -7.7568 H.spc      1 <1>        0.000
     15 H           5.7308   -0.5155   -4.8994 H.spc      1 <1>        0.000
     16 H           6.9686    1.3286   -5.4792 H.spc      1 <1>        0.000
     17 H           1.6557   -2.0665   -7.1880 H.spc      1 <1>        0.000
     18 H           0.6664   -3.5307   -4.6982 H.spc      1 <1>        0.000
     19 H          -0.6584   -1.7184   -4.2980 H.spc      1 <1>        0.000
     20 H          -0.8145    0.3103   -5.3635 H.spc      1 <1>        0.000
@<TRIPOS>BOND
     1    6    7 2  
     2   10   11 am 
     3    9   10 1  
     4    8    9 2  
     5    5    6 am 
     6    4    5 1  
     7    1    2 1  
     8    1    8 1  
     9    2    3 1  
    10    3    4 2  
    11   11   12 2  
    12    3   13 1  
    13    4   14 1  
    14    5   15 1  
    15    6   16 1  
    16    8   17 1  
    17    9   18 1  
    18   10   19 1  
    19   11   20 1  
# Name:          frag3-195-6/31924 -- energy: -2.287565
# Creation time: Sat Jun  5 12:52:16 2010


@<TRIPOS>MOLECULE
frag3-195-6/31924 -- energy: -2.287565
   20    19     1     1     1
SMALL
USER_CHARGES


@<TRIPOS>ATOM
      1 S1          3.1596   -3.6357   -4.8897 S.3        1 <1>        0.000
      2 S2          4.0253   -3.9646   -6.6939 S.3        1 <1>        0.000
      3 C1          5.5346   -3.0225   -6.4964 C.2        1 <1>        0.000
      4 C2          5.5491   -1.7376   -6.8799 C.2        1 <1>        0.000
      5 N1          6.5762   -0.8552   -6.7766 N.am       1 <1>        0.000
      6 C9          6.5734    0.4756   -7.0237 C.2        1 <1>        0.000
      7 O1          5.5801    1.1658   -7.1805 O.2        1 <1>        0.000
      8 C20         2.4395   -2.0205   -5.1639 C.2        1 <1>        0.000
      9 C21         1.1898   -1.9495   -5.6435 C.2        1 <1>        0.000
     10 N5          0.4644   -0.8300   -5.8888 N.am       1 <1>        0.000
     11 C28        -0.7207   -0.7090   -6.5344 C.2        1 <1>        0.000
     12 O4         -1.3569   -1.6266   -7.0255 O.2        1 <1>        0.000
     13 H           6.4258   -3.4849   -6.0721 H.spc      1 <1>        0.000
     14 H           4.6302   -1.3574   -7.3262 H.spc      1 <1>        0.000
     15 H           7.4675   -1.2471   -6.4726 H.spc      1 <1>        0.000
     16 H           7.5413    0.9728   -7.0880 H.spc      1 <1>        0.000
     17 H           3.0047   -1.1144   -4.9457 H.spc      1 <1>        0.000
     18 H           0.7011   -2.8992   -5.8610 H.spc      1 <1>        0.000
     19 H           0.8661    0.0400   -5.5394 H.spc      1 <1>        0.000
     20 H          -1.1410    0.2928   -6.6223 H.spc      1 <1>        0.000
@<TRIPOS>BOND
     1    6    7 2  
     2   10   11 am 
     3    9   10 1  
     4    8    9 2  
     5    5    6 am 
     6    4    5 1  
     7    1    2 1  
     8    1    8 1  
     9    2    3 1  
    10    3    4 2  
    11   11   12 2  
    12    3   13 1  
    13    4   14 1  
    14    5   15 1  
    15    6   16 1  
    16    8   17 1  
    17    9   18 1  
    18   10   19 1  
    19   11   20 1  
# Name:          frag3-195-6/31924 -- energy: -1.691086
# Creation time: Sat Jun  5 12:52:16 2010


@<TRIPOS>MOLECULE
frag3-195-6/31924 -- energy: -1.691086
   20    19     1     1     1
SMALL
USER_CHARGES


@<TRIPOS>ATOM
      1 S1          4.0053   -2.8817   -6.9511 S.3        1 <1>        0.000
      2 S2          2.9931   -2.6910   -5.2109 S.3        1 <1>        0.000
      3 C1          1.3397   -2.4243   -5.8180 C.2        1 <1>        0.000
      4 C2          0.3423   -2.2268   -4.9465 C.2        1 <1>        0.000
      5 N1         -0.9600   -1.9743   -5.2160 N.am       1 <1>        0.000
      6 C9         -1.5630   -1.8354   -6.4202 C.2        1 <1>        0.000
      7 O1         -2.6752   -1.3755   -6.6128 O.2        1 <1>        0.000
      8 C20         5.2838   -1.6610   -6.7351 C.2        1 <1>        0.000
      9 C21         6.4212   -1.7770   -7.4317 C.2        1 <1>        0.000
     10 N5          7.4857   -0.9434   -7.4244 N.am       1 <1>        0.000
     11 C28         7.6555    0.2160   -6.7438 C.2        1 <1>        0.000
     12 O4          8.6861    0.8645   -6.6863 O.2        1 <1>        0.000
     13 H           1.1415   -2.4219   -6.8898 H.spc      1 <1>        0.000
     14 H           0.6120   -2.2753   -3.8915 H.spc      1 <1>        0.000
     15 H          -1.5683   -1.8755   -4.4032 H.spc      1 <1>        0.000
     16 H          -1.0037   -2.1644   -7.2960 H.spc      1 <1>        0.000
     17 H           5.1421   -0.8298   -6.0444 H.spc      1 <1>        0.000
     18 H           6.4983   -2.6478   -8.0827 H.spc      1 <1>        0.000
     19 H           8.2695   -1.2264   -8.0126 H.spc      1 <1>        0.000
     20 H           6.7941    0.6031   -6.1995 H.spc      1 <1>        0.000
@<TRIPOS>BOND
     1    6    7 2  
     2   10   11 am 
     3    9   10 1  
     4    8    9 2  
     5    5    6 am 
     6    4    5 1  
     7    1    2 1  
     8    1    8 1  
     9    2    3 1  
    10    3    4 2  
    11   11   12 2  
    12    3   13 1  
    13    4   14 1  
    14    5   15 1  
    15    6   16 1  
    16    8   17 1  
    17    9   18 1  
    18   10   19 1  
    19   11   20 1  
# Name:          frag3-195-6/31924 -- energy: -1.840257
# Creation time: Sat Jun  5 12:52:16 2010


@<TRIPOS>MOLECULE
frag3-195-6/31924 -- energy: -1.840257
   20    19     1     1     1
SMALL
USER_CHARGES


@<TRIPOS>ATOM
      1 S1          3.9273   -0.9585   -4.8219 S.3        1 <1>        0.000
      2 S2          2.8406   -0.5636   -6.4848 S.3        1 <1>        0.000
      3 C1          1.4171   -1.5991   -6.1955 C.2        1 <1>        0.000
      4 C2          0.1976   -1.1331   -6.4975 C.2        1 <1>        0.000
      5 N1         -0.9889   -1.7766   -6.3828 N.am       1 <1>        0.000
      6 C9         -1.2392   -3.0023   -5.8653 C.2        1 <1>        0.000
      7 O1         -2.3339   -3.5321   -5.7845 O.2        1 <1>        0.000
      8 C20         5.2687   -1.9031   -5.5216 C.2        1 <1>        0.000
      9 C21         6.1705   -1.2731   -6.2886 C.2        1 <1>        0.000
     10 N5          7.2669   -1.8021   -6.8826 N.am       1 <1>        0.000
     11 C28         8.2269   -1.1795   -7.6078 C.2        1 <1>        0.000
     12 O4          8.2609    0.0131   -7.8640 O.2        1 <1>        0.000
     13 H           1.5378   -2.5988   -5.7781 H.spc      1 <1>        0.000
     14 H           0.1552   -0.1139   -6.8816 H.spc      1 <1>        0.000
     15 H          -1.8021   -1.2702   -6.7330 H.spc      1 <1>        0.000
     16 H          -0.3859   -3.5654   -5.4873 H.spc      1 <1>        0.000
     17 H           5.3539   -2.9726   -5.3294 H.spc      1 <1>        0.000
     18 H           6.0011   -0.2091   -6.4536 H.spc      1 <1>        0.000
     19 H           7.3862   -2.8086   -6.7680 H.spc      1 <1>        0.000
     20 H           9.0378   -1.7962   -7.9954 H.spc      1 <1>        0.000
@<TRIPOS>BOND
     1    6    7 2  
     2   10   11 am 
     3    9   10 1  
     4    8    9 2  
     5    5    6 am 
     6    4    5 1  
     7    1    2 1  
     8    1    8 1  
     9    2    3 1  
    10    3    4 2  
    11   11   12 2  
    12    3   13 1  
    13    4   14 1  
    14    5   15 1  
    15    6   16 1  
    16    8   17 1  
    17    9   18 1  
    18   10   19 1  
    19   11   20 1  
# Name:          frag3-195-6/31924 -- energy: -2.009803
# Creation time: Sat Jun  5 12:52:16 2010


@<TRIPOS>MOLECULE
frag3-195-6/31924 -- energy: -2.009803
   20    19     1     1     1
SMALL
USER_CHARGES


@<TRIPOS>ATOM
      1 S1          2.9008   -3.5062   -7.0143 S.3        1 <1>        0.000
      2 S2          3.9237   -3.4081   -5.2676 S.3        1 <1>        0.000
      3 C1          4.6581   -1.7875   -5.4170 C.2        1 <1>        0.000
      4 C2          5.6686   -1.6091   -6.2810 C.2        1 <1>        0.000
      5 N1          6.3262   -0.4592   -6.5653 N.am       1 <1>        0.000
      6 C9          7.4291   -0.2782   -7.3285 C.2        1 <1>        0.000
      7 O1          7.9816    0.7875   -7.5414 O.2        1 <1>        0.000
      8 C20         1.3422   -2.7894   -6.5225 C.2        1 <1>        0.000
      9 C21         1.1398   -1.4791   -6.7208 C.2        1 <1>        0.000
     10 N5          0.0238   -0.7627   -6.4433 N.am       1 <1>        0.000
     11 C28        -1.0893   -1.1519   -5.7756 C.2        1 <1>        0.000
     12 O4         -1.2902   -2.2661   -5.3197 O.2        1 <1>        0.000
     13 H           4.2910   -0.9560   -4.8154 H.spc      1 <1>        0.000
     14 H           6.0008   -2.4967   -6.8195 H.spc      1 <1>        0.000
     15 H           5.9368    0.3856   -6.1469 H.spc      1 <1>        0.000
     16 H           7.8617   -1.1637   -7.7941 H.spc      1 <1>        0.000
     17 H           0.5674   -3.4070   -6.0682 H.spc      1 <1>        0.000
     18 H           1.9710   -0.9248   -7.1566 H.spc      1 <1>        0.000
     19 H           0.0211    0.1992   -6.7827 H.spc      1 <1>        0.000
     20 H          -1.8718   -0.4065   -5.6336 H.spc      1 <1>        0.000
@<TRIPOS>BOND
     1    6    7 2  
     2   10   11 am 
     3    9   10 1  
     4    8    9 2  
     5    5    6 am 
     6    4    5 1  
     7    1    2 1  
     8    1    8 1  
     9    2    3 1  
    10    3    4 2  
    11   11   12 2  
    12    3   13 1  
    13    4   14 1  
    14    5   15 1  
    15    6   16 1  
    16    8   17 1  
    17    9   18 1  
    18   10   19 1  
    19   11   20 1  
# Name:          frag3-195-6/31924 -- energy: -1.691069
# Creation time: Sat Jun  5 12:52:16 2010


@<TRIPOS>MOLECULE
frag3-195-6/31924 -- energy: -1.691069
   20    19     1     1     1
SMALL
USER_CHARGES


@<TRIPOS>ATOM
      1 S1          4.7361   -3.6952   -5.8843 S.3        1 <1>        0.000
      2 S2          3.0378   -3.6709   -6.9874 S.3        1 <1>        0.000
      3 C1          1.8669   -3.1054   -5.7626 C.2        1 <1>        0.000
      4 C2          0.8643   -2.3013   -6.1401 C.2        1 <1>        0.000
      5 N1         -0.1360   -1.8025   -5.3710 N.am       1 <1>        0.000
      6 C9         -1.0826   -0.8934   -5.7011 C.2        1 <1>        0.000
      7 O1         -1.0878   -0.2088   -6.7111 O.2        1 <1>        0.000
      8 C20         5.3216   -2.0286   -6.1439 C.2        1 <1>        0.000
      9 C21         6.4118   -1.8377   -6.8998 C.2        1 <1>        0.000
     10 N5          6.9874   -0.6585   -7.2384 N.am       1 <1>        0.000
     11 C28         6.5478    0.6002   -6.9959 C.2        1 <1>        0.000
     12 O4          5.5472    0.8923   -6.3613 O.2        1 <1>        0.000
     13 H           1.9670   -3.4108   -4.7211 H.spc      1 <1>        0.000
     14 H           0.8504   -2.0131   -7.1912 H.spc      1 <1>        0.000
     15 H          -0.1805   -2.1604   -4.4169 H.spc      1 <1>        0.000
     16 H          -1.9112   -0.7615   -5.0053 H.spc      1 <1>        0.000
     17 H           4.8019   -1.1818   -5.6958 H.spc      1 <1>        0.000
     18 H           6.8917   -2.7362   -7.2877 H.spc      1 <1>        0.000
     19 H           7.8706   -0.7277   -7.7439 H.spc      1 <1>        0.000
     20 H           7.1381    1.4215   -7.4022 H.spc      1 <1>        0.000
@<TRIPOS>BOND
     1    6    7 2  
     2   10   11 am 
     3    9   10 1  
     4    8    9 2  
     5    5    6 am 
     6    4    5 1  
     7    1    2 1  
     8    1    8 1  
     9    2    3 1  
    10    3    4 2  
    11   11   12 2  
    12    3   13 1  
    13    4   14 1  
    14    5   15 1  
    15    6   16 1  
    16    8   17 1  
    17    9   18 1  
    18   10   19 1  
    19   11   20 1  
# Name:          frag3-195-6/31924 -- energy: -1.889884
# Creation time: Sat Jun  5 12:52:17 2010


@<TRIPOS>MOLECULE
frag3-195-6/31924 -- energy: -1.889884
   20    19     1     1     1
SMALL
USER_CHARGES


@<TRIPOS>ATOM
      1 S1          3.2916   -3.4648   -5.5713 S.3        1 <1>        0.000
      2 S2          4.2508   -3.3679   -7.3492 S.3        1 <1>        0.000
      3 C1          5.1595   -1.8497   -7.1441 C.2        1 <1>        0.000
      4 C2          6.4645   -1.9020   -6.8399 C.2        1 <1>        0.000
      5 N1          7.3263   -0.8688   -6.6784 N.am       1 <1>        0.000
      6 C9          7.0566    0.4579   -6.6769 C.2        1 <1>        0.000
      7 O1          5.9499    0.9586   -6.5549 O.2        1 <1>        0.000
      8 C20         1.8881   -2.4165   -5.8913 C.2        1 <1>        0.000
      9 C21         0.6742   -2.8062   -5.4820 C.2        1 <1>        0.000
     10 N5         -0.4960   -2.1424   -5.6072 N.am       1 <1>        0.000
     11 C28        -0.7321   -0.9268   -6.1577 C.2        1 <1>        0.000
     12 O4         -1.8188   -0.3813   -6.2439 O.2        1 <1>        0.000
     13 H           4.6601   -0.8883   -7.2646 H.spc      1 <1>        0.000
     14 H           6.8840   -2.8991   -6.7060 H.spc      1 <1>        0.000
     15 H           8.3043   -1.1235   -6.5401 H.spc      1 <1>        0.000
     16 H           7.9004    1.1377   -6.7948 H.spc      1 <1>        0.000
     17 H           2.0157   -1.4687   -6.4142 H.spc      1 <1>        0.000
     18 H           0.6240   -3.7765   -4.9879 H.spc      1 <1>        0.000
     19 H          -1.3155   -2.6230   -5.2358 H.spc      1 <1>        0.000
     20 H           0.1265   -0.3887   -6.5593 H.spc      1 <1>        0.000
@<TRIPOS>BOND
     1    6    7 2  
     2   10   11 am 
     3    9   10 1  
     4    8    9 2  
     5    5    6 am 
     6    4    5 1  
     7    1    2 1  
     8    1    8 1  
     9    2    3 1  
    10    3    4 2  
    11   11   12 2  
    12    3   13 1  
    13    4   14 1  
    14    5   15 1  
    15    6   16 1  
    16    8   17 1  
    17    9   18 1  
    18   10   19 1  
    19   11   20 1  
# Name:          frag3-195-6/31924 -- energy: -2.351992
# Creation time: Sat Jun  5 12:52:17 2010


@<TRIPOS>MOLECULE
frag3-195-6/31924 -- energy: -2.351992
   20    19     1     1     1
SMALL
USER_CHARGES


@<TRIPOS>ATOM
      1 S1          2.6850   -4.2931   -5.4334 S.3        1 <1>        0.000
      2 S2          4.2701   -4.4155   -6.6893 S.3        1 <1>        0.000
      3 C1          5.2121   -2.9945   -6.1509 C.2        1 <1>        0.000
      4 C2          5.0053   -1.8126   -6.7497 C.2        1 <1>        0.000
      5 N1          5.5868   -0.6226   -6.4600 N.am       1 <1>        0.000
      6 C9          5.4966    0.5501   -7.1295 C.2        1 <1>        0.000
      7 O1          6.0922    1.5768   -6.8504 O.2        1 <1>        0.000
      8 C20         1.9264   -2.7799   -6.0064 C.2        1 <1>        0.000
      9 C21         0.7653   -2.3927   -5.4627 C.2        1 <1>        0.000
     10 N5          0.0562   -1.2713   -5.7399 N.am       1 <1>        0.000
     11 C28         0.4217   -0.1985   -6.4829 C.2        1 <1>        0.000
     12 O4          1.4970   -0.0561   -7.0419 O.2        1 <1>        0.000
     13 H           5.9435   -3.0875   -5.3480 H.spc      1 <1>        0.000
     14 H           4.2837   -1.8081   -7.5667 H.spc      1 <1>        0.000
     15 H           6.1714   -0.6094   -5.6243 H.spc      1 <1>        0.000
     16 H           4.8334    0.5794   -7.9940 H.spc      1 <1>        0.000
     17 H           2.4005   -2.1823   -6.7850 H.spc      1 <1>        0.000
     18 H           0.3411   -3.0567   -4.7095 H.spc      1 <1>        0.000
     19 H          -0.8788   -1.2292   -5.3345 H.spc      1 <1>        0.000
     20 H          -0.3066    0.6053   -6.5903 H.spc      1 <1>        0.000
@<TRIPOS>BOND
     1    6    7 2  
     2   10   11 am 
     3    9   10 1  
     4    8    9 2  
     5    5    6 am 
     6    4    5 1  
     7    1    2 1  
     8    1    8 1  
     9    2    3 1  
    10    3    4 2  
    11   11   12 2  
    12    3   13 1  
    13    4   14 1  
    14    5   15 1  
    15    6   16 1  
    16    8   17 1  
    17    9   18 1  
    18   10   19 1  
    19   11   20 1  
# Name:          frag3-195-6/31924 -- energy: -1.943102
# Creation time: Sat Jun  5 12:52:17 2010


@<TRIPOS>MOLECULE
frag3-195-6/31924 -- energy: -1.943102
   20    19     1     1     1
SMALL
USER_CHARGES


@<TRIPOS>ATOM
      1 S1          4.0482   -3.9443   -6.9974 S.3        1 <1>        0.000
      2 S2          2.9070   -3.8845   -5.3276 S.3        1 <1>        0.000
      3 C1          1.6246   -2.7614   -5.8527 C.2        1 <1>        0.000
      4 C2          0.9971   -2.0067   -4.9412 C.2        1 <1>        0.000
      5 N1          0.0325   -1.0771   -5.1493 N.am       1 <1>        0.000
      6 C9         -0.4997   -0.6665   -6.3245 C.2        1 <1>        0.000
      7 O1         -0.1336   -1.0219   -7.4334 O.2        1 <1>        0.000
      8 C20         4.6620   -2.2703   -7.0383 C.2        1 <1>        0.000
      9 C21         5.9471   -2.0421   -6.7351 C.2        1 <1>        0.000
     10 N5          6.5998   -0.8579   -6.7355 N.am       1 <1>        0.000
     11 C28         6.0905    0.3960   -6.8020 C.2        1 <1>        0.000
     12 O4          6.7390    1.4267   -6.8598 O.2        1 <1>        0.000
     13 H           1.3539   -2.6899   -6.9061 H.spc      1 <1>        0.000
     14 H           1.2991   -2.1586   -3.9049 H.spc      1 <1>        0.000
     15 H          -0.3405   -0.6291   -4.3123 H.spc      1 <1>        0.000
     16 H          -1.3262    0.0425   -6.2763 H.spc      1 <1>        0.000
     17 H           4.0018   -1.4453   -7.3059 H.spc      1 <1>        0.000
     18 H           6.5365   -2.9151   -6.4547 H.spc      1 <1>        0.000
     19 H           7.6165   -0.9166   -6.6777 H.spc      1 <1>        0.000
     20 H           5.0047    0.4916   -6.8040 H.spc      1 <1>        0.000
@<TRIPOS>BOND
     1    6    7 2  
     2   10   11 am 
     3    9   10 1  
     4    8    9 2  
     5    5    6 am 
     6    4    5 1  
     7    1    2 1  
     8    1    8 1  
     9    2    3 1  
    10    3    4 2  
    11   11   12 2  
    12    3   13 1  
    13    4   14 1  
    14    5   15 1  
    15    6   16 1  
    16    8   17 1  
    17    9   18 1  
    18   10   19 1  
    19   11   20 1  
# Name:          frag3-195-6/31924 -- energy: -2.815237
# Creation time: Sat Jun  5 12:52:17 2010


@<TRIPOS>MOLECULE
frag3-195-6/31924 -- energy: -2.815237
   20    19     1     1     1
SMALL
USER_CHARGES


@<TRIPOS>ATOM
      1 S1          2.9164   -4.0415   -5.1142 S.3        1 <1>        0.000
      2 S2          4.0980   -4.2916   -6.7401 S.3        1 <1>        0.000
      3 C1          5.3638   -3.0811   -6.4103 C.2        1 <1>        0.000
      4 C2          5.1450   -1.7975   -6.7308 C.2        1 <1>        0.000
      5 N1          5.9599   -0.7345   -6.5241 N.am       1 <1>        0.000
      6 C9          5.7361    0.5703   -6.8035 C.2        1 <1>        0.000
      7 O1          4.6741    1.0461   -7.1720 O.2        1 <1>        0.000
      8 C20         1.7961   -2.7893   -5.7054 C.2        1 <1>        0.000
      9 C21         2.0741   -1.4993   -5.4687 C.2        1 <1>        0.000
     10 N5          1.3707   -0.4117   -5.8623 N.am       1 <1>        0.000
     11 C28         0.2453   -0.3580   -6.6152 C.2        1 <1>        0.000
     12 O4         -0.3650   -1.3218   -7.0502 O.2        1 <1>        0.000
     13 H           6.3065   -3.3811   -5.9526 H.spc      1 <1>        0.000
     14 H           4.1939   -1.5824   -7.2179 H.spc      1 <1>        0.000
     15 H           6.8634   -0.9466   -6.1010 H.spc      1 <1>        0.000
     16 H           6.5762    1.2554   -6.6898 H.spc      1 <1>        0.000
     17 H           0.8958   -3.0683   -6.2528 H.spc      1 <1>        0.000
     18 H           2.9759   -1.3023   -4.8890 H.spc      1 <1>        0.000
     19 H           1.7368    0.4878   -5.5504 H.spc      1 <1>        0.000
     20 H          -0.1488    0.6301   -6.8528 H.spc      1 <1>        0.000
@<TRIPOS>BOND
     1    6    7 2  
     2   10   11 am 
     3    9   10 1  
     4    8    9 2  
     5    5    6 am 
     6    4    5 1  
     7    1    2 1  
     8    1    8 1  
     9    2    3 1  
    10    3    4 2  
    11   11   12 2  
    12    3   13 1  
    13    4   14 1  
    14    5   15 1  
    15    6   16 1  
    16    8   17 1  
    17    9   18 1  
    18   10   19 1  
    19   11   20 1  
# Name:          frag3-195-6/31924 -- energy: -2.020192
# Creation time: Sat Jun  5 12:52:17 2010


@<TRIPOS>MOLECULE
frag3-195-6/31924 -- energy: -2.020192
   20    19     1     1     1
SMALL
USER_CHARGES


@<TRIPOS>ATOM
      1 S1          2.5028   -4.3327   -5.7721 S.3        1 <1>        0.000
      2 S2          3.9160   -3.7920   -7.1205 S.3        1 <1>        0.000
      3 C1          4.4761   -2.2546   -6.3965 C.2        1 <1>        0.000
      4 C2          5.5074   -1.6105   -6.9596 C.2        1 <1>        0.000
      5 N1          6.0489   -0.4247   -6.5830 N.am       1 <1>        0.000
      6 C9          7.1850    0.1646   -7.0234 C.2        1 <1>        0.000
      7 O1          7.5368    1.3053   -6.7747 O.2        1 <1>        0.000
      8 C20         1.2954   -3.0384   -6.0289 C.2        1 <1>        0.000
      9 C21         1.1180   -2.1236   -5.0653 C.2        1 <1>        0.000
     10 N5          0.2810   -1.0571   -5.0851 N.am       1 <1>        0.000
     11 C28        -0.4284   -0.5541   -6.1246 C.2        1 <1>        0.000
     12 O4         -0.4246   -0.9921   -7.2632 O.2        1 <1>        0.000
     13 H           3.9862   -1.8485   -5.5115 H.spc      1 <1>        0.000
     14 H           5.9651   -2.0962   -7.8214 H.spc      1 <1>        0.000
     15 H           5.5302    0.0919   -5.8727 H.spc      1 <1>        0.000
     16 H           7.8426   -0.4324   -7.6553 H.spc      1 <1>        0.000
     17 H           0.7153   -2.9944   -6.9507 H.spc      1 <1>        0.000
     18 H           1.7150   -2.2518   -4.1624 H.spc      1 <1>        0.000
     19 H           0.1702   -0.5670   -4.1975 H.spc      1 <1>        0.000
     20 H          -1.0553    0.3153   -5.9266 H.spc      1 <1>        0.000
@<TRIPOS>BOND
     1    6    7 2  
     2   10   11 am 
     3    9   10 1  
     4    8    9 2  
     5    5    6 am 
     6    4    5 1  
     7    1    2 1  
     8    1    8 1  
     9    2    3 1  
    10    3    4 2  
    11   11   12 2  
    12    3   13 1  
    13    4   14 1  
    14    5   15 1  
    15    6   16 1  
    16    8   17 1  
    17    9   18 1  
    18   10   19 1  
    19   11   20 1  
# Name:          frag3-195-6/31924 -- energy: -1.920315
# Creation time: Sat Jun  5 12:52:17 2010


@<TRIPOS>MOLECULE
frag3-195-6/31924 -- energy: -1.920315
   20    19     1     1     1
SMALL
USER_CHARGES


@<TRIPOS>ATOM
      1 S1          3.4345   -2.6275   -5.0847 S.3        1 <1>        0.000
      2 S2          4.4337   -3.8531   -6.3542 S.3        1 <1>        0.000
      3 C1          6.0054   -3.0030   -6.4437 C.2        1 <1>        0.000
      4 C2          6.0146   -1.6879   -6.7078 C.2        1 <1>        0.000
      5 N1          7.0927   -0.8655   -6.7777 N.am       1 <1>        0.000
      6 C9          7.1293    0.4548   -7.0734 C.2        1 <1>        0.000
      7 O1          6.1591    1.1570   -7.3050 O.2        1 <1>        0.000
      8 C20         2.1202   -2.0509   -6.1520 C.2        1 <1>        0.000
      9 C21         0.8744   -1.9928   -5.6623 C.2        1 <1>        0.000
     10 N5         -0.2418   -1.5603   -6.2981 N.am       1 <1>        0.000
     11 C28        -1.5181   -1.5169   -5.8453 C.2        1 <1>        0.000
     12 O4         -2.4893   -1.1638   -6.4927 O.2        1 <1>        0.000
     13 H           6.9386   -3.5439   -6.2865 H.spc      1 <1>        0.000
     14 H           5.0438   -1.2258   -6.8871 H.spc      1 <1>        0.000
     15 H           7.9943   -1.3002   -6.5814 H.spc      1 <1>        0.000
     16 H           8.1091    0.9312   -7.1075 H.spc      1 <1>        0.000
     17 H           2.3284   -1.7529   -7.1796 H.spc      1 <1>        0.000
     18 H           0.7435   -2.3323   -4.6348 H.spc      1 <1>        0.000
     19 H          -0.1015   -1.2203   -7.2495 H.spc      1 <1>        0.000
     20 H          -1.6916   -1.8239   -4.8139 H.spc      1 <1>        0.000
@<TRIPOS>BOND
     1    6    7 2  
     2   10   11 am 
     3    9   10 1  
     4    8    9 2  
     5    5    6 am 
     6    4    5 1  
     7    1    2 1  
     8    1    8 1  
     9    2    3 1  
    10    3    4 2  
    11   11   12 2  
    12    3   13 1  
    13    4   14 1  
    14    5   15 1  
    15    6   16 1  
    16    8   17 1  
    17    9   18 1  
    18   10   19 1  
    19   11   20 1  
# Name:          frag3-195-6/31924 -- energy: -1.646658
# Creation time: Sat Jun  5 12:52:17 2010


@<TRIPOS>MOLECULE
frag3-195-6/31924 -- energy: -1.646658
   20    19     1     1     1
SMALL
USER_CHARGES


@<TRIPOS>ATOM
      1 S1          2.7061   -4.0112   -5.9861 S.3        1 <1>        0.000
      2 S2          3.9920   -3.3329   -7.3948 S.3        1 <1>        0.000
      3 C1          5.2408   -2.5871   -6.3603 C.2        1 <1>        0.000
      4 C2          5.8110   -1.4385   -6.7470 C.2        1 <1>        0.000
      5 N1          6.7419   -0.7068   -6.0851 N.am       1 <1>        0.000
      6 C9          7.2324    0.5159   -6.3946 C.2        1 <1>        0.000
      7 O1          6.8447    1.2262   -7.3078 O.2        1 <1>        0.000
      8 C20         1.5368   -2.6649   -5.9274 C.2        1 <1>        0.000
      9 C21         0.2373   -2.9267   -6.1222 C.2        1 <1>        0.000
     10 N5         -0.7976   -2.0530   -6.0897 N.am       1 <1>        0.000
     11 C28        -0.7634   -0.7013   -5.9986 C.2        1 <1>        0.000
     12 O4          0.2325   -0.0295   -5.7834 O.2        1 <1>        0.000
     13 H           5.5361   -3.0611   -5.4243 H.spc      1 <1>        0.000
     14 H           5.4879   -1.0439   -7.7103 H.spc      1 <1>        0.000
     15 H           7.1230   -1.1353   -5.2416 H.spc      1 <1>        0.000
     16 H           8.0433    0.8990   -5.7750 H.spc      1 <1>        0.000
     17 H           1.8741   -1.6462   -5.7362 H.spc      1 <1>        0.000
     18 H          -0.0174   -3.9656   -6.3316 H.spc      1 <1>        0.000
     19 H          -1.7277   -2.4685   -6.1407 H.spc      1 <1>        0.000
     20 H          -1.7055   -0.1688   -6.1286 H.spc      1 <1>        0.000
@<TRIPOS>BOND
     1    6    7 2  
     2   10   11 am 
     3    9   10 1  
     4    8    9 2  
     5    5    6 am 
     6    4    5 1  
     7    1    2 1  
     8    1    8 1  
     9    2    3 1  
    10    3    4 2  
    11   11   12 2  
    12    3   13 1  
    13    4   14 1  
    14    5   15 1  
    15    6   16 1  
    16    8   17 1  
    17    9   18 1  
    18   10   19 1  
    19   11   20 1  
# Name:          frag3-195-6/31924 -- energy: -2.300812
# Creation time: Sat Jun  5 12:52:17 2010


@<TRIPOS>MOLECULE
frag3-195-6/31924 -- energy: -2.300812
   20    19     1     1     1
SMALL
USER_CHARGES


@<TRIPOS>ATOM
      1 S1          4.1579   -4.0128   -6.1048 S.3        1 <1>        0.000
      2 S2          2.6883   -3.9760   -7.4961 S.3        1 <1>        0.000
      3 C1          1.7260   -2.5948   -6.9144 C.2        1 <1>        0.000
      4 C2          0.7139   -2.8122   -6.0615 C.2        1 <1>        0.000
      5 N1         -0.0998   -1.8985   -5.4797 N.am       1 <1>        0.000
      6 C9         -0.0209   -0.5480   -5.5343 C.2        1 <1>        0.000
      7 O1          0.8095    0.0913   -6.1606 O.2        1 <1>        0.000
      8 C20         5.0828   -2.5618   -6.5628 C.2        1 <1>        0.000
      9 C21         4.8761   -1.4160   -5.8982 C.2        1 <1>        0.000
     10 N5          5.4944   -0.2289   -6.0799 N.am       1 <1>        0.000
     11 C28         6.5366    0.0745   -6.8910 C.2        1 <1>        0.000
     12 O4          7.0498    1.1734   -7.0136 O.2        1 <1>        0.000
     13 H           1.9572   -1.5832   -7.2481 H.spc      1 <1>        0.000
     14 H           0.5222   -3.8539   -5.8044 H.spc      1 <1>        0.000
     15 H          -0.8711   -2.2767   -4.9298 H.spc      1 <1>        0.000
     16 H          -0.7629    0.0173   -4.9704 H.spc      1 <1>        0.000
     17 H           5.8090   -2.6047   -7.3745 H.spc      1 <1>        0.000
     18 H           4.1171   -1.4460   -5.1165 H.spc      1 <1>        0.000
     19 H           5.1255    0.5470   -5.5301 H.spc      1 <1>        0.000
     20 H           6.9535   -0.7370   -7.4874 H.spc      1 <1>        0.000
@<TRIPOS>BOND
     1    6    7 2  
     2   10   11 am 
     3    9   10 1  
     4    8    9 2  
     5    5    6 am 
     6    4    5 1  
     7    1    2 1  
     8    1    8 1  
     9    2    3 1  
    10    3    4 2  
    11   11   12 2  
    12    3   13 1  
    13    4   14 1  
    14    5   15 1  
    15    6   16 1  
    16    8   17 1  
    17    9   18 1  
    18   10   19 1  
    19   11   20 1  
# Name:          frag3-195-6/31924 -- energy: -1.766588
# Creation time: Sat Jun  5 12:52:17 2010


@<TRIPOS>MOLECULE
frag3-195-6/31924 -- energy: -1.766588
   20    19     1     1     1
SMALL
USER_CHARGES


@<TRIPOS>ATOM
      1 S1          4.2604   -3.6298   -6.6753 S.3        1 <1>        0.000
      2 S2          3.1638   -2.6435   -5.2836 S.3        1 <1>        0.000
      3 C1          1.5136   -3.1328   -5.7737 C.2        1 <1>        0.000
      4 C2          0.5247   -2.2304   -5.7066 C.2        1 <1>        0.000
      5 N1         -0.7739   -2.3980   -6.0668 N.am       1 <1>        0.000
      6 C9         -1.7702   -1.4818   -6.0824 C.2        1 <1>        0.000
      7 O1         -1.6327   -0.2815   -5.9148 O.2        1 <1>        0.000
      8 C20         5.1038   -2.2591   -7.4569 C.2        1 <1>        0.000
      9 C21         6.0161   -1.5800   -6.7469 C.2        1 <1>        0.000
     10 N5          6.7768   -0.5389   -7.1655 N.am       1 <1>        0.000
     11 C28         7.5761    0.2788   -6.4386 C.2        1 <1>        0.000
     12 O4          8.2560    1.1871   -6.8856 O.2        1 <1>        0.000
     13 H           1.3161   -4.1470   -6.1207 H.spc      1 <1>        0.000
     14 H           0.7941   -1.2483   -5.3179 H.spc      1 <1>        0.000
     15 H          -1.0327   -3.3385   -6.3650 H.spc      1 <1>        0.000
     16 H          -2.7814   -1.8478   -6.2598 H.spc      1 <1>        0.000
     17 H           4.8809   -1.9823   -8.4873 H.spc      1 <1>        0.000
     18 H           6.1628   -1.9016   -5.7158 H.spc      1 <1>        0.000
     19 H           6.7427   -0.3442   -8.1662 H.spc      1 <1>        0.000
     20 H           7.6147    0.1103   -5.3624 H.spc      1 <1>        0.000
@<TRIPOS>BOND
     1    6    7 2  
     2   10   11 am 
     3    9   10 1  
     4    8    9 2  
     5    5    6 am 
     6    4    5 1  
     7    1    2 1  
     8    1    8 1  
     9    2    3 1  
    10    3    4 2  
    11   11   12 2  
    12    3   13 1  
    13    4   14 1  
    14    5   15 1  
    15    6   16 1  
    16    8   17 1  
    17    9   18 1  
    18   10   19 1  
    19   11   20 1  
# Name:          frag3-195-6/31924 -- energy: -2.019537
# Creation time: Sat Jun  5 12:52:17 2010


@<TRIPOS>MOLECULE
frag3-195-6/31924 -- energy: -2.019537
   20    19     1     1     1
SMALL
USER_CHARGES


@<TRIPOS>ATOM
      1 S1          4.1223   -3.8890   -7.0027 S.3        1 <1>        0.000
      2 S2          2.5611   -4.3784   -5.8088 S.3        1 <1>        0.000
      3 C1          1.6742   -2.8292   -5.7927 C.2        1 <1>        0.000
      4 C2          1.0789   -2.4080   -6.9192 C.2        1 <1>        0.000
      5 N1          0.3356   -1.2879   -7.0982 N.am       1 <1>        0.000
      6 C9         -0.0659   -0.3879   -6.1700 C.2        1 <1>        0.000
      7 O1          0.2083   -0.4227   -4.9812 O.2        1 <1>        0.000
      8 C20         4.9623   -2.6963   -5.9743 C.2        1 <1>        0.000
      9 C21         5.3962   -1.5549   -6.5237 C.2        1 <1>        0.000
     10 N5          6.0212   -0.5229   -5.9078 N.am       1 <1>        0.000
     11 C28         6.4189    0.6638   -6.4260 C.2        1 <1>        0.000
     12 O4          6.3015    1.0037   -7.5923 O.2        1 <1>        0.000
     13 H           1.6171   -2.2341   -4.8812 H.spc      1 <1>        0.000
     14 H           1.2084   -3.0426   -7.7959 H.spc      1 <1>        0.000
     15 H           0.0409   -1.0991   -8.0563 H.spc      1 <1>        0.000
     16 H          -0.6875    0.4388   -6.5139 H.spc      1 <1>        0.000
     17 H           5.1198   -2.8943   -4.9141 H.spc      1 <1>        0.000
     18 H           5.2262   -1.4428   -7.5945 H.spc      1 <1>        0.000
     19 H           6.2199   -0.6581   -4.9165 H.spc      1 <1>        0.000
     20 H           6.8832    1.3756   -5.7434 H.spc      1 <1>        0.000
@<TRIPOS>BOND
     1    6    7 2  
     2   10   11 am 
     3    9   10 1  
     4    8    9 2  
     5    5    6 am 
     6    4    5 1  
     7    1    2 1  
     8    1    8 1  
     9    2    3 1  
    10    3    4 2  
    11   11   12 2  
    12    3   13 1  
    13    4   14 1  
    14    5   15 1  
    15    6   16 1  
    16    8   17 1  
    17    9   18 1  
    18   10   19 1  
    19   11   20 1  
# Name:          frag3-195-6/31924 -- energy: -2.149171
# Creation time: Sat Jun  5 12:52:17 2010


@<TRIPOS>MOLECULE
frag3-195-6/31924 -- energy: -2.149171
   20    19     1     1     1
SMALL
USER_CHARGES


@<TRIPOS>ATOM
      1 S1          3.8371   -3.5392   -7.5221 S.3        1 <1>        0.000
      2 S2          2.7594   -4.4589   -6.0699 S.3        1 <1>        0.000
      3 C1          2.1005   -3.0286   -5.2139 C.2        1 <1>        0.000
      4 C2          1.1916   -2.2671   -5.8404 C.2        1 <1>        0.000
      5 N1          0.5525   -1.1733   -5.3489 N.am       1 <1>        0.000
      6 C9         -0.4236   -0.4358   -5.9285 C.2        1 <1>        0.000
      7 O1         -0.9280   -0.6571   -7.0165 O.2        1 <1>        0.000
      8 C20         5.1091   -2.7554   -6.5333 C.2        1 <1>        0.000
      9 C21         5.4309   -1.4819   -6.8003 C.2        1 <1>        0.000
     10 N5          6.3383   -0.7105   -6.1498 N.am       1 <1>        0.000
     11 C28         6.7238    0.5600   -6.4210 C.2        1 <1>        0.000
     12 O4          6.3229    1.2381   -7.3521 O.2        1 <1>        0.000
     13 H           2.4317   -2.7828   -4.2049 H.spc      1 <1>        0.000
     14 H           0.9366   -2.5586   -6.8593 H.spc      1 <1>        0.000
     15 H           0.8469   -0.8678   -4.4213 H.spc      1 <1>        0.000
     16 H          -0.7898    0.4293   -5.3757 H.spc      1 <1>        0.000
     17 H           5.6095   -3.3013   -5.7335 H.spc      1 <1>        0.000
     18 H           4.9052   -1.0138   -7.6326 H.spc      1 <1>        0.000
     19 H           6.7921   -1.1465   -5.3471 H.spc      1 <1>        0.000
     20 H           7.4535    1.0141   -5.7506 H.spc      1 <1>        0.000
@<TRIPOS>BOND
     1    6    7 2  
     2   10   11 am 
     3    9   10 1  
     4    8    9 2  
     5    5    6 am 
     6    4    5 1  
     7    1    2 1  
     8    1    8 1  
     9    2    3 1  
    10    3    4 2  
    11   11   12 2  
    12    3   13 1  
    13    4   14 1  
    14    5   15 1  
    15    6   16 1  
    16    8   17 1  
    17    9   18 1  
    18   10   19 1  
    19   11   20 1  
# Name:          frag3-195-6/31924 -- energy: -2.159375
# Creation time: Sat Jun  5 12:52:17 2010


@<TRIPOS>MOLECULE
frag3-195-6/31924 -- energy: -2.159375
   20    19     1     1     1
SMALL
USER_CHARGES


@<TRIPOS>ATOM
      1 S1          4.6315   -4.2186   -6.7846 S.3        1 <1>        0.000
      2 S2          3.0599   -4.0731   -5.5131 S.3        1 <1>        0.000
      3 C1          1.8650   -3.2707   -6.5750 C.2        1 <1>        0.000
      4 C2          1.1530   -2.2435   -6.0917 C.2        1 <1>        0.000
      5 N1          0.2353   -1.4889   -6.7482 N.am       1 <1>        0.000
      6 C9         -0.4821   -0.4389   -6.2846 C.2        1 <1>        0.000
      7 O1         -0.4883   -0.0371   -5.1328 O.2        1 <1>        0.000
      8 C20         5.0198   -2.4895   -7.0217 C.2        1 <1>        0.000
      9 C21         5.7890   -1.8730   -6.1131 C.2        1 <1>        0.000
     10 N5          6.2144   -0.5869   -6.1303 N.am       1 <1>        0.000
     11 C28         5.8454    0.4205   -6.9582 C.2        1 <1>        0.000
     12 O4          6.1716    1.5897   -6.8436 O.2        1 <1>        0.000
     13 H           1.7182   -3.6121   -7.5997 H.spc      1 <1>        0.000
     14 H           1.3318   -1.9832   -5.0484 H.spc      1 <1>        0.000
     15 H           0.0635   -1.7474   -7.7198 H.spc      1 <1>        0.000
     16 H          -1.1076    0.0930   -7.0015 H.spc      1 <1>        0.000
     17 H           4.6389   -1.9476   -7.8874 H.spc      1 <1>        0.000
     18 H           6.1088   -2.4757   -5.2630 H.spc      1 <1>        0.000
     19 H           6.9077   -0.3434   -5.4229 H.spc      1 <1>        0.000
     20 H           5.2014    0.1633   -7.7992 H.spc      1 <1>        0.000
@<TRIPOS>BOND
     1    6    7 2  
     2   10   11 am 
     3    9   10 1  
     4    8    9 2  
     5    5    6 am 
     6    4    5 1  
     7    1    2 1  
     8    1    8 1  
     9    2    3 1  
    10    3    4 2  
    11   11   12 2  
    12    3   13 1  
    13    4   14 1  
    14    5   15 1  
    15    6   16 1  
    16    8   17 1  
    17    9   18 1  
    18   10   19 1  
    19   11   20 1  
# Name:          frag3-195-6/31924 -- energy: -2.198078
# Creation time: Sat Jun  5 12:52:17 2010


@<TRIPOS>MOLECULE
frag3-195-6/31924 -- energy: -2.198078
   20    19     1     1     1
SMALL
USER_CHARGES


@<TRIPOS>ATOM
      1 S1          3.1785   -4.1983   -7.3481 S.3        1 <1>        0.000
      2 S2          5.0826   -4.0386   -6.6705 S.3        1 <1>        0.000
      3 C1          5.3110   -2.2666   -6.7835 C.2        1 <1>        0.000
      4 C2          5.2187   -1.5303   -5.6664 C.2        1 <1>        0.000
      5 N1          5.3952   -0.1896   -5.5429 N.am       1 <1>        0.000
      6 C9          5.7267    0.7080   -6.5005 C.2        1 <1>        0.000
      7 O1          6.0661    0.4366   -7.6403 O.2        1 <1>        0.000
      8 C20         2.3148   -3.2141   -6.1282 C.2        1 <1>        0.000
      9 C21         1.3756   -2.3541   -6.5450 C.2        1 <1>        0.000
     10 N5          0.5976   -1.5495   -5.7801 N.am       1 <1>        0.000
     11 C28        -0.2885   -0.6010   -6.1688 C.2        1 <1>        0.000
     12 O4         -0.9638    0.0876   -5.4226 O.2        1 <1>        0.000
     13 H           5.5213   -1.7945   -7.7432 H.spc      1 <1>        0.000
     14 H           4.9737   -2.0705   -4.7519 H.spc      1 <1>        0.000
     15 H           5.2604    0.1909   -4.6062 H.spc      1 <1>        0.000
     16 H           5.6870    1.7632   -6.2300 H.spc      1 <1>        0.000
     17 H           2.5480   -3.3122   -5.0680 H.spc      1 <1>        0.000
     18 H           1.2193   -2.2947   -7.6221 H.spc      1 <1>        0.000
     19 H           0.6924   -1.6756   -4.7724 H.spc      1 <1>        0.000
     20 H          -0.4079   -0.4397   -7.2402 H.spc      1 <1>        0.000
@<TRIPOS>BOND
     1    6    7 2  
     2   10   11 am 
     3    9   10 1  
     4    8    9 2  
     5    5    6 am 
     6    4    5 1  
     7    1    2 1  
     8    1    8 1  
     9    2    3 1  
    10    3    4 2  
    11   11   12 2  
    12    3   13 1  
    13    4   14 1  
    14    5   15 1  
    15    6   16 1  
    16    8   17 1  
    17    9   18 1  
    18   10   19 1  
    19   11   20 1  
# Name:          frag3-195-6/31924 -- energy: -2.479987
# Creation time: Sat Jun  5 12:52:17 2010


@<TRIPOS>MOLECULE
frag3-195-6/31924 -- energy: -2.479987
   20    19     1     1     1
SMALL
USER_CHARGES


@<TRIPOS>ATOM
      1 S1          3.0316   -4.3886   -5.6104 S.3        1 <1>        0.000
      2 S2          4.3746   -4.3002   -7.1262 S.3        1 <1>        0.000
      3 C1          5.4383   -2.9912   -6.5304 C.2        1 <1>        0.000
      4 C2          5.1677   -1.7255   -6.8815 C.2        1 <1>        0.000
      5 N1          5.8267   -0.6018   -6.5034 N.am       1 <1>        0.000
      6 C9          5.5483    0.6868   -6.8100 C.2        1 <1>        0.000
      7 O1          6.2144    1.6550   -6.4855 O.2        1 <1>        0.000
      8 C20         2.2326   -2.7987   -5.7882 C.2        1 <1>        0.000
      9 C21         0.9333   -2.7647   -6.1142 C.2        1 <1>        0.000
     10 N5          0.1502   -1.6694   -6.2651 N.am       1 <1>        0.000
     11 C28         0.4246   -0.3783   -5.9581 C.2        1 <1>        0.000
     12 O4         -0.3279    0.5666   -6.1240 O.2        1 <1>        0.000
     13 H           6.2924   -3.2186   -5.8925 H.spc      1 <1>        0.000
     14 H           4.3181   -1.5829   -7.5494 H.spc      1 <1>        0.000
     15 H           6.6418   -0.7475   -5.9078 H.spc      1 <1>        0.000
     16 H           4.6503    0.8754   -7.3983 H.spc      1 <1>        0.000
     17 H           2.7914   -1.8755   -5.6344 H.spc      1 <1>        0.000
     18 H           0.4512   -3.7287   -6.2766 H.spc      1 <1>        0.000
     19 H          -0.7726   -1.8400   -6.6647 H.spc      1 <1>        0.000
     20 H           1.4024   -0.1663   -5.5255 H.spc      1 <1>        0.000
@<TRIPOS>BOND
     1    6    7 2  
     2   10   11 am 
     3    9   10 1  
     4    8    9 2  
     5    5    6 am 
     6    4    5 1  
     7    1    2 1  
     8    1    8 1  
     9    2    3 1  
    10    3    4 2  
    11   11   12 2  
    12    3   13 1  
    13    4   14 1  
    14    5   15 1  
    15    6   16 1  
    16    8   17 1  
    17    9   18 1  
    18   10   19 1  
    19   11   20 1  
# Name:          frag3-195-6/31924 -- energy: -1.969409
# Creation time: Sat Jun  5 12:52:17 2010


@<TRIPOS>MOLECULE
frag3-195-6/31924 -- energy: -1.969409
   20    19     1     1     1
SMALL
USER_CHARGES


@<TRIPOS>ATOM
      1 S1          3.2935   -3.8601   -5.6852 S.3        1 <1>        0.000
      2 S2          4.3132   -3.6213   -7.4163 S.3        1 <1>        0.000
      3 C1          5.0088   -2.0002   -7.1626 C.2        1 <1>        0.000
      4 C2          6.2945   -1.8887   -6.7984 C.2        1 <1>        0.000
      5 N1          7.0079   -0.7547   -6.5929 N.am       1 <1>        0.000
      6 C9          6.5701    0.5264   -6.5987 C.2        1 <1>        0.000
      7 O1          5.4039    0.8795   -6.5262 O.2        1 <1>        0.000
      8 C20         1.7853   -2.9909   -6.0648 C.2        1 <1>        0.000
      9 C21         1.3155   -2.0853   -5.1972 C.2        1 <1>        0.000
     10 N5          0.2159   -1.3094   -5.3231 N.am       1 <1>        0.000
     11 C28        -0.5954   -1.1484   -6.3965 C.2        1 <1>        0.000
     12 O4         -1.5986   -0.4569   -6.4350 O.2        1 <1>        0.000
     13 H           4.3961   -1.1095   -7.3019 H.spc      1 <1>        0.000
     14 H           6.8320   -2.8252   -6.6493 H.spc      1 <1>        0.000
     15 H           8.0032   -0.8831   -6.4103 H.spc      1 <1>        0.000
     16 H           7.3239    1.3100   -6.6747 H.spc      1 <1>        0.000
     17 H           1.2509   -3.1939   -6.9929 H.spc      1 <1>        0.000
     18 H           1.8889   -1.9587   -4.2789 H.spc      1 <1>        0.000
     19 H          -0.0385   -0.7703   -4.4954 H.spc      1 <1>        0.000
     20 H          -0.3271   -1.6850   -7.3065 H.spc      1 <1>        0.000
@<TRIPOS>BOND
     1    6    7 2  
     2   10   11 am 
     3    9   10 1  
     4    8    9 2  
     5    5    6 am 
     6    4    5 1  
     7    1    2 1  
     8    1    8 1  
     9    2    3 1  
    10    3    4 2  
    11   11   12 2  
    12    3   13 1  
    13    4   14 1  
    14    5   15 1  
    15    6   16 1  
    16    8   17 1  
    17    9   18 1  
    18   10   19 1  
    19   11   20 1  
# Name:          frag3-195-6/31924 -- energy: -2.698534
# Creation time: Sat Jun  5 12:52:17 2010


@<TRIPOS>MOLECULE
frag3-195-6/31924 -- energy: -2.698534
   20    19     1     1     1
SMALL
USER_CHARGES


@<TRIPOS>ATOM
      1 S1          3.0945   -4.4374   -7.1046 S.3        1 <1>        0.000
      2 S2          4.8927   -4.3375   -6.1749 S.3        1 <1>        0.000
      3 C1          5.3694   -2.6633   -6.5843 C.2        1 <1>        0.000
      4 C2          4.8295   -1.6477   -5.8939 C.2        1 <1>        0.000
      5 N1          5.0891   -0.3237   -6.0309 N.am       1 <1>        0.000
      6 C9          5.8826    0.2916   -6.9390 C.2        1 <1>        0.000
      7 O1          5.9321    1.4926   -7.1425 O.2        1 <1>        0.000
      8 C20         2.1036   -3.4275   -6.0118 C.2        1 <1>        0.000
      9 C21         1.5390   -2.3137   -6.4979 C.2        1 <1>        0.000
     10 N5          0.7371   -1.4407   -5.8424 N.am       1 <1>        0.000
     11 C28         0.1636   -0.3009   -6.2979 C.2        1 <1>        0.000
     12 O4         -0.6187    0.3983   -5.6767 O.2        1 <1>        0.000
     13 H           6.0870   -2.4711   -7.3819 H.spc      1 <1>        0.000
     14 H           4.0964   -1.9183   -5.1340 H.spc      1 <1>        0.000
     15 H           4.6251    0.2898   -5.3611 H.spc      1 <1>        0.000
     16 H           6.5341   -0.3421   -7.5407 H.spc      1 <1>        0.000
     17 H           1.9613   -3.7125   -4.9694 H.spc      1 <1>        0.000
     18 H           1.7495   -2.0834   -7.5423 H.spc      1 <1>        0.000
     19 H           0.5370   -1.6741   -4.8698 H.spc      1 <1>        0.000
     20 H           0.4240    0.0187   -7.3069 H.spc      1 <1>        0.000
@<TRIPOS>BOND
     1    6    7 2  
     2   10   11 am 
     3    9   10 1  
     4    8    9 2  
     5    5    6 am 
     6    4    5 1  
     7    1    2 1  
     8    1    8 1  
     9    2    3 1  
    10    3    4 2  
    11   11   12 2  
    12    3   13 1  
    13    4   14 1  
    14    5   15 1  
    15    6   16 1  
    16    8   17 1  
    17    9   18 1  
    18   10   19 1  
    19   11   20 1  
# Name:          frag3-195-6/31924 -- energy: -1.557151
# Creation time: Sat Jun  5 12:52:17 2010


@<TRIPOS>MOLECULE
frag3-195-6/31924 -- energy: -1.557151
   20    19     1     1     1
SMALL
USER_CHARGES


@<TRIPOS>ATOM
      1 S1          4.2281   -2.7019   -5.6714 S.3        1 <1>        0.000
      2 S2          2.9599   -2.6465   -7.2461 S.3        1 <1>        0.000
      3 C1          1.4562   -2.1346   -6.4396 C.2        1 <1>        0.000
      4 C2          0.2756   -2.4697   -6.9761 C.2        1 <1>        0.000
      5 N1         -0.9617   -2.2096   -6.4927 N.am       1 <1>        0.000
      6 C9         -1.3060   -1.5828   -5.3431 C.2        1 <1>        0.000
      7 O1         -2.4427   -1.3520   -4.9686 O.2        1 <1>        0.000
      8 C20         5.4574   -1.5213   -6.1870 C.2        1 <1>        0.000
      9 C21         6.7496   -1.7786   -5.9469 C.2        1 <1>        0.000
     10 N5          7.8237   -1.0282   -6.2887 N.am       1 <1>        0.000
     11 C28         7.8660    0.0949   -7.0458 C.2        1 <1>        0.000
     12 O4          6.9085    0.6204   -7.5910 O.2        1 <1>        0.000
     13 H           1.4966   -1.5540   -5.5180 H.spc      1 <1>        0.000
     14 H           0.3161   -3.0189   -7.9168 H.spc      1 <1>        0.000
     15 H          -1.7384   -2.5284   -7.0719 H.spc      1 <1>        0.000
     16 H          -0.4938   -1.2552   -4.6942 H.spc      1 <1>        0.000
     17 H           5.1621   -0.6013   -6.6914 H.spc      1 <1>        0.000
     18 H           6.9624   -2.7040   -5.4116 H.spc      1 <1>        0.000
     19 H           8.7213   -1.3517   -5.9279 H.spc      1 <1>        0.000
     20 H           8.8381    0.5696   -7.1794 H.spc      1 <1>        0.000
@<TRIPOS>BOND
     1    6    7 2  
     2   10   11 am 
     3    9   10 1  
     4    8    9 2  
     5    5    6 am 
     6    4    5 1  
     7    1    2 1  
     8    1    8 1  
     9    2    3 1  
    10    3    4 2  
    11   11   12 2  
    12    3   13 1  
    13    4   14 1  
    14    5   15 1  
    15    6   16 1  
    16    8   17 1  
    17    9   18 1  
    18   10   19 1  
    19   11   20 1  
# Name:          frag3-195-6/31924 -- energy: -2.155270
# Creation time: Sat Jun  5 12:52:17 2010


@<TRIPOS>MOLECULE
frag3-195-6/31924 -- energy: -2.155270
   20    19     1     1     1
SMALL
USER_CHARGES


@<TRIPOS>ATOM
      1 S1          3.2481   -3.8445   -7.4371 S.3        1 <1>        0.000
      2 S2          4.9246   -3.9126   -6.3023 S.3        1 <1>        0.000
      3 C1          5.5551   -2.2630   -6.5627 C.2        1 <1>        0.000
      4 C2          4.9515   -1.2303   -5.9548 C.2        1 <1>        0.000
      5 N1          5.2999    0.0798   -6.0003 N.am       1 <1>        0.000
      6 C9          6.2940    0.6616   -6.7118 C.2        1 <1>        0.000
      7 O1          7.1540    0.0711   -7.3448 O.2        1 <1>        0.000
      8 C20         2.0510   -3.3017   -6.2297 C.2        1 <1>        0.000
      9 C21         1.2646   -2.2569   -6.5191 C.2        1 <1>        0.000
     10 N5          0.2864   -1.7191   -5.7541 N.am       1 <1>        0.000
     11 C28        -0.5146   -0.6573   -6.0112 C.2        1 <1>        0.000
     12 O4         -1.5002   -0.3371   -5.3689 O.2        1 <1>        0.000
     13 H           6.4186   -2.0969   -7.2067 H.spc      1 <1>        0.000
     14 H           4.0763   -1.4733   -5.3522 H.spc      1 <1>        0.000
     15 H           4.7404    0.7082   -5.4237 H.spc      1 <1>        0.000
     16 H           6.3292    1.7510   -6.7199 H.spc      1 <1>        0.000
     17 H           1.9613   -3.8128   -5.2712 H.spc      1 <1>        0.000
     18 H           1.4326   -1.7832   -7.4863 H.spc      1 <1>        0.000
     19 H           0.1301   -2.1783   -4.8568 H.spc      1 <1>        0.000
     20 H          -0.2552   -0.0346   -6.8674 H.spc      1 <1>        0.000
@<TRIPOS>BOND
     1    6    7 2  
     2   10   11 am 
     3    9   10 1  
     4    8    9 2  
     5    5    6 am 
     6    4    5 1  
     7    1    2 1  
     8    1    8 1  
     9    2    3 1  
    10    3    4 2  
    11   11   12 2  
    12    3   13 1  
    13    4   14 1  
    14    5   15 1  
    15    6   16 1  
    16    8   17 1  
    17    9   18 1  
    18   10   19 1  
    19   11   20 1  
# Name:          frag3-195-6/31924 -- energy: -1.519947
# Creation time: Sat Jun  5 12:52:17 2010


@<TRIPOS>MOLECULE
frag3-195-6/31924 -- energy: -1.519947
   20    19     1     1     1
SMALL
USER_CHARGES


@<TRIPOS>ATOM
      1 S1          2.9431   -1.9624   -5.1393 S.3        1 <1>        0.000
      2 S2          4.4361   -3.0573   -5.9559 S.3        1 <1>        0.000
      3 C1          5.5477   -1.7601   -6.4692 C.2        1 <1>        0.000
      4 C2          6.8668   -1.9242   -6.2994 C.2        1 <1>        0.000
      5 N1          7.8635   -1.0751   -6.6532 N.am       1 <1>        0.000
      6 C9          7.7621    0.1656   -7.1852 C.2        1 <1>        0.000
      7 O1          6.7463    0.6601   -7.6467 O.2        1 <1>        0.000
      8 C20         1.6521   -2.2051   -6.3456 C.2        1 <1>        0.000
      9 C21         0.3814   -1.9760   -5.9924 C.2        1 <1>        0.000
     10 N5         -0.7257   -2.0755   -6.7667 N.am       1 <1>        0.000
     11 C28        -2.0199   -1.8508   -6.4358 C.2        1 <1>        0.000
     12 O4         -2.4389   -1.6491   -5.3075 O.2        1 <1>        0.000
     13 H           5.1587   -0.8450   -6.9156 H.spc      1 <1>        0.000
     14 H           7.1762   -2.8523   -5.8188 H.spc      1 <1>        0.000
     15 H           8.8125   -1.4155   -6.4984 H.spc      1 <1>        0.000
     16 H           8.6654    0.7754   -7.2029 H.spc      1 <1>        0.000
     17 H           1.8943   -2.5352   -7.3558 H.spc      1 <1>        0.000
     18 H           0.2180   -1.6732   -4.9581 H.spc      1 <1>        0.000
     19 H          -0.5621   -2.3589   -7.7328 H.spc      1 <1>        0.000
     20 H          -2.7490   -1.8501   -7.2461 H.spc      1 <1>        0.000
@<TRIPOS>BOND
     1    6    7 2  
     2   10   11 am 
     3    9   10 1  
     4    8    9 2  
     5    5    6 am 
     6    4    5 1  
     7    1    2 1  
     8    1    8 1  
     9    2    3 1  
    10    3    4 2  
    11   11   12 2  
    12    3   13 1  
    13    4   14 1  
    14    5   15 1  
    15    6   16 1  
    16    8   17 1  
    17    9   18 1  
    18   10   19 1  
    19   11   20 1  
# Name:          frag3-195-6/31924 -- energy: -2.216438
# Creation time: Sat Jun  5 12:52:17 2010


@<TRIPOS>MOLECULE
frag3-195-6/31924 -- energy: -2.216438
   20    19     1     1     1
SMALL
USER_CHARGES


@<TRIPOS>ATOM
      1 S1          2.9269   -3.7055   -6.9294 S.3        1 <1>        0.000
      2 S2          4.6848   -3.9760   -5.9618 S.3        1 <1>        0.000
      3 C1          5.6060   -2.5759   -6.5735 C.2        1 <1>        0.000
      4 C2          5.2566   -1.3412   -6.1807 C.2        1 <1>        0.000
      5 N1          5.8497   -0.1681   -6.5054 N.am       1 <1>        0.000
      6 C9          7.0495    0.0369   -7.0984 C.2        1 <1>        0.000
      7 O1          7.5614    1.1215   -7.3162 O.2        1 <1>        0.000
      8 C20         2.0614   -2.6644   -5.7679 C.2        1 <1>        0.000
      9 C21         0.8581   -2.1808   -6.0978 C.2        1 <1>        0.000
     10 N5          0.0397   -1.4067   -5.3456 N.am       1 <1>        0.000
     11 C28        -1.1584   -0.8654   -5.6720 C.2        1 <1>        0.000
     12 O4         -1.7212   -0.9843   -6.7483 O.2        1 <1>        0.000
     13 H           6.4420   -2.7215   -7.2576 H.spc      1 <1>        0.000
     14 H           4.3914   -1.2747   -5.5210 H.spc      1 <1>        0.000
     15 H           5.3224    0.6733   -6.2722 H.spc      1 <1>        0.000
     16 H           7.6073   -0.8466   -7.4087 H.spc      1 <1>        0.000
     17 H           2.5068   -2.4253   -4.8022 H.spc      1 <1>        0.000
     18 H           0.4926   -2.4411   -7.0912 H.spc      1 <1>        0.000
     19 H           0.3715   -1.2032   -4.4028 H.spc      1 <1>        0.000
     20 H          -1.6627   -0.2733   -4.9083 H.spc      1 <1>        0.000
@<TRIPOS>BOND
     1    6    7 2  
     2   10   11 am 
     3    9   10 1  
     4    8    9 2  
     5    5    6 am 
     6    4    5 1  
     7    1    2 1  
     8    1    8 1  
     9    2    3 1  
    10    3    4 2  
    11   11   12 2  
    12    3   13 1  
    13    4   14 1  
    14    5   15 1  
    15    6   16 1  
    16    8   17 1  
    17    9   18 1  
    18   10   19 1  
    19   11   20 1  
# Name:          frag3-195-6/31924 -- energy: -1.726213
# Creation time: Sat Jun  5 12:52:17 2010


@<TRIPOS>MOLECULE
frag3-195-6/31924 -- energy: -1.726213
   20    19     1     1     1
SMALL
USER_CHARGES


@<TRIPOS>ATOM
      1 S1          4.4458   -2.5041   -4.8769 S.3        1 <1>        0.000
      2 S2          3.0766   -1.0836   -5.3456 S.3        1 <1>        0.000
      3 C1          1.5696   -2.0413   -5.2208 C.2        1 <1>        0.000
      4 C2          0.5036   -1.6660   -5.9416 C.2        1 <1>        0.000
      5 N1         -0.7056   -2.2791   -6.0104 N.am       1 <1>        0.000
      6 C9         -1.8590   -1.8157   -6.5462 C.2        1 <1>        0.000
      7 O1         -2.9126   -2.4269   -6.6014 O.2        1 <1>        0.000
      8 C20         5.4376   -2.5045   -6.3662 C.2        1 <1>        0.000
      9 C21         6.3175   -1.5098   -6.5494 C.2        1 <1>        0.000
     10 N5          7.1740   -1.3497   -7.5889 N.am       1 <1>        0.000
     11 C28         7.9336   -0.2736   -7.9070 C.2        1 <1>        0.000
     12 O4          8.0333    0.7445   -7.2425 O.2        1 <1>        0.000
     13 H           1.5196   -2.9143   -4.5701 H.spc      1 <1>        0.000
     14 H           0.6213   -0.7640   -6.5421 H.spc      1 <1>        0.000
     15 H          -0.7511   -3.2136   -5.6042 H.spc      1 <1>        0.000
     16 H          -1.8447   -0.8092   -6.9644 H.spc      1 <1>        0.000
     17 H           5.3288   -3.2958   -7.1079 H.spc      1 <1>        0.000
     18 H           6.3481   -0.7429   -5.7754 H.spc      1 <1>        0.000
     19 H           7.2578   -2.1488   -8.2172 H.spc      1 <1>        0.000
     20 H           8.5036   -0.3218   -8.8349 H.spc      1 <1>        0.000
@<TRIPOS>BOND
     1    6    7 2  
     2   10   11 am 
     3    9   10 1  
     4    8    9 2  
     5    5    6 am 
     6    4    5 1  
     7    1    2 1  
     8    1    8 1  
     9    2    3 1  
    10    3    4 2  
    11   11   12 2  
    12    3   13 1  
    13    4   14 1  
    14    5   15 1  
    15    6   16 1  
    16    8   17 1  
    17    9   18 1  
    18   10   19 1  
    19   11   20 1  
# Name:          frag3-195-6/31924 -- energy: -1.711363
# Creation time: Sat Jun  5 12:52:17 2010


@<TRIPOS>MOLECULE
frag3-195-6/31924 -- energy: -1.711363
   20    19     1     1     1
SMALL
USER_CHARGES


@<TRIPOS>ATOM
      1 S1          3.2576   -3.3072   -5.1788 S.3        1 <1>        0.000
      2 S2          4.1478   -3.3222   -6.9945 S.3        1 <1>        0.000
      3 C1          5.1526   -1.8573   -6.8839 C.2        1 <1>        0.000
      4 C2          6.4121   -1.8861   -7.3397 C.2        1 <1>        0.000
      5 N1          7.3125   -0.8739   -7.3727 N.am       1 <1>        0.000
      6 C9          7.2008    0.3674   -6.8440 C.2        1 <1>        0.000
      7 O1          6.2491    0.7845   -6.2031 O.2        1 <1>        0.000
      8 C20         1.5872   -2.8890   -5.6270 C.2        1 <1>        0.000
      9 C21         1.0868   -1.7022   -5.2586 C.2        1 <1>        0.000
     10 N5         -0.1361   -1.1968   -5.5317 N.am       1 <1>        0.000
     11 C28        -1.0819   -1.6650   -6.3817 C.2        1 <1>        0.000
     12 O4         -2.1742   -1.1621   -6.5813 O.2        1 <1>        0.000
     13 H           4.7465   -0.9441   -6.4488 H.spc      1 <1>        0.000
     14 H           6.7554   -2.8430   -7.7330 H.spc      1 <1>        0.000
     15 H           8.1871   -1.0729   -7.8585 H.spc      1 <1>        0.000
     16 H           8.0323    1.0536   -7.0044 H.spc      1 <1>        0.000
     17 H           0.9774   -3.5912   -6.1954 H.spc      1 <1>        0.000
     18 H           1.7462   -1.0673   -4.6668 H.spc      1 <1>        0.000
     19 H          -0.3815   -0.3444   -5.0281 H.spc      1 <1>        0.000
     20 H          -0.8447   -2.5727   -6.9367 H.spc      1 <1>        0.000
@<TRIPOS>BOND
     1    6    7 2  
     2   10   11 am 
     3    9   10 1  
     4    8    9 2  
     5    5    6 am 
     6    4    5 1  
     7    1    2 1  
     8    1    8 1  
     9    2    3 1  
    10    3    4 2  
    11   11   12 2  
    12    3   13 1  
    13    4   14 1  
    14    5   15 1  
    15    6   16 1  
    16    8   17 1  
    17    9   18 1  
    18   10   19 1  
    19   11   20 1  
# Name:          frag3-195-6/31924 -- energy: -2.517629
# Creation time: Sat Jun  5 12:52:17 2010


@<TRIPOS>MOLECULE
frag3-195-6/31924 -- energy: -2.517629
   20    19     1     1     1
SMALL
USER_CHARGES


@<TRIPOS>ATOM
      1 S1          3.1725   -4.0264   -7.4713 S.3        1 <1>        0.000
      2 S2          3.9971   -4.0583   -5.6188 S.3        1 <1>        0.000
      3 C1          4.3560   -2.3204   -5.4007 C.2        1 <1>        0.000
      4 C2          5.2236   -1.7288   -6.2355 C.2        1 <1>        0.000
      5 N1          5.5945   -0.4247   -6.2583 N.am       1 <1>        0.000
      6 C9          6.4057    0.2103   -7.1362 C.2        1 <1>        0.000
      7 O1          6.7239    1.3863   -7.0888 O.2        1 <1>        0.000
      8 C20         1.5040   -3.5222   -7.0759 C.2        1 <1>        0.000
      9 C21         1.2987   -2.2801   -6.6145 C.2        1 <1>        0.000
     10 N5          0.1151   -1.7057   -6.2883 N.am       1 <1>        0.000
     11 C28        -0.1148   -0.5265   -5.6621 C.2        1 <1>        0.000
     12 O4          0.7382    0.2867   -5.3466 O.2        1 <1>        0.000
     13 H           3.8781   -1.7514   -4.6032 H.spc      1 <1>        0.000
     14 H           5.6851   -2.3727   -6.9842 H.spc      1 <1>        0.000
     15 H           5.2102    0.1562   -5.5131 H.spc      1 <1>        0.000
     16 H           6.8099   -0.3815   -7.9575 H.spc      1 <1>        0.000
     17 H           0.6696   -4.2111   -7.2073 H.spc      1 <1>        0.000
     18 H           2.1864   -1.6605   -6.4870 H.spc      1 <1>        0.000
     19 H          -0.7171   -2.2340   -6.5504 H.spc      1 <1>        0.000
     20 H          -1.1494   -0.2838   -5.4197 H.spc      1 <1>        0.000
@<TRIPOS>BOND
     1    6    7 2  
     2   10   11 am 
     3    9   10 1  
     4    8    9 2  
     5    5    6 am 
     6    4    5 1  
     7    1    2 1  
     8    1    8 1  
     9    2    3 1  
    10    3    4 2  
    11   11   12 2  
    12    3   13 1  
    13    4   14 1  
    14    5   15 1  
    15    6   16 1  
    16    8   17 1  
    17    9   18 1  
    18   10   19 1  
    19   11   20 1  
# Name:          frag3-195-6/31924 -- energy: -2.119272
# Creation time: Sat Jun  5 12:52:17 2010


@<TRIPOS>MOLECULE
frag3-195-6/31924 -- energy: -2.119272
   20    19     1     1     1
SMALL
USER_CHARGES


@<TRIPOS>ATOM
      1 S1          2.8691   -4.1612   -5.4796 S.3        1 <1>        0.000
      2 S2          4.2168   -4.1615   -6.9891 S.3        1 <1>        0.000
      3 C1          5.1052   -2.6567   -6.6269 C.2        1 <1>        0.000
      4 C2          5.0601   -1.6417   -7.5014 C.2        1 <1>        0.000
      5 N1          5.6300   -0.4189   -7.3851 N.am       1 <1>        0.000
      6 C9          6.0968    0.1939   -6.2718 C.2        1 <1>        0.000
      7 O1          6.5078    1.3397   -6.2073 O.2        1 <1>        0.000
      8 C20         1.8896   -2.7328   -5.9070 C.2        1 <1>        0.000
      9 C21         0.8971   -2.3551   -5.0918 C.2        1 <1>        0.000
     10 N5          0.0701   -1.2913   -5.2285 N.am       1 <1>        0.000
     11 C28        -0.0151   -0.4106   -6.2549 C.2        1 <1>        0.000
     12 O4          0.6871   -0.4138   -7.2534 O.2        1 <1>        0.000
     13 H           5.6784   -2.5639   -5.7044 H.spc      1 <1>        0.000
     14 H           4.4966   -1.8226   -8.4167 H.spc      1 <1>        0.000
     15 H           5.7195    0.1112   -8.2519 H.spc      1 <1>        0.000
     16 H           6.1059   -0.3893   -5.3510 H.spc      1 <1>        0.000
     17 H           2.0965   -2.1747   -6.8201 H.spc      1 <1>        0.000
     18 H           0.7352   -2.9786   -4.2125 H.spc      1 <1>        0.000
     19 H          -0.5753   -1.1316   -4.4550 H.spc      1 <1>        0.000
     20 H          -0.7755    0.3670   -6.1827 H.spc      1 <1>        0.000
@<TRIPOS>BOND
     1    6    7 2  
     2   10   11 am 
     3    9   10 1  
     4    8    9 2  
     5    5    6 am 
     6    4    5 1  
     7    1    2 1  
     8    1    8 1  
     9    2    3 1  
    10    3    4 2  
    11   11   12 2  
    12    3   13 1  
    13    4   14 1  
    14    5   15 1  
    15    6   16 1  
    16    8   17 1  
    17    9   18 1  
    18   10   19 1  
    19   11   20 1  
# Name:          frag3-195-6/31924 -- energy: -2.113083
# Creation time: Sat Jun  5 12:52:17 2010


@<TRIPOS>MOLECULE
frag3-195-6/31924 -- energy: -2.113083
   20    19     1     1     1
SMALL
USER_CHARGES


@<TRIPOS>ATOM
      1 S1          4.2105   -3.8518   -5.9087 S.3        1 <1>        0.000
      2 S2          3.0633   -2.7260   -4.6720 S.3        1 <1>        0.000
      3 C1          2.1247   -1.7891   -5.8747 C.2        1 <1>        0.000
      4 C2          0.7861   -1.8062   -5.8041 C.2        1 <1>        0.000
      5 N1         -0.0922   -1.1371   -6.5950 N.am       1 <1>        0.000
      6 C9         -1.4351   -1.2855   -6.6782 C.2        1 <1>        0.000
      7 O1         -2.0932   -2.1282   -6.0914 O.2        1 <1>        0.000
      8 C20         5.6980   -2.8584   -5.9650 C.2        1 <1>        0.000
      9 C21         5.6713   -1.7025   -6.6435 C.2        1 <1>        0.000
     10 N5          6.6766   -0.8025   -6.7762 N.am       1 <1>        0.000
     11 C28         6.7195    0.3216   -7.5316 C.2        1 <1>        0.000
     12 O4          7.6850    1.0559   -7.6564 O.2        1 <1>        0.000
     13 H           2.6323   -1.2153   -6.6501 H.spc      1 <1>        0.000
     14 H           0.3525   -2.4290   -5.0216 H.spc      1 <1>        0.000
     15 H           0.3137   -0.4293   -7.2071 H.spc      1 <1>        0.000
     16 H          -1.9742   -0.5930   -7.3246 H.spc      1 <1>        0.000
     17 H           6.6059   -3.1860   -5.4586 H.spc      1 <1>        0.000
     18 H           4.7351   -1.4585   -7.1455 H.spc      1 <1>        0.000
     19 H           7.5168   -0.9987   -6.2322 H.spc      1 <1>        0.000
     20 H           5.8137    0.5926   -8.0740 H.spc      1 <1>        0.000
@<TRIPOS>BOND
     1    6    7 2  
     2   10   11 am 
     3    9   10 1  
     4    8    9 2  
     5    5    6 am 
     6    4    5 1  
     7    1    2 1  
     8    1    8 1  
     9    2    3 1  
    10    3    4 2  
    11   11   12 2  
    12    3   13 1  
    13    4   14 1  
    14    5   15 1  
    15    6   16 1  
    16    8   17 1  
    17    9   18 1  
    18   10   19 1  
    19   11   20 1  
# Name:          frag3-195-6/31924 -- energy: -1.604222
# Creation time: Sat Jun  5 12:52:17 2010


@<TRIPOS>MOLECULE
frag3-195-6/31924 -- energy: -1.604222
   20    19     1     1     1
SMALL
USER_CHARGES


@<TRIPOS>ATOM
      1 S1          4.3189   -2.7012   -6.1342 S.3        1 <1>        0.000
      2 S2          2.6108   -2.3636   -7.1741 S.3        1 <1>        0.000
      3 C1          1.3942   -2.7215   -5.9091 C.2        1 <1>        0.000
      4 C2          0.1193   -2.3657   -6.1218 C.2        1 <1>        0.000
      5 N1         -0.9456   -2.5828   -5.3067 N.am       1 <1>        0.000
      6 C9         -2.2136   -2.1270   -5.4362 C.2        1 <1>        0.000
      7 O1         -2.5766   -1.2479   -6.1996 O.2        1 <1>        0.000
      8 C20         5.0965   -1.0928   -6.2554 C.2        1 <1>        0.000
      9 C21         6.3813   -1.0305   -6.6317 C.2        1 <1>        0.000
     10 N5          7.1323    0.0851   -6.8111 N.am       1 <1>        0.000
     11 C28         8.4542    0.1839   -7.0925 C.2        1 <1>        0.000
     12 O4          9.2429   -0.7459   -7.1246 O.2        1 <1>        0.000
     13 H           1.6849   -3.2191   -4.9839 H.spc      1 <1>        0.000
     14 H          -0.0864   -1.8424   -7.0556 H.spc      1 <1>        0.000
     15 H          -0.7660   -3.1661   -4.4894 H.spc      1 <1>        0.000
     16 H          -2.9749   -2.5846   -4.8045 H.spc      1 <1>        0.000
     17 H           4.5376   -0.1850   -6.0283 H.spc      1 <1>        0.000
     18 H           6.8787   -1.9831   -6.8141 H.spc      1 <1>        0.000
     19 H           6.6338    0.9705   -6.7220 H.spc      1 <1>        0.000
     20 H           8.8456    1.1780   -7.3083 H.spc      1 <1>        0.000
@<TRIPOS>BOND
     1    6    7 2  
     2   10   11 am 
     3    9   10 1  
     4    8    9 2  
     5    5    6 am 
     6    4    5 1  
     7    1    2 1  
     8    1    8 1  
     9    2    3 1  
    10    3    4 2  
    11   11   12 2  
    12    3   13 1  
    13    4   14 1  
    14    5   15 1  
    15    6   16 1  
    16    8   17 1  
    17    9   18 1  
    18   10   19 1  
    19   11   20 1  
# Name:          frag3-195-6/31924 -- energy: -3.345159
# Creation time: Sat Jun  5 12:52:17 2010


@<TRIPOS>MOLECULE
frag3-195-6/31924 -- energy: -3.345159
   20    19     1     1     1
SMALL
USER_CHARGES


@<TRIPOS>ATOM
      1 S1          2.8989   -4.8581   -6.1450 S.3        1 <1>        0.000
      2 S2          4.7115   -4.5265   -6.9966 S.3        1 <1>        0.000
      3 C1          5.1765   -3.0081   -6.1599 C.2        1 <1>        0.000
      4 C2          4.8597   -1.8388   -6.7351 C.2        1 <1>        0.000
      5 N1          5.0909   -0.5918   -6.2434 N.am       1 <1>        0.000
      6 C9          4.7448    0.6018   -6.7805 C.2        1 <1>        0.000
      7 O1          4.7905    1.6764   -6.2057 O.2        1 <1>        0.000
      8 C20         1.9755   -3.4681   -6.8043 C.2        1 <1>        0.000
      9 C21         1.9022   -2.3495   -6.0692 C.2        1 <1>        0.000
     10 N5          1.2810   -1.1891   -6.4049 N.am       1 <1>        0.000
     11 C28         1.1001   -0.0757   -5.6534 C.2        1 <1>        0.000
     12 O4          0.4829    0.9178   -5.9990 O.2        1 <1>        0.000
     13 H           5.7041   -3.0358   -5.2065 H.spc      1 <1>        0.000
     14 H           4.3621   -1.8937   -7.7033 H.spc      1 <1>        0.000
     15 H           5.5898   -0.5506   -5.3547 H.spc      1 <1>        0.000
     16 H           4.3961    0.6024   -7.8132 H.spc      1 <1>        0.000
     17 H           1.4871   -3.5316   -7.7767 H.spc      1 <1>        0.000
     18 H           2.3943   -2.3737   -5.0969 H.spc      1 <1>        0.000
     19 H           0.8992   -1.1504   -7.3499 H.spc      1 <1>        0.000
     20 H           1.5430   -0.0676   -4.6575 H.spc      1 <1>        0.000
@<TRIPOS>BOND
     1    6    7 2  
     2   10   11 am 
     3    9   10 1  
     4    8    9 2  
     5    5    6 am 
     6    4    5 1  
     7    1    2 1  
     8    1    8 1  
     9    2    3 1  
    10    3    4 2  
    11   11   12 2  
    12    3   13 1  
    13    4   14 1  
    14    5   15 1  
    15    6   16 1  
    16    8   17 1  
    17    9   18 1  
    18   10   19 1  
    19   11   20 1  
# Name:          frag3-195-6/31924 -- energy: -2.746719
# Creation time: Sat Jun  5 12:52:17 2010


@<TRIPOS>MOLECULE
frag3-195-6/31924 -- energy: -2.746719
   20    19     1     1     1
SMALL
USER_CHARGES


@<TRIPOS>ATOM
      1 S1          4.7240   -4.2532   -5.9526 S.3        1 <1>        0.000
      2 S2          3.5192   -3.9762   -7.5610 S.3        1 <1>        0.000
      3 C1          2.0052   -3.4843   -6.7395 C.2        1 <1>        0.000
      4 C2          1.7235   -2.1773   -6.6360 C.2        1 <1>        0.000
      5 N1          0.6176   -1.6119   -6.0867 N.am       1 <1>        0.000
      6 C9          0.3018   -0.2995   -5.9857 C.2        1 <1>        0.000
      7 O1         -0.6839    0.1524   -5.4280 O.2        1 <1>        0.000
      8 C20         4.7971   -2.5825   -5.3118 C.2        1 <1>        0.000
      9 C21         5.1805   -1.5979   -6.1370 C.2        1 <1>        0.000
     10 N5          5.2692   -0.2744   -5.8523 N.am       1 <1>        0.000
     11 C28         5.6531    0.7448   -6.6586 C.2        1 <1>        0.000
     12 O4          5.9073    0.6500   -7.8477 O.2        1 <1>        0.000
     13 H           1.3260   -4.2329   -6.3316 H.spc      1 <1>        0.000
     14 H           2.4674   -1.4900   -7.0389 H.spc      1 <1>        0.000
     15 H          -0.0656   -2.2624   -5.6988 H.spc      1 <1>        0.000
     16 H           0.9874    0.4145   -6.4420 H.spc      1 <1>        0.000
     17 H           4.5359   -2.3710   -4.2749 H.spc      1 <1>        0.000
     18 H           5.4514   -1.8940   -7.1504 H.spc      1 <1>        0.000
     19 H           5.0117   -0.0104   -4.9013 H.spc      1 <1>        0.000
     20 H           5.7422    1.7326   -6.2064 H.spc      1 <1>        0.000
@<TRIPOS>BOND
     1    6    7 2  
     2   10   11 am 
     3    9   10 1  
     4    8    9 2  
     5    5    6 am 
     6    4    5 1  
     7    1    2 1  
     8    1    8 1  
     9    2    3 1  
    10    3    4 2  
    11   11   12 2  
    12    3   13 1  
    13    4   14 1  
    14    5   15 1  
    15    6   16 1  
    16    8   17 1  
    17    9   18 1  
    18   10   19 1  
    19   11   20 1  
# Name:          frag3-195-6/31924 -- energy: -1.658926
# Creation time: Sat Jun  5 12:52:17 2010


@<TRIPOS>MOLECULE
frag3-195-6/31924 -- energy: -1.658926
   20    19     1     1     1
SMALL
USER_CHARGES


@<TRIPOS>ATOM
      1 S1          3.7849   -3.1464   -6.9287 S.3        1 <1>        0.000
      2 S2          3.0278   -2.2970   -5.2528 S.3        1 <1>        0.000
      3 C1          1.3261   -2.0758   -5.7427 C.2        1 <1>        0.000
      4 C2          0.3536   -2.3252   -4.8550 C.2        1 <1>        0.000
      5 N1         -0.9846   -2.1843   -5.0262 N.am       1 <1>        0.000
      6 C9         -1.6573   -1.8381   -6.1489 C.2        1 <1>        0.000
      7 O1         -1.1582   -1.3754   -7.1619 O.2        1 <1>        0.000
      8 C20         4.8013   -1.8144   -7.5422 C.2        1 <1>        0.000
      9 C21         5.9191   -1.4954   -6.8734 C.2        1 <1>        0.000
     10 N5          6.8298   -0.5454   -7.1886 N.am       1 <1>        0.000
     11 C28         7.9661   -0.1998   -6.5371 C.2        1 <1>        0.000
     12 O4          8.8059    0.5873   -6.9393 O.2        1 <1>        0.000
     13 H           1.0809   -1.7421   -6.7510 H.spc      1 <1>        0.000
     14 H           0.6768   -2.6845   -3.8780 H.spc      1 <1>        0.000
     15 H          -1.5586   -2.3623   -4.2020 H.spc      1 <1>        0.000
     16 H          -2.7373   -1.9852   -6.1480 H.spc      1 <1>        0.000
     17 H           4.5190   -1.2703   -8.4435 H.spc      1 <1>        0.000
     18 H           6.1177   -2.0696   -5.9684 H.spc      1 <1>        0.000
     19 H           6.6327   -0.0144   -8.0369 H.spc      1 <1>        0.000
     20 H           8.1453   -0.6663   -5.5684 H.spc      1 <1>        0.000
@<TRIPOS>BOND
     1    6    7 2  
     2   10   11 am 
     3    9   10 1  
     4    8    9 2  
     5    5    6 am 
     6    4    5 1  
     7    1    2 1  
     8    1    8 1  
     9    2    3 1  
    10    3    4 2  
    11   11   12 2  
    12    3   13 1  
    13    4   14 1  
    14    5   15 1  
    15    6   16 1  
    16    8   17 1  
    17    9   18 1  
    18   10   19 1  
    19   11   20 1  
# Name:          frag3-195-6/31924 -- energy: -2.153773
# Creation time: Sat Jun  5 12:52:17 2010


@<TRIPOS>MOLECULE
frag3-195-6/31924 -- energy: -2.153773
   20    19     1     1     1
SMALL
USER_CHARGES


@<TRIPOS>ATOM
      1 S1          4.3061   -3.9002   -6.2603 S.3        1 <1>        0.000
      2 S2          3.1630   -2.9903   -4.8551 S.3        1 <1>        0.000
      3 C1          2.2634   -1.8301   -5.8763 C.2        1 <1>        0.000
      4 C2          0.9240   -1.8265   -5.8273 C.2        1 <1>        0.000
      5 N1          0.0724   -1.0055   -6.4932 N.am       1 <1>        0.000
      6 C9         -1.2746   -1.0899   -6.5958 C.2        1 <1>        0.000
      7 O1         -1.9645   -1.9942   -6.1548 O.2        1 <1>        0.000
      8 C20         5.8133   -2.9491   -6.1198 C.2        1 <1>        0.000
      9 C21         5.8236   -1.6888   -6.5768 C.2        1 <1>        0.000
     10 N5          6.8493   -0.8034   -6.5324 N.am       1 <1>        0.000
     11 C28         6.9266    0.4373   -7.0713 C.2        1 <1>        0.000
     12 O4          6.1119    0.9308   -7.8336 O.2        1 <1>        0.000
     13 H           2.7957   -1.1372   -6.5279 H.spc      1 <1>        0.000
     14 H           0.4645   -2.5702   -5.1762 H.spc      1 <1>        0.000
     15 H           0.5049   -0.2210   -6.9809 H.spc      1 <1>        0.000
     16 H          -1.7866   -0.2809   -7.1169 H.spc      1 <1>        0.000
     17 H           6.7060   -3.3852   -5.6715 H.spc      1 <1>        0.000
     18 H           4.9010   -1.3352   -7.0371 H.spc      1 <1>        0.000
     19 H           7.6767   -1.1140   -6.0232 H.spc      1 <1>        0.000
     20 H           7.7895    1.0459   -6.8009 H.spc      1 <1>        0.000
@<TRIPOS>BOND
     1    6    7 2  
     2   10   11 am 
     3    9   10 1  
     4    8    9 2  
     5    5    6 am 
     6    4    5 1  
     7    1    2 1  
     8    1    8 1  
     9    2    3 1  
    10    3    4 2  
    11   11   12 2  
    12    3   13 1  
    13    4   14 1  
    14    5   15 1  
    15    6   16 1  
    16    8   17 1  
    17    9   18 1  
    18   10   19 1  
    19   11   20 1  
# Name:          frag3-195-6/31924 -- energy: -2.335866
# Creation time: Sat Jun  5 12:52:17 2010


@<TRIPOS>MOLECULE
frag3-195-6/31924 -- energy: -2.335866
   20    19     1     1     1
SMALL
USER_CHARGES


@<TRIPOS>ATOM
      1 S1          4.1153   -3.7041   -5.4297 S.3        1 <1>        0.000
      2 S2          3.0756   -3.6769   -7.1704 S.3        1 <1>        0.000
      3 C1          2.2877   -2.0757   -7.0453 C.2        1 <1>        0.000
      4 C2          1.0727   -1.9950   -6.4837 C.2        1 <1>        0.000
      5 N1          0.3344   -0.8771   -6.2640 N.am       1 <1>        0.000
      6 C9         -0.8732   -0.7676   -5.6627 C.2        1 <1>        0.000
      7 O1         -1.5863   -1.6991   -5.3284 O.2        1 <1>        0.000
      8 C20         5.6476   -2.9460   -5.9543 C.2        1 <1>        0.000
      9 C21         5.6732   -1.6209   -6.1560 C.2        1 <1>        0.000
     10 N5          6.7356   -0.8631   -6.5236 N.am       1 <1>        0.000
     11 C28         6.7565    0.4217   -6.9532 C.2        1 <1>        0.000
     12 O4          5.7754    1.0938   -7.2256 O.2        1 <1>        0.000
     13 H           2.7865   -1.1814   -7.4190 H.spc      1 <1>        0.000
     14 H           0.6256   -2.9371   -6.1665 H.spc      1 <1>        0.000
     15 H           0.7441   -0.0040   -6.5961 H.spc      1 <1>        0.000
     16 H          -1.2398    0.2387   -5.4599 H.spc      1 <1>        0.000
     17 H           6.5426   -3.5491   -6.1070 H.spc      1 <1>        0.000
     18 H           4.7318   -1.0920   -6.0074 H.spc      1 <1>        0.000
     19 H           7.6441   -1.3236   -6.4693 H.spc      1 <1>        0.000
     20 H           7.7321    0.8947   -7.0649 H.spc      1 <1>        0.000
@<TRIPOS>BOND
     1    6    7 2  
     2   10   11 am 
     3    9   10 1  
     4    8    9 2  
     5    5    6 am 
     6    4    5 1  
     7    1    2 1  
     8    1    8 1  
     9    2    3 1  
    10    3    4 2  
    11   11   12 2  
    12    3   13 1  
    13    4   14 1  
    14    5   15 1  
    15    6   16 1  
    16    8   17 1  
    17    9   18 1  
    18   10   19 1  
    19   11   20 1  
# Name:          frag3-195-6/31924 -- energy: -1.892188
# Creation time: Sat Jun  5 12:52:17 2010


@<TRIPOS>MOLECULE
frag3-195-6/31924 -- energy: -1.892188
   20    19     1     1     1
SMALL
USER_CHARGES


@<TRIPOS>ATOM
      1 S1          3.2375   -3.4307   -4.9613 S.3        1 <1>        0.000
      2 S2          3.8378   -3.3034   -6.8909 S.3        1 <1>        0.000
      3 C1          4.9306   -1.8971   -6.7965 C.2        1 <1>        0.000
      4 C2          6.1475   -1.9739   -7.3520 C.2        1 <1>        0.000
      5 N1          7.0984   -1.0094   -7.4135 N.am       1 <1>        0.000
      6 C9          7.0371    0.2620   -6.9524 C.2        1 <1>        0.000
      7 O1          6.0926    0.7584   -6.3597 O.2        1 <1>        0.000
      8 C20         2.1487   -2.0218   -4.8640 C.2        1 <1>        0.000
      9 C21         0.9980   -2.0441   -5.5521 C.2        1 <1>        0.000
     10 N5          0.0330   -1.0949   -5.5869 N.am       1 <1>        0.000
     11 C28        -1.1138   -1.0713   -6.3071 C.2        1 <1>        0.000
     12 O4         -1.4328   -1.8835   -7.1606 O.2        1 <1>        0.000
     13 H           4.6119   -0.9848   -6.2923 H.spc      1 <1>        0.000
     14 H           6.4045   -2.9287   -7.8106 H.spc      1 <1>        0.000
     15 H           7.9730   -1.2762   -7.8656 H.spc      1 <1>        0.000
     16 H           7.9060    0.8970   -7.1253 H.spc      1 <1>        0.000
     17 H           2.4140   -1.1572   -4.2556 H.spc      1 <1>        0.000
     18 H           0.8178   -2.9334   -6.1561 H.spc      1 <1>        0.000
     19 H           0.1918   -0.2851   -4.9874 H.spc      1 <1>        0.000
     20 H          -1.8112   -0.2578   -6.1075 H.spc      1 <1>        0.000
@<TRIPOS>BOND
     1    6    7 2  
     2   10   11 am 
     3    9   10 1  
     4    8    9 2  
     5    5    6 am 
     6    4    5 1  
     7    1    2 1  
     8    1    8 1  
     9    2    3 1  
    10    3    4 2  
    11   11   12 2  
    12    3   13 1  
    13    4   14 1  
    14    5   15 1  
    15    6   16 1  
    16    8   17 1  
    17    9   18 1  
    18   10   19 1  
    19   11   20 1  
# Name:          frag3-195-6/31924 -- energy: -2.296535
# Creation time: Sat Jun  5 12:52:17 2010


@<TRIPOS>MOLECULE
frag3-195-6/31924 -- energy: -2.296535
   20    19     1     1     1
SMALL
USER_CHARGES


@<TRIPOS>ATOM
      1 S1          3.1681   -4.1131   -7.0340 S.3        1 <1>        0.000
      2 S2          4.6782   -4.3647   -5.7029 S.3        1 <1>        0.000
      3 C1          5.0895   -2.6537   -5.3666 C.2        1 <1>        0.000
      4 C2          5.2999   -1.8270   -6.4016 C.2        1 <1>        0.000
      5 N1          5.5822   -0.4994   -6.3535 N.am       1 <1>        0.000
      6 C9          5.7208    0.3720   -7.3801 C.2        1 <1>        0.000
      7 O1          5.7823    1.5855   -7.2775 O.2        1 <1>        0.000
      8 C20         1.9087   -3.4176   -5.9673 C.2        1 <1>        0.000
      9 C21         1.3614   -2.2420   -6.3061 C.2        1 <1>        0.000
     10 N5          0.3803   -1.5726   -5.6504 N.am       1 <1>        0.000
     11 C28        -0.1732   -0.3715   -5.9456 C.2        1 <1>        0.000
     12 O4          0.2164    0.3942   -6.8114 O.2        1 <1>        0.000
     13 H           5.1672   -2.2918   -4.3414 H.spc      1 <1>        0.000
     14 H           5.2371   -2.2715   -7.3949 H.spc      1 <1>        0.000
     15 H           5.7062   -0.1070   -5.4202 H.spc      1 <1>        0.000
     16 H           5.7827   -0.0470   -8.3845 H.spc      1 <1>        0.000
     17 H           1.5944   -3.9386   -5.0630 H.spc      1 <1>        0.000
     18 H           1.7479   -1.7709   -7.2098 H.spc      1 <1>        0.000
     19 H           0.0084   -2.0370   -4.8219 H.spc      1 <1>        0.000
     20 H          -1.0395   -0.0637   -5.3601 H.spc      1 <1>        0.000
@<TRIPOS>BOND
     1    6    7 2  
     2   10   11 am 
     3    9   10 1  
     4    8    9 2  
     5    5    6 am 
     6    4    5 1  
     7    1    2 1  
     8    1    8 1  
     9    2    3 1  
    10    3    4 2  
    11   11   12 2  
    12    3   13 1  
    13    4   14 1  
    14    5   15 1  
    15    6   16 1  
    16    8   17 1  
    17    9   18 1  
    18   10   19 1  
    19   11   20 1  
# Name:          frag3-195-6/31924 -- energy: -2.180125
# Creation time: Sat Jun  5 12:52:17 2010


@<TRIPOS>MOLECULE
frag3-195-6/31924 -- energy: -2.180125
   20    19     1     1     1
SMALL
USER_CHARGES


@<TRIPOS>ATOM
      1 S1          4.5311   -3.9112   -5.8517 S.3        1 <1>        0.000
      2 S2          2.8288   -3.8221   -6.9479 S.3        1 <1>        0.000
      3 C1          2.1830   -2.2440   -6.4058 C.2        1 <1>        0.000
      4 C2          0.8579   -2.0982   -6.2696 C.2        1 <1>        0.000
      5 N1          0.1850   -1.0013   -5.8368 N.am       1 <1>        0.000
      6 C9         -1.1490   -0.8381   -5.6763 C.2        1 <1>        0.000
      7 O1         -2.0050   -1.6524   -5.9799 O.2        1 <1>        0.000
      8 C20         5.4316   -2.5256   -6.5359 C.2        1 <1>        0.000
      9 C21         5.5981   -1.4305   -5.7811 C.2        1 <1>        0.000
     10 N5          6.2696   -0.2998   -6.1075 N.am       1 <1>        0.000
     11 C28         6.8183    0.0509   -7.2960 C.2        1 <1>        0.000
     12 O4          7.4651    1.0624   -7.5085 O.2        1 <1>        0.000
     13 H           2.8565   -1.4146   -6.1898 H.spc      1 <1>        0.000
     14 H           0.2488   -2.9615   -6.5377 H.spc      1 <1>        0.000
     15 H           0.7611   -0.1931   -5.6014 H.spc      1 <1>        0.000
     16 H          -1.4872    0.1010   -5.2384 H.spc      1 <1>        0.000
     17 H           5.8370   -2.5708   -7.5467 H.spc      1 <1>        0.000
     18 H           5.1411   -1.4520   -4.7918 H.spc      1 <1>        0.000
     19 H           6.3768    0.3809   -5.3554 H.spc      1 <1>        0.000
     20 H           6.6685   -0.6298   -8.1340 H.spc      1 <1>        0.000
@<TRIPOS>BOND
     1    6    7 2  
     2   10   11 am 
     3    9   10 1  
     4    8    9 2  
     5    5    6 am 
     6    4    5 1  
     7    1    2 1  
     8    1    8 1  
     9    2    3 1  
    10    3    4 2  
    11   11   12 2  
    12    3   13 1  
    13    4   14 1  
    14    5   15 1  
    15    6   16 1  
    16    8   17 1  
    17    9   18 1  
    18   10   19 1  
    19   11   20 1  
# Name:          frag3-195-6/31924 -- energy: -2.161376
# Creation time: Sat Jun  5 12:52:17 2010


@<TRIPOS>MOLECULE
frag3-195-6/31924 -- energy: -2.161376
   20    19     1     1     1
SMALL
USER_CHARGES


@<TRIPOS>ATOM
      1 S1          4.1312   -3.4529   -5.8913 S.3        1 <1>        0.000
      2 S2          2.9822   -3.3025   -7.5518 S.3        1 <1>        0.000
      3 C1          1.6419   -2.3100   -6.9357 C.2        1 <1>        0.000
      4 C2          0.6377   -2.9020   -6.2707 C.2        1 <1>        0.000
      5 N1         -0.4383   -2.3204   -5.6959 N.am       1 <1>        0.000
      6 C9         -0.8046   -1.0171   -5.7091 C.2        1 <1>        0.000
      7 O1         -1.7924   -0.5456   -5.1735 O.2        1 <1>        0.000
      8 C20         5.4704   -2.3631   -6.3127 C.2        1 <1>        0.000
      9 C21         5.2817   -1.0365   -6.2500 C.2        1 <1>        0.000
     10 N5          6.1762   -0.0580   -6.5042 N.am       1 <1>        0.000
     11 C28         7.4806   -0.1648   -6.8558 C.2        1 <1>        0.000
     12 O4          8.2478    0.7630   -7.0462 O.2        1 <1>        0.000
     13 H           1.6359   -1.2319   -7.0964 H.spc      1 <1>        0.000
     14 H           0.6974   -3.9869   -6.1833 H.spc      1 <1>        0.000
     15 H          -1.0578   -2.9478   -5.1831 H.spc      1 <1>        0.000
     16 H          -0.1565   -0.3262   -6.2483 H.spc      1 <1>        0.000
     17 H           6.4348   -2.7684   -6.6188 H.spc      1 <1>        0.000
     18 H           4.2840   -0.7085   -5.9581 H.spc      1 <1>        0.000
     19 H           5.8208    0.8944   -6.4199 H.spc      1 <1>        0.000
     20 H           7.8798   -1.1715   -6.9795 H.spc      1 <1>        0.000
@<TRIPOS>BOND
     1    6    7 2  
     2   10   11 am 
     3    9   10 1  
     4    8    9 2  
     5    5    6 am 
     6    4    5 1  
     7    1    2 1  
     8    1    8 1  
     9    2    3 1  
    10    3    4 2  
    11   11   12 2  
    12    3   13 1  
    13    4   14 1  
    14    5   15 1  
    15    6   16 1  
    16    8   17 1  
    17    9   18 1  
    18   10   19 1  
    19   11   20 1  
# Name:          frag3-195-6/31924 -- energy: -1.994336
# Creation time: Sat Jun  5 12:52:17 2010


@<TRIPOS>MOLECULE
frag3-195-6/31924 -- energy: -1.994336
   20    19     1     1     1
SMALL
USER_CHARGES


@<TRIPOS>ATOM
      1 S1          3.8531   -2.6123   -7.8158 S.3        1 <1>        0.000
      2 S2          2.9165   -4.0667   -6.7563 S.3        1 <1>        0.000
      3 C1          1.8848   -3.0630   -5.6886 C.2        1 <1>        0.000
      4 C2          0.7540   -2.5445   -6.1893 C.2        1 <1>        0.000
      5 N1         -0.1709   -1.7956   -5.5343 N.am       1 <1>        0.000
      6 C9         -1.3266   -1.2758   -6.0105 C.2        1 <1>        0.000
      7 O1         -2.2115   -0.7774   -5.3355 O.2        1 <1>        0.000
      8 C20         4.7474   -1.7816   -6.5045 C.2        1 <1>        0.000
      9 C21         5.8079   -1.0301   -6.8312 C.2        1 <1>        0.000
     10 N5          6.5898   -0.3040   -5.9930 N.am       1 <1>        0.000
     11 C28         7.7628    0.3225   -6.2538 C.2        1 <1>        0.000
     12 O4          8.4072    0.2187   -7.2841 O.2        1 <1>        0.000
     13 H           2.1707   -2.8777   -4.6532 H.spc      1 <1>        0.000
     14 H           0.5543   -2.7470   -7.2415 H.spc      1 <1>        0.000
     15 H           0.0322   -1.5990   -4.5543 H.spc      1 <1>        0.000
     16 H          -1.4792   -1.3053   -7.0894 H.spc      1 <1>        0.000
     17 H           4.4362   -1.8850   -5.4650 H.spc      1 <1>        0.000
     18 H           6.0718   -0.9987   -7.8883 H.spc      1 <1>        0.000
     19 H           6.2480   -0.2180   -5.0358 H.spc      1 <1>        0.000
     20 H           8.1641    0.9740   -5.4775 H.spc      1 <1>        0.000
@<TRIPOS>BOND
     1    6    7 2  
     2   10   11 am 
     3    9   10 1  
     4    8    9 2  
     5    5    6 am 
     6    4    5 1  
     7    1    2 1  
     8    1    8 1  
     9    2    3 1  
    10    3    4 2  
    11   11   12 2  
    12    3   13 1  
    13    4   14 1  
    14    5   15 1  
    15    6   16 1  
    16    8   17 1  
    17    9   18 1  
    18   10   19 1  
    19   11   20 1  
# Name:          frag3-195-6/31924 -- energy: -2.148057
# Creation time: Sat Jun  5 12:52:17 2010


@<TRIPOS>MOLECULE
frag3-195-6/31924 -- energy: -2.148057
   20    19     1     1     1
SMALL
USER_CHARGES


@<TRIPOS>ATOM
      1 S1          3.2513   -3.9510   -5.4629 S.3        1 <1>        0.000
      2 S2          4.6312   -4.2023   -6.9264 S.3        1 <1>        0.000
      3 C1          5.8100   -2.9370   -6.4748 C.2        1 <1>        0.000
      4 C2          5.4906   -1.6503   -6.6777 C.2        1 <1>        0.000
      5 N1          6.2281   -0.5540   -6.3674 N.am       1 <1>        0.000
      6 C9          5.8935    0.7516   -6.4914 C.2        1 <1>        0.000
      7 O1          4.8218    1.1745   -6.8926 O.2        1 <1>        0.000
      8 C20         1.8594   -3.3661   -6.4183 C.2        1 <1>        0.000
      9 C21         1.2813   -2.2077   -6.0741 C.2        1 <1>        0.000
     10 N5          0.2440   -1.5875   -6.6881 N.am       1 <1>        0.000
     11 C28        -0.3840   -0.4373   -6.3444 C.2        1 <1>        0.000
     12 O4         -0.1128    0.2573   -5.3788 O.2        1 <1>        0.000
     13 H           6.7731   -3.2068   -6.0414 H.spc      1 <1>        0.000
     14 H           4.5249   -1.4629   -7.1471 H.spc      1 <1>        0.000
     15 H           7.1579   -0.7385   -5.9908 H.spc      1 <1>        0.000
     16 H           6.6457    1.4880   -6.2087 H.spc      1 <1>        0.000
     17 H           1.4873   -3.9415   -7.2660 H.spc      1 <1>        0.000
     18 H           1.6928   -1.7055   -5.1986 H.spc      1 <1>        0.000
     19 H          -0.1128   -2.0506   -7.5240 H.spc      1 <1>        0.000
     20 H          -1.2007   -0.1043   -6.9848 H.spc      1 <1>        0.000
@<TRIPOS>BOND
     1    6    7 2  
     2   10   11 am 
     3    9   10 1  
     4    8    9 2  
     5    5    6 am 
     6    4    5 1  
     7    1    2 1  
     8    1    8 1  
     9    2    3 1  
    10    3    4 2  
    11   11   12 2  
    12    3   13 1  
    13    4   14 1  
    14    5   15 1  
    15    6   16 1  
    16    8   17 1  
    17    9   18 1  
    18   10   19 1  
    19   11   20 1  
# Name:          frag3-195-6/31924 -- energy: -2.082709
# Creation time: Sat Jun  5 12:52:17 2010


@<TRIPOS>MOLECULE
frag3-195-6/31924 -- energy: -2.082709
   20    19     1     1     1
SMALL
USER_CHARGES


@<TRIPOS>ATOM
      1 S1          4.2472   -3.7532   -7.3038 S.3        1 <1>        0.000
      2 S2          3.1327   -3.8708   -5.6195 S.3        1 <1>        0.000
      3 C1          1.8689   -2.6659   -5.9831 C.2        1 <1>        0.000
      4 C2          0.6671   -2.7784   -5.4031 C.2        1 <1>        0.000
      5 N1         -0.3968   -1.9506   -5.5264 N.am       1 <1>        0.000
      6 C9         -0.4962   -0.8006   -6.2338 C.2        1 <1>        0.000
      7 O1         -1.4546   -0.0477   -6.2415 O.2        1 <1>        0.000
      8 C20         4.9017   -2.1015   -7.1514 C.2        1 <1>        0.000
      9 C21         6.1961   -1.9410   -6.8449 C.2        1 <1>        0.000
     10 N5          6.8778   -0.7810   -6.7125 N.am       1 <1>        0.000
     11 C28         6.3989    0.4830   -6.6170 C.2        1 <1>        0.000
     12 O4          7.0717    1.4979   -6.5601 O.2        1 <1>        0.000
     13 H           2.0729   -1.8455   -6.6711 H.spc      1 <1>        0.000
     14 H           0.5287   -3.6418   -4.7524 H.spc      1 <1>        0.000
     15 H          -1.2358   -2.2307   -5.0184 H.spc      1 <1>        0.000
     16 H           0.3576   -0.5231   -6.8520 H.spc      1 <1>        0.000
     17 H           4.2583   -1.2352   -7.3053 H.spc      1 <1>        0.000
     18 H           6.7678   -2.8548   -6.6830 H.spc      1 <1>        0.000
     19 H           7.8934   -0.8696   -6.6800 H.spc      1 <1>        0.000
     20 H           5.3159    0.6029   -6.5885 H.spc      1 <1>        0.000
@<TRIPOS>BOND
     1    6    7 2  
     2   10   11 am 
     3    9   10 1  
     4    8    9 2  
     5    5    6 am 
     6    4    5 1  
     7    1    2 1  
     8    1    8 1  
     9    2    3 1  
    10    3    4 2  
    11   11   12 2  
    12    3   13 1  
    13    4   14 1  
    14    5   15 1  
    15    6   16 1  
    16    8   17 1  
    17    9   18 1  
    18   10   19 1  
    19   11   20 1  
# Name:          frag3-195-6/31924 -- energy: -2.462683
# Creation time: Sat Jun  5 12:52:17 2010


@<TRIPOS>MOLECULE
frag3-195-6/31924 -- energy: -2.462683
   20    19     1     1     1
SMALL
USER_CHARGES


@<TRIPOS>ATOM
      1 S1          3.2535   -3.6001   -4.8351 S.3        1 <1>        0.000
      2 S2          3.6875   -3.9811   -6.7794 S.3        1 <1>        0.000
      3 C1          5.2087   -3.0540   -6.9507 C.2        1 <1>        0.000
      4 C2          5.1563   -1.7141   -6.9183 C.2        1 <1>        0.000
      5 N1          6.1948   -0.8435   -6.9916 N.am       1 <1>        0.000
      6 C9          6.1767    0.5055   -6.8830 C.2        1 <1>        0.000
      7 O1          7.1450    1.2396   -6.9841 O.2        1 <1>        0.000
      8 C20         2.4436   -2.0121   -4.9877 C.2        1 <1>        0.000
      9 C21         1.2493   -1.9577   -5.5943 C.2        1 <1>        0.000
     10 N5          0.4690   -0.8643   -5.7807 N.am       1 <1>        0.000
     11 C28        -0.6914   -0.7551   -6.4718 C.2        1 <1>        0.000
     12 O4         -1.2785   -1.6730   -7.0202 O.2        1 <1>        0.000
     13 H           6.1608   -3.5690   -7.0791 H.spc      1 <1>        0.000
     14 H           4.1641   -1.2732   -6.8219 H.spc      1 <1>        0.000
     15 H           7.1116   -1.2617   -7.1497 H.spc      1 <1>        0.000
     16 H           5.2131    0.9764   -6.6883 H.spc      1 <1>        0.000
     17 H           2.9110   -1.1086   -4.5960 H.spc      1 <1>        0.000
     18 H           0.8612   -2.8997   -5.9819 H.spc      1 <1>        0.000
     19 H           0.8012   -0.0064   -5.3402 H.spc      1 <1>        0.000
     20 H          -1.1379    0.2366   -6.5438 H.spc      1 <1>        0.000
@<TRIPOS>BOND
     1    6    7 2  
     2   10   11 am 
     3    9   10 1  
     4    8    9 2  
     5    5    6 am 
     6    4    5 1  
     7    1    2 1  
     8    1    8 1  
     9    2    3 1  
    10    3    4 2  
    11   11   12 2  
    12    3   13 1  
    13    4   14 1  
    14    5   15 1  
    15    6   16 1  
    16    8   17 1  
    17    9   18 1  
    18   10   19 1  
    19   11   20 1  
# Name:          frag3-195-6/31924 -- energy: -2.069640
# Creation time: Sat Jun  5 12:52:17 2010


@<TRIPOS>MOLECULE
frag3-195-6/31924 -- energy: -2.069640
   20    19     1     1     1
SMALL
USER_CHARGES


@<TRIPOS>ATOM
      1 S1          3.1758   -3.1341   -7.6831 S.3        1 <1>        0.000
      2 S2          4.1319   -3.3156   -5.9037 S.3        1 <1>        0.000
      3 C1          4.6820   -1.6295   -5.6654 C.2        1 <1>        0.000
      4 C2          5.8148   -1.2298   -6.2616 C.2        1 <1>        0.000
      5 N1          6.3717    0.0084   -6.2342 N.am       1 <1>        0.000
      6 C9          7.4893    0.4452   -6.8607 C.2        1 <1>        0.000
      7 O1          8.2843   -0.2562   -7.4639 O.2        1 <1>        0.000
      8 C20         1.4718   -3.2424   -7.1493 C.2        1 <1>        0.000
      9 C21         0.9129   -2.1726   -6.5660 C.2        1 <1>        0.000
     10 N5         -0.3621   -2.0481   -6.1231 N.am       1 <1>        0.000
     11 C28        -0.9008   -1.0860   -5.3356 C.2        1 <1>        0.000
     12 O4         -2.0571   -1.0494   -4.9502 O.2        1 <1>        0.000
     13 H           4.1070   -0.9401   -5.0471 H.spc      1 <1>        0.000
     14 H           6.3506   -1.9865   -6.8346 H.spc      1 <1>        0.000
     15 H           5.8833    0.7009   -5.6665 H.spc      1 <1>        0.000
     16 H           7.6964    1.5147   -6.8229 H.spc      1 <1>        0.000
     17 H           0.9001   -4.1589   -7.2953 H.spc      1 <1>        0.000
     18 H           1.5573   -1.3037   -6.4327 H.spc      1 <1>        0.000
     19 H          -1.0052   -2.7802   -6.4244 H.spc      1 <1>        0.000
     20 H          -0.2443   -0.2753   -5.0195 H.spc      1 <1>        0.000
@<TRIPOS>BOND
     1    6    7 2  
     2   10   11 am 
     3    9   10 1  
     4    8    9 2  
     5    5    6 am 
     6    4    5 1  
     7    1    2 1  
     8    1    8 1  
     9    2    3 1  
    10    3    4 2  
    11   11   12 2  
    12    3   13 1  
    13    4   14 1  
    14    5   15 1  
    15    6   16 1  
    16    8   17 1  
    17    9   18 1  
    18   10   19 1  
    19   11   20 1  
# Name:          frag3-195-6/31924 -- energy: -2.439860
# Creation time: Sat Jun  5 12:52:17 2010


@<TRIPOS>MOLECULE
frag3-195-6/31924 -- energy: -2.439860
   20    19     1     1     1
SMALL
USER_CHARGES


@<TRIPOS>ATOM
      1 S1          3.3751   -3.6364   -7.4299 S.3        1 <1>        0.000
      2 S2          4.4483   -4.0583   -5.7635 S.3        1 <1>        0.000
      3 C1          4.8834   -2.4086   -5.2385 C.2        1 <1>        0.000
      4 C2          5.4275   -1.5647   -6.1288 C.2        1 <1>        0.000
      5 N1          5.7872   -0.2715   -5.9380 N.am       1 <1>        0.000
      6 C9          6.2984    0.6050   -6.8334 C.2        1 <1>        0.000
      7 O1          6.6065    0.3450   -7.9852 O.2        1 <1>        0.000
      8 C20         1.8929   -2.9592   -6.7037 C.2        1 <1>        0.000
      9 C21         1.6522   -1.6461   -6.8213 C.2        1 <1>        0.000
     10 N5          0.5792   -0.9584   -6.3678 N.am       1 <1>        0.000
     11 C28        -0.5161   -1.4206   -5.7172 C.2        1 <1>        0.000
     12 O4         -1.4201   -0.7362   -5.2695 O.2        1 <1>        0.000
     13 H           4.7097   -2.0915   -4.2102 H.spc      1 <1>        0.000
     14 H           5.6014   -1.9679   -7.1265 H.spc      1 <1>        0.000
     15 H           5.6548    0.0890   -4.9931 H.spc      1 <1>        0.000
     16 H           6.4477    1.6310   -6.4970 H.spc      1 <1>        0.000
     17 H           1.1932   -3.6041   -6.1721 H.spc      1 <1>        0.000
     18 H           2.4106   -1.0634   -7.3441 H.spc      1 <1>        0.000
     19 H           0.5970    0.0469   -6.5392 H.spc      1 <1>        0.000
     20 H          -0.5958   -2.4993   -5.5824 H.spc      1 <1>        0.000
@<TRIPOS>BOND
     1    6    7 2  
     2   10   11 am 
     3    9   10 1  
     4    8    9 2  
     5    5    6 am 
     6    4    5 1  
     7    1    2 1  
     8    1    8 1  
     9    2    3 1  
    10    3    4 2  
    11   11   12 2  
    12    3   13 1  
    13    4   14 1  
    14    5   15 1  
    15    6   16 1  
    16    8   17 1  
    17    9   18 1  
    18   10   19 1  
    19   11   20 1  
# Name:          frag3-195-6/31924 -- energy: -2.542963
# Creation time: Sat Jun  5 12:52:17 2010


@<TRIPOS>MOLECULE
frag3-195-6/31924 -- energy: -2.542963
   20    19     1     1     1
SMALL
USER_CHARGES


@<TRIPOS>ATOM
      1 S1          2.8818   -4.4758   -6.1996 S.3        1 <1>        0.000
      2 S2          4.8663   -4.3280   -6.5983 S.3        1 <1>        0.000
      3 C1          4.8900   -2.7787   -7.5017 C.2        1 <1>        0.000
      4 C2          5.2343   -1.6602   -6.8468 C.2        1 <1>        0.000
      5 N1          5.3474   -0.4070   -7.3610 N.am       1 <1>        0.000
      6 C9          5.5554    0.7581   -6.7036 C.2        1 <1>        0.000
      7 O1          5.7083    0.8748   -5.4996 O.2        1 <1>        0.000
      8 C20         2.5777   -2.8631   -5.4772 C.2        1 <1>        0.000
      9 C21         1.4978   -2.1788   -5.8808 C.2        1 <1>        0.000
     10 N5          1.0821   -0.9660   -5.4347 N.am       1 <1>        0.000
     11 C28         0.0583   -0.2005   -5.8848 C.2        1 <1>        0.000
     12 O4         -0.6849   -0.4847   -6.8088 O.2        1 <1>        0.000
     13 H           4.6303   -2.7470   -8.5598 H.spc      1 <1>        0.000
     14 H           5.4473   -1.7681   -5.7833 H.spc      1 <1>        0.000
     15 H           5.2647   -0.3350   -8.3751 H.spc      1 <1>        0.000
     16 H           5.5890    1.6690   -7.3013 H.spc      1 <1>        0.000
     17 H           3.2537   -2.4496   -4.7288 H.spc      1 <1>        0.000
     18 H           0.8865   -2.6478   -6.6518 H.spc      1 <1>        0.000
     19 H           1.6125   -0.5780   -4.6546 H.spc      1 <1>        0.000
     20 H          -0.1153    0.7489   -5.3783 H.spc      1 <1>        0.000
@<TRIPOS>BOND
     1    6    7 2  
     2   10   11 am 
     3    9   10 1  
     4    8    9 2  
     5    5    6 am 
     6    4    5 1  
     7    1    2 1  
     8    1    8 1  
     9    2    3 1  
    10    3    4 2  
    11   11   12 2  
    12    3   13 1  
    13    4   14 1  
    14    5   15 1  
    15    6   16 1  
    16    8   17 1  
    17    9   18 1  
    18   10   19 1  
    19   11   20 1  
# Name:          frag3-195-6/31924 -- energy: -2.445151
# Creation time: Sat Jun  5 12:52:17 2010


@<TRIPOS>MOLECULE
frag3-195-6/31924 -- energy: -2.445151
   20    19     1     1     1
SMALL
USER_CHARGES


@<TRIPOS>ATOM
      1 S1          3.5357   -3.6206   -5.1218 S.3        1 <1>        0.000
      2 S2          4.3215   -4.2137   -6.8920 S.3        1 <1>        0.000
      3 C1          5.6591   -3.0505   -7.0594 C.2        1 <1>        0.000
      4 C2          5.4145   -1.7410   -6.8956 C.2        1 <1>        0.000
      5 N1          6.2968   -0.7140   -6.9411 N.am       1 <1>        0.000
      6 C9          6.0674    0.6075   -6.7631 C.2        1 <1>        0.000
      7 O1          4.9886    1.1119   -6.4949 O.2        1 <1>        0.000
      8 C20         2.0065   -2.8865   -5.6597 C.2        1 <1>        0.000
      9 C21         1.7996   -1.5786   -5.4574 C.2        1 <1>        0.000
     10 N5          0.7264   -0.8427   -5.8210 N.am       1 <1>        0.000
     11 C28        -0.4320   -1.2498   -6.3942 C.2        1 <1>        0.000
     12 O4         -1.3697   -0.5320   -6.6965 O.2        1 <1>        0.000
     13 H           6.6656   -3.3981   -7.2924 H.spc      1 <1>        0.000
     14 H           4.3766   -1.4701   -6.7018 H.spc      1 <1>        0.000
     15 H           7.2643   -0.9717   -7.1358 H.spc      1 <1>        0.000
     16 H           6.9191    1.2795   -6.8682 H.spc      1 <1>        0.000
     17 H           1.2459   -3.4950   -6.1489 H.spc      1 <1>        0.000
     18 H           2.5932   -1.0431   -4.9363 H.spc      1 <1>        0.000
     19 H           0.7981    0.1583   -5.6387 H.spc      1 <1>        0.000
     20 H          -0.5345   -2.3145   -6.6037 H.spc      1 <1>        0.000
@<TRIPOS>BOND
     1    6    7 2  
     2   10   11 am 
     3    9   10 1  
     4    8    9 2  
     5    5    6 am 
     6    4    5 1  
     7    1    2 1  
     8    1    8 1  
     9    2    3 1  
    10    3    4 2  
    11   11   12 2  
    12    3   13 1  
    13    4   14 1  
    14    5   15 1  
    15    6   16 1  
    16    8   17 1  
    17    9   18 1  
    18   10   19 1  
    19   11   20 1  
# Name:          frag3-195-6/31924 -- energy: -1.958900
# Creation time: Sat Jun  5 12:52:17 2010


@<TRIPOS>MOLECULE
frag3-195-6/31924 -- energy: -1.958900
   20    19     1     1     1
SMALL
USER_CHARGES


@<TRIPOS>ATOM
      1 S1          4.8074   -3.8587   -6.4089 S.3        1 <1>        0.000
      2 S2          3.1134   -3.6890   -7.5085 S.3        1 <1>        0.000
      3 C1          2.3115   -2.3383   -6.6514 C.2        1 <1>        0.000
      4 C2          0.9774   -2.3517   -6.5256 C.2        1 <1>        0.000
      5 N1          0.1967   -1.4472   -5.8827 N.am       1 <1>        0.000
      6 C9         -1.1449   -1.4625   -5.7044 C.2        1 <1>        0.000
      7 O1         -1.8118   -0.5499   -5.2471 O.2        1 <1>        0.000
      8 C20         5.5208   -2.2375   -6.6578 C.2        1 <1>        0.000
      9 C21         5.6160   -1.4085   -5.6088 C.2        1 <1>        0.000
     10 N5          6.1486   -0.1617   -5.5891 N.am       1 <1>        0.000
     11 C28         6.6229    0.5750   -6.6229 C.2        1 <1>        0.000
     12 O4          6.6563    0.2201   -7.7896 O.2        1 <1>        0.000
     13 H           2.8986   -1.5180   -6.2384 H.spc      1 <1>        0.000
     14 H           0.4584   -3.1875   -6.9949 H.spc      1 <1>        0.000
     15 H           0.6866   -0.6485   -5.4797 H.spc      1 <1>        0.000
     16 H          -1.6752   -2.3694   -5.9948 H.spc      1 <1>        0.000
     17 H           5.8712   -1.9298   -7.6430 H.spc      1 <1>        0.000
     18 H           5.2199   -1.7791   -4.6633 H.spc      1 <1>        0.000
     19 H           6.1991    0.2818   -4.6719 H.spc      1 <1>        0.000
     20 H           7.0070    1.5687   -6.3925 H.spc      1 <1>        0.000
@<TRIPOS>BOND
     1    6    7 2  
     2   10   11 am 
     3    9   10 1  
     4    8    9 2  
     5    5    6 am 
     6    4    5 1  
     7    1    2 1  
     8    1    8 1  
     9    2    3 1  
    10    3    4 2  
    11   11   12 2  
    12    3   13 1  
    13    4   14 1  
    14    5   15 1  
    15    6   16 1  
    16    8   17 1  
    17    9   18 1  
    18   10   19 1  
    19   11   20 1  
# Name:          frag3-195-6/31924 -- energy: -1.483279
# Creation time: Sat Jun  5 12:52:17 2010


@<TRIPOS>MOLECULE
frag3-195-6/31924 -- energy: -1.483279
   20    19     1     1     1
SMALL
USER_CHARGES


@<TRIPOS>ATOM
      1 S1          3.0186   -2.2973   -4.9147 S.3        1 <1>        0.000
      2 S2          4.5686   -3.2420   -5.8084 S.3        1 <1>        0.000
      3 C1          5.6125   -1.8518   -6.2069 C.2        1 <1>        0.000
      4 C2          6.5111   -1.9677   -7.1936 C.2        1 <1>        0.000
      5 N1          7.3597   -1.0194   -7.6627 N.am       1 <1>        0.000
      6 C9          7.4821    0.2696   -7.2669 C.2        1 <1>        0.000
      7 O1          6.7912    0.8237   -6.4272 O.2        1 <1>        0.000
      8 C20         1.7455   -2.5013   -6.1467 C.2        1 <1>        0.000
      9 C21         0.5417   -1.9557   -5.9351 C.2        1 <1>        0.000
     10 N5         -0.5349   -1.9767   -6.7570 N.am       1 <1>        0.000
     11 C28        -1.8326   -1.7177   -6.4677 C.2        1 <1>        0.000
     12 O4         -2.2489   -1.2736   -5.4100 O.2        1 <1>        0.000
     13 H           5.5202   -0.9174   -5.6532 H.spc      1 <1>        0.000
     14 H           6.5671   -2.9424   -7.6783 H.spc      1 <1>        0.000
     15 H           7.9869   -1.3157   -8.4105 H.spc      1 <1>        0.000
     16 H           8.2649    0.8634   -7.7387 H.spc      1 <1>        0.000
     17 H           1.9449   -3.0626   -7.0595 H.spc      1 <1>        0.000
     18 H           0.4122   -1.4318   -4.9881 H.spc      1 <1>        0.000
     19 H          -0.3416   -2.2214   -7.7282 H.spc      1 <1>        0.000
     20 H          -2.5676   -1.9235   -7.2459 H.spc      1 <1>        0.000
@<TRIPOS>BOND
     1    6    7 2  
     2   10   11 am 
     3    9   10 1  
     4    8    9 2  
     5    5    6 am 
     6    4    5 1  
     7    1    2 1  
     8    1    8 1  
     9    2    3 1  
    10    3    4 2  
    11   11   12 2  
    12    3   13 1  
    13    4   14 1  
    14    5   15 1  
    15    6   16 1  
    16    8   17 1  
    17    9   18 1  
    18   10   19 1  
    19   11   20 1  
# Name:          frag3-195-6/31924 -- energy: -1.765406
# Creation time: Sat Jun  5 12:52:17 2010


@<TRIPOS>MOLECULE
frag3-195-6/31924 -- energy: -1.765406
   20    19     1     1     1
SMALL
USER_CHARGES


@<TRIPOS>ATOM
      1 S1          3.9156   -1.6655   -4.3391 S.3        1 <1>        0.000
      2 S2          2.7831   -0.2945   -5.3079 S.3        1 <1>        0.000
      3 C1          1.3104   -1.2505   -5.6174 C.2        1 <1>        0.000
      4 C2          0.6656   -1.1064   -6.7829 C.2        1 <1>        0.000
      5 N1         -0.4379   -1.7669   -7.2124 N.am       1 <1>        0.000
      6 C9         -1.0865   -2.7957   -6.6176 C.2        1 <1>        0.000
      7 O1         -0.7905   -3.2976   -5.5451 O.2        1 <1>        0.000
      8 C20         4.8843   -2.3086   -5.6905 C.2        1 <1>        0.000
      9 C21         5.7851   -1.5080   -6.2790 C.2        1 <1>        0.000
     10 N5          6.6302   -1.8135   -7.2920 N.am       1 <1>        0.000
     11 C28         7.5885   -1.0455   -7.8633 C.2        1 <1>        0.000
     12 O4          7.7666    0.1429   -7.6497 O.2        1 <1>        0.000
     13 H           0.9380   -1.9459   -4.8652 H.spc      1 <1>        0.000
     14 H           1.0786   -0.3678   -7.4699 H.spc      1 <1>        0.000
     15 H          -0.8301   -1.4474   -8.0981 H.spc      1 <1>        0.000
     16 H          -1.9471   -3.2116   -7.1416 H.spc      1 <1>        0.000
     17 H           4.7469   -3.3344   -6.0325 H.spc      1 <1>        0.000
     18 H           5.8440   -0.4892   -5.8959 H.spc      1 <1>        0.000
     19 H           6.5314   -2.7523   -7.6784 H.spc      1 <1>        0.000
     20 H           8.2576   -1.5300   -8.5744 H.spc      1 <1>        0.000
@<TRIPOS>BOND
     1    6    7 2  
     2   10   11 am 
     3    9   10 1  
     4    8    9 2  
     5    5    6 am 
     6    4    5 1  
     7    1    2 1  
     8    1    8 1  
     9    2    3 1  
    10    3    4 2  
    11   11   12 2  
    12    3   13 1  
    13    4   14 1  
    14    5   15 1  
    15    6   16 1  
    16    8   17 1  
    17    9   18 1  
    18   10   19 1  
    19   11   20 1  
# Name:          frag3-195-6/31924 -- energy: -2.565801
# Creation time: Sat Jun  5 12:52:17 2010


@<TRIPOS>MOLECULE
frag3-195-6/31924 -- energy: -2.565801
   20    19     1     1     1
SMALL
USER_CHARGES


@<TRIPOS>ATOM
      1 S1          2.6947   -4.2066   -5.1109 S.3        1 <1>        0.000
      2 S2          4.0646   -4.3625   -6.5968 S.3        1 <1>        0.000
      3 C1          5.1524   -3.0113   -6.1686 C.2        1 <1>        0.000
      4 C2          4.9238   -1.7989   -6.6940 C.2        1 <1>        0.000
      5 N1          5.6057   -0.6509   -6.4628 N.am       1 <1>        0.000
      6 C9          5.4141    0.5740   -7.0053 C.2        1 <1>        0.000
      7 O1          6.1434    1.5400   -6.8593 O.2        1 <1>        0.000
      8 C20         1.9432   -2.6396   -5.5223 C.2        1 <1>        0.000
      9 C21         1.2063   -2.5514   -6.6395 C.2        1 <1>        0.000
     10 N5          0.5371   -1.4693   -7.1053 N.am       1 <1>        0.000
     11 C28         0.4250   -0.2381   -6.5504 C.2        1 <1>        0.000
     12 O4          0.9041    0.1047   -5.4816 O.2        1 <1>        0.000
     13 H           5.9902   -3.1703   -5.4897 H.spc      1 <1>        0.000
     14 H           4.0888   -1.7283   -7.3911 H.spc      1 <1>        0.000
     15 H           6.3673   -0.7194   -5.7878 H.spc      1 <1>        0.000
     16 H           4.5296    0.7088   -7.6278 H.spc      1 <1>        0.000
     17 H           2.0808   -1.7714   -4.8777 H.spc      1 <1>        0.000
     18 H           1.1378   -3.4562   -7.2434 H.spc      1 <1>        0.000
     19 H           0.0523   -1.5989   -7.9933 H.spc      1 <1>        0.000
     20 H          -0.1412    0.5096   -7.1058 H.spc      1 <1>        0.000
@<TRIPOS>BOND
     1    6    7 2  
     2   10   11 am 
     3    9   10 1  
     4    8    9 2  
     5    5    6 am 
     6    4    5 1  
     7    1    2 1  
     8    1    8 1  
     9    2    3 1  
    10    3    4 2  
    11   11   12 2  
    12    3   13 1  
    13    4   14 1  
    14    5   15 1  
    15    6   16 1  
    16    8   17 1  
    17    9   18 1  
    18   10   19 1  
    19   11   20 1  
# Name:          frag3-195-6/31924 -- energy: -1.636490
# Creation time: Sat Jun  5 12:52:17 2010


@<TRIPOS>MOLECULE
frag3-195-6/31924 -- energy: -1.636490
   20    19     1     1     1
SMALL
USER_CHARGES


@<TRIPOS>ATOM
      1 S1          3.9830   -2.0627   -5.6668 S.3        1 <1>        0.000
      2 S2          2.6724   -2.0659   -7.2077 S.3        1 <1>        0.000
      3 C1          1.1245   -2.0562   -6.3246 C.2        1 <1>        0.000
      4 C2         -0.0225   -2.1538   -7.0093 C.2        1 <1>        0.000
      5 N1         -1.2830   -2.2020   -6.5165 N.am       1 <1>        0.000
      6 C9         -1.6862   -2.1966   -5.2241 C.2        1 <1>        0.000
      7 O1         -2.8365   -2.3002   -4.8355 O.2        1 <1>        0.000
      8 C20         5.4190   -1.3516   -6.4450 C.2        1 <1>        0.000
      9 C21         6.5265   -1.1593   -5.7177 C.2        1 <1>        0.000
     10 N5          7.7150   -0.6661   -6.1345 N.am       1 <1>        0.000
     11 C28         8.1375   -0.4148   -7.3974 C.2        1 <1>        0.000
     12 O4          9.2650   -0.0807   -7.7179 O.2        1 <1>        0.000
     13 H           1.1113   -1.9717   -5.2380 H.spc      1 <1>        0.000
     14 H           0.0698   -2.2000   -8.0944 H.spc      1 <1>        0.000
     15 H          -2.0279   -2.2486   -7.2117 H.spc      1 <1>        0.000
     16 H          -0.9129   -2.0901   -4.4633 H.spc      1 <1>        0.000
     17 H           5.3963   -1.0766   -7.4995 H.spc      1 <1>        0.000
     18 H           6.4628   -1.4327   -4.6645 H.spc      1 <1>        0.000
     19 H           8.3861   -0.4540   -5.3962 H.spc      1 <1>        0.000
     20 H           7.4044   -0.5208   -8.1970 H.spc      1 <1>        0.000
@<TRIPOS>BOND
     1    6    7 2  
     2   10   11 am 
     3    9   10 1  
     4    8    9 2  
     5    5    6 am 
     6    4    5 1  
     7    1    2 1  
     8    1    8 1  
     9    2    3 1  
    10    3    4 2  
    11   11   12 2  
    12    3   13 1  
    13    4   14 1  
    14    5   15 1  
    15    6   16 1  
    16    8   17 1  
    17    9   18 1  
    18   10   19 1  
    19   11   20 1  
# Name:          frag3-195-6/31924 -- energy: -2.015797
# Creation time: Sat Jun  5 12:52:17 2010


@<TRIPOS>MOLECULE
frag3-195-6/31924 -- energy: -2.015797
   20    19     1     1     1
SMALL
USER_CHARGES


@<TRIPOS>ATOM
      1 S1          3.8068   -2.6478   -5.5675 S.3        1 <1>        0.000
      2 S2          3.0185   -2.4630   -7.4275 S.3        1 <1>        0.000
      3 C1          1.5952   -1.4385   -7.0663 C.2        1 <1>        0.000
      4 C2          0.5511   -1.9875   -6.4282 C.2        1 <1>        0.000
      5 N1         -0.5937   -1.3718   -6.0346 N.am       1 <1>        0.000
      6 C9         -1.7100   -1.9248   -5.5052 C.2        1 <1>        0.000
      7 O1         -1.8569   -3.1049   -5.2343 O.2        1 <1>        0.000
      8 C20         4.8521   -1.1958   -5.5131 C.2        1 <1>        0.000
      9 C21         5.9720   -1.1858   -6.2499 C.2        1 <1>        0.000
     10 N5          6.8710   -0.1769   -6.3670 N.am       1 <1>        0.000
     11 C28         8.0261   -0.1449   -7.0748 C.2        1 <1>        0.000
     12 O4          8.4823   -1.0684   -7.7282 O.2        1 <1>        0.000
     13 H           1.5776   -0.3888   -7.3594 H.spc      1 <1>        0.000
     14 H           0.6304   -3.0502   -6.1991 H.spc      1 <1>        0.000
     15 H          -0.6151   -0.3590   -6.1536 H.spc      1 <1>        0.000
     16 H          -2.5490   -1.2588   -5.3039 H.spc      1 <1>        0.000
     17 H           4.5841   -0.3390   -4.8948 H.spc      1 <1>        0.000
     18 H           6.1841   -2.0908   -6.8193 H.spc      1 <1>        0.000
     19 H           6.6469    0.6743   -5.8517 H.spc      1 <1>        0.000
     20 H           8.5956    0.7844   -7.0589 H.spc      1 <1>        0.000
@<TRIPOS>BOND
     1    6    7 2  
     2   10   11 am 
     3    9   10 1  
     4    8    9 2  
     5    5    6 am 
     6    4    5 1  
     7    1    2 1  
     8    1    8 1  
     9    2    3 1  
    10    3    4 2  
    11   11   12 2  
    12    3   13 1  
    13    4   14 1  
    14    5   15 1  
    15    6   16 1  
    16    8   17 1  
    17    9   18 1  
    18   10   19 1  
    19   11   20 1  
# Name:          frag3-195-6/31924 -- energy: -1.845523
# Creation time: Sat Jun  5 12:52:17 2010


@<TRIPOS>MOLECULE
frag3-195-6/31924 -- energy: -1.845523
   20    19     1     1     1
SMALL
USER_CHARGES


@<TRIPOS>ATOM
      1 S1          2.7771   -0.8913   -6.5823 S.3        1 <1>        0.000
      2 S2          3.7205   -1.9753   -5.1511 S.3        1 <1>        0.000
      3 C1          5.3078   -2.2253   -5.9380 C.2        1 <1>        0.000
      4 C2          6.0451   -1.1517   -6.2592 C.2        1 <1>        0.000
      5 N1          7.2796   -1.1344   -6.8225 N.am       1 <1>        0.000
      6 C9          8.0297   -0.0671   -7.1835 C.2        1 <1>        0.000
      7 O1          9.1596   -0.1141   -7.6394 O.2        1 <1>        0.000
      8 C20         1.4503   -2.0093   -7.0164 C.2        1 <1>        0.000
      9 C21         0.2969   -1.9292   -6.3381 C.2        1 <1>        0.000
     10 N5         -0.8272   -2.6618   -6.5348 N.am       1 <1>        0.000
     11 C28        -1.9956   -2.6278   -5.8495 C.2        1 <1>        0.000
     12 O4         -2.2292   -1.9226   -4.8819 O.2        1 <1>        0.000
     13 H           5.6689   -3.2311   -6.1524 H.spc      1 <1>        0.000
     14 H           5.6010   -0.1802   -6.0425 H.spc      1 <1>        0.000
     15 H           7.6983   -2.0480   -6.9972 H.spc      1 <1>        0.000
     16 H           7.5852    0.9199   -7.0556 H.spc      1 <1>        0.000
     17 H           1.5768   -2.7400   -7.8153 H.spc      1 <1>        0.000
     18 H           0.2581   -1.1910   -5.5371 H.spc      1 <1>        0.000
     19 H          -0.7877   -3.3302   -7.3043 H.spc      1 <1>        0.000
     20 H          -2.7941   -3.2861   -6.1917 H.spc      1 <1>        0.000
@<TRIPOS>BOND
     1    6    7 2  
     2   10   11 am 
     3    9   10 1  
     4    8    9 2  
     5    5    6 am 
     6    4    5 1  
     7    1    2 1  
     8    1    8 1  
     9    2    3 1  
    10    3    4 2  
    11   11   12 2  
    12    3   13 1  
    13    4   14 1  
    14    5   15 1  
    15    6   16 1  
    16    8   17 1  
    17    9   18 1  
    18   10   19 1  
    19   11   20 1  
# Name:          frag3-195-6/31924 -- energy: -1.647665
# Creation time: Sat Jun  5 12:52:17 2010


@<TRIPOS>MOLECULE
frag3-195-6/31924 -- energy: -1.647665
   20    19     1     1     1
SMALL
USER_CHARGES


@<TRIPOS>ATOM
      1 S1          2.8223   -1.3605   -5.7793 S.3        1 <1>        0.000
      2 S2          4.3751   -2.6088   -5.4049 S.3        1 <1>        0.000
      3 C1          5.4105   -2.2626   -6.8224 C.2        1 <1>        0.000
      4 C2          6.3855   -1.3498   -6.7023 C.2        1 <1>        0.000
      5 N1          7.2908   -0.9775   -7.6434 N.am       1 <1>        0.000
      6 C9          8.2622   -0.0390   -7.5554 C.2        1 <1>        0.000
      7 O1          8.5111    0.6339   -6.5690 O.2        1 <1>        0.000
      8 C20         1.4520   -2.5068   -5.6923 C.2        1 <1>        0.000
      9 C21         0.2104   -2.0392   -5.8784 C.2        1 <1>        0.000
     10 N5         -0.9456   -2.7485   -5.8807 N.am       1 <1>        0.000
     11 C28        -2.2174   -2.3016   -6.0172 C.2        1 <1>        0.000
     12 O4         -2.5423   -1.1494   -6.2515 O.2        1 <1>        0.000
     13 H           5.2517   -2.7841   -7.7663 H.spc      1 <1>        0.000
     14 H           6.4599   -0.8485   -5.7373 H.spc      1 <1>        0.000
     15 H           7.2309   -1.4702   -8.5345 H.spc      1 <1>        0.000
     16 H           8.8741    0.1298   -8.4415 H.spc      1 <1>        0.000
     17 H           1.6236   -3.5644   -5.4919 H.spc      1 <1>        0.000
     18 H           0.1188   -0.9663   -6.0472 H.spc      1 <1>        0.000
     19 H          -0.8436   -3.7566   -5.7636 H.spc      1 <1>        0.000
     20 H          -3.0178   -3.0335   -5.9085 H.spc      1 <1>        0.000
@<TRIPOS>BOND
     1    6    7 2  
     2   10   11 am 
     3    9   10 1  
     4    8    9 2  
     5    5    6 am 
     6    4    5 1  
     7    1    2 1  
     8    1    8 1  
     9    2    3 1  
    10    3    4 2  
    11   11   12 2  
    12    3   13 1  
    13    4   14 1  
    14    5   15 1  
    15    6   16 1  
    16    8   17 1  
    17    9   18 1  
    18   10   19 1  
    19   11   20 1  
# Name:          frag3-195-6/31924 -- energy: -1.923381
# Creation time: Sat Jun  5 12:52:17 2010


@<TRIPOS>MOLECULE
frag3-195-6/31924 -- energy: -1.923381
   20    19     1     1     1
SMALL
USER_CHARGES


@<TRIPOS>ATOM
      1 S1          3.2858   -3.3441   -7.2126 S.3        1 <1>        0.000
      2 S2          4.7047   -4.0079   -5.9259 S.3        1 <1>        0.000
      3 C1          5.3663   -2.4492   -5.3515 C.2        1 <1>        0.000
      4 C2          5.7293   -1.5278   -6.2566 C.2        1 <1>        0.000
      5 N1          6.2122   -0.2812   -6.0225 N.am       1 <1>        0.000
      6 C9          6.5444    0.6776   -6.9181 C.2        1 <1>        0.000
      7 O1          6.3657    0.6156   -8.1233 O.2        1 <1>        0.000
      8 C20         1.8869   -3.1948   -6.1103 C.2        1 <1>        0.000
      9 C21         0.9665   -2.2542   -6.3594 C.2        1 <1>        0.000
     10 N5         -0.1704   -2.0063   -5.6637 N.am       1 <1>        0.000
     11 C28        -1.0005   -0.9384   -5.7422 C.2        1 <1>        0.000
     12 O4         -0.8763    0.0009   -6.5108 O.2        1 <1>        0.000
     13 H           5.4728   -2.2511   -4.2850 H.spc      1 <1>        0.000
     14 H           5.6240   -1.8141   -7.3031 H.spc      1 <1>        0.000
     15 H           6.3420   -0.0341   -5.0414 H.spc      1 <1>        0.000
     16 H           7.0115    1.5825   -6.5294 H.spc      1 <1>        0.000
     17 H           1.7846   -3.8573   -5.2508 H.spc      1 <1>        0.000
     18 H           1.1532   -1.6138   -7.2214 H.spc      1 <1>        0.000
     19 H          -0.4376   -2.7223   -4.9882 H.spc      1 <1>        0.000
     20 H          -1.8512   -0.9166   -5.0611 H.spc      1 <1>        0.000
@<TRIPOS>BOND
     1    6    7 2  
     2   10   11 am 
     3    9   10 1  
     4    8    9 2  
     5    5    6 am 
     6    4    5 1  
     7    1    2 1  
     8    1    8 1  
     9    2    3 1  
    10    3    4 2  
    11   11   12 2  
    12    3   13 1  
    13    4   14 1  
    14    5   15 1  
    15    6   16 1  
    16    8   17 1  
    17    9   18 1  
    18   10   19 1  
    19   11   20 1  
# Name:          frag3-195-6/31924 -- energy: -3.721319
# Creation time: Sat Jun  5 12:52:17 2010


@<TRIPOS>MOLECULE
frag3-195-6/31924 -- energy: -3.721319
   20    19     1     1     1
SMALL
USER_CHARGES


@<TRIPOS>ATOM
      1 S1          4.7479   -4.3951   -6.7293 S.3        1 <1>        0.000
      2 S2          2.7592   -4.7312   -6.5170 S.3        1 <1>        0.000
      3 C1          2.3221   -3.3708   -5.4379 C.2        1 <1>        0.000
      4 C2          1.8970   -2.2230   -5.9856 C.2        1 <1>        0.000
      5 N1          1.4881   -1.1004   -5.3398 N.am       1 <1>        0.000
      6 C9          1.1749    0.1077   -5.8636 C.2        1 <1>        0.000
      7 O1          1.1558    0.3821   -7.0520 O.2        1 <1>        0.000
      8 C20         4.7228   -2.8005   -7.5419 C.2        1 <1>        0.000
      9 C21         4.7301   -1.6947   -6.7842 C.2        1 <1>        0.000
     10 N5          4.7437   -0.4064   -7.2079 N.am       1 <1>        0.000
     11 C28         4.7200    0.7312   -6.4723 C.2        1 <1>        0.000
     12 O4          4.5528    0.7912   -5.2654 O.2        1 <1>        0.000
     13 H           2.4001   -3.4738   -4.3556 H.spc      1 <1>        0.000
     14 H           1.8774   -2.1868   -7.0748 H.spc      1 <1>        0.000
     15 H           1.4062   -1.1780   -4.3261 H.spc      1 <1>        0.000
     16 H           0.9179    0.9031   -5.1640 H.spc      1 <1>        0.000
     17 H           4.7020   -2.7301   -8.6294 H.spc      1 <1>        0.000
     18 H           4.7245   -1.8484   -5.7051 H.spc      1 <1>        0.000
     19 H           4.7762   -0.2760   -8.2190 H.spc      1 <1>        0.000
     20 H           4.8623    1.6722   -7.0038 H.spc      1 <1>        0.000
@<TRIPOS>BOND
     1    6    7 2  
     2   10   11 am 
     3    9   10 1  
     4    8    9 2  
     5    5    6 am 
     6    4    5 1  
     7    1    2 1  
     8    1    8 1  
     9    2    3 1  
    10    3    4 2  
    11   11   12 2  
    12    3   13 1  
    13    4   14 1  
    14    5   15 1  
    15    6   16 1  
    16    8   17 1  
    17    9   18 1  
    18   10   19 1  
    19   11   20 1  
# Name:          frag3-195-6/31924 -- energy: -2.659152
# Creation time: Sat Jun  5 12:52:17 2010


@<TRIPOS>MOLECULE
frag3-195-6/31924 -- energy: -2.659152
   20    19     1     1     1
SMALL
USER_CHARGES


@<TRIPOS>ATOM
      1 S1          3.1274   -4.4610   -5.9575 S.3        1 <1>        0.000
      2 S2          4.4518   -4.1114   -7.4511 S.3        1 <1>        0.000
      3 C1          5.5362   -2.9405   -6.6455 C.2        1 <1>        0.000
      4 C2          5.2755   -1.6299   -6.7569 C.2        1 <1>        0.000
      5 N1          5.9517   -0.5982   -6.1914 N.am       1 <1>        0.000
      6 C9          5.6608    0.7232   -6.2272 C.2        1 <1>        0.000
      7 O1          4.6894    1.2214   -6.7718 O.2        1 <1>        0.000
      8 C20         2.3430   -2.8601   -5.8333 C.2        1 <1>        0.000
      9 C21         1.0745   -2.7301   -6.2451 C.2        1 <1>        0.000
     10 N5          0.3048   -1.6165   -6.2064 N.am       1 <1>        0.000
     11 C28         0.6733   -0.3351   -5.9639 C.2        1 <1>        0.000
     12 O4         -0.0739    0.6282   -5.9469 O.2        1 <1>        0.000
     13 H           6.3963   -3.2867   -6.0724 H.spc      1 <1>        0.000
     14 H           4.4188   -1.3614   -7.3750 H.spc      1 <1>        0.000
     15 H           6.7908   -0.8523   -5.6700 H.spc      1 <1>        0.000
     16 H           6.3535    1.3999   -5.7268 H.spc      1 <1>        0.000
     17 H           2.8862   -2.0054   -5.4301 H.spc      1 <1>        0.000
     18 H           0.6082   -3.6241   -6.6591 H.spc      1 <1>        0.000
     19 H          -0.6889   -1.7623   -6.3842 H.spc      1 <1>        0.000
     20 H           1.7292   -0.1496   -5.7670 H.spc      1 <1>        0.000
@<TRIPOS>BOND
     1    6    7 2  
     2   10   11 am 
     3    9   10 1  
     4    8    9 2  
     5    5    6 am 
     6    4    5 1  
     7    1    2 1  
     8    1    8 1  
     9    2    3 1  
    10    3    4 2  
    11   11   12 2  
    12    3   13 1  
    13    4   14 1  
    14    5   15 1  
    15    6   16 1  
    16    8   17 1  
    17    9   18 1  
    18   10   19 1  
    19   11   20 1  
# Name:          frag3-195-6/31924 -- energy: -2.243211
# Creation time: Sat Jun  5 12:52:17 2010


@<TRIPOS>MOLECULE
frag3-195-6/31924 -- energy: -2.243211
   20    19     1     1     1
SMALL
USER_CHARGES


@<TRIPOS>ATOM
      1 S1          4.8748   -4.0430   -6.3071 S.3        1 <1>        0.000
      2 S2          3.1117   -4.4143   -7.2332 S.3        1 <1>        0.000
      3 C1          1.9917   -3.5445   -6.1445 C.2        1 <1>        0.000
      4 C2          1.5628   -2.3230   -6.4935 C.2        1 <1>        0.000
      5 N1          0.6924   -1.5267   -5.8255 N.am       1 <1>        0.000
      6 C9          0.2118   -0.3119   -6.1792 C.2        1 <1>        0.000
      7 O1         -0.5538    0.3704   -5.5199 O.2        1 <1>        0.000
      8 C20         4.9231   -2.2588   -6.3947 C.2        1 <1>        0.000
      9 C21         6.1080   -1.6508   -6.5377 C.2        1 <1>        0.000
     10 N5          6.3463   -0.3216   -6.6548 N.am       1 <1>        0.000
     11 C28         5.4679    0.7075   -6.5783 C.2        1 <1>        0.000
     12 O4          4.2777    0.6070   -6.3286 O.2        1 <1>        0.000
     13 H           1.6624   -4.0004   -5.2108 H.spc      1 <1>        0.000
     14 H           1.9615   -1.9224   -7.4255 H.spc      1 <1>        0.000
     15 H           0.3538   -1.8927   -4.9357 H.spc      1 <1>        0.000
     16 H           0.5379    0.0919   -7.1377 H.spc      1 <1>        0.000
     17 H           4.0044   -1.6755   -6.3328 H.spc      1 <1>        0.000
     18 H           6.9827   -2.3007   -6.5628 H.spc      1 <1>        0.000
     19 H           7.3179   -0.0607   -6.8232 H.spc      1 <1>        0.000
     20 H           5.8576    1.7100   -6.7548 H.spc      1 <1>        0.000
@<TRIPOS>BOND
     1    6    7 2  
     2   10   11 am 
     3    9   10 1  
     4    8    9 2  
     5    5    6 am 
     6    4    5 1  
     7    1    2 1  
     8    1    8 1  
     9    2    3 1  
    10    3    4 2  
    11   11   12 2  
    12    3   13 1  
    13    4   14 1  
    14    5   15 1  
    15    6   16 1  
    16    8   17 1  
    17    9   18 1  
    18   10   19 1  
    19   11   20 1  
# Name:          frag3-195-6/31924 -- energy: -2.144802
# Creation time: Sat Jun  5 12:52:17 2010


@<TRIPOS>MOLECULE
frag3-195-6/31924 -- energy: -2.144802
   20    19     1     1     1
SMALL
USER_CHARGES


@<TRIPOS>ATOM
      1 S1          3.0207   -3.8896   -6.8915 S.3        1 <1>        0.000
      2 S2          4.0942   -3.9315   -5.1728 S.3        1 <1>        0.000
      3 C1          4.6941   -2.2488   -5.1325 C.2        1 <1>        0.000
      4 C2          5.2895   -1.7460   -6.2249 C.2        1 <1>        0.000
      5 N1          5.7725   -0.4927   -6.4050 N.am       1 <1>        0.000
      6 C9          6.5263   -0.0117   -7.4208 C.2        1 <1>        0.000
      7 O1          7.0039    1.1082   -7.4852 O.2        1 <1>        0.000
      8 C20         1.6787   -2.8123   -6.4136 C.2        1 <1>        0.000
      9 C21         1.4352   -1.7168   -7.1458 C.2        1 <1>        0.000
     10 N5          0.4530   -0.8013   -6.9629 N.am       1 <1>        0.000
     11 C28        -0.4597   -0.7248   -5.9641 C.2        1 <1>        0.000
     12 O4         -0.4938   -1.4425   -4.9778 O.2        1 <1>        0.000
     13 H           4.5783   -1.6408   -4.2353 H.spc      1 <1>        0.000
     14 H           5.3976   -2.4275   -7.0687 H.spc      1 <1>        0.000
     15 H           5.5356    0.1797   -5.6755 H.spc      1 <1>        0.000
     16 H           6.7239   -0.6849   -8.2550 H.spc      1 <1>        0.000
     17 H           1.0678   -3.0422   -5.5407 H.spc      1 <1>        0.000
     18 H           2.1057   -1.5415   -7.9871 H.spc      1 <1>        0.000
     19 H           0.3925   -0.0713   -7.6727 H.spc      1 <1>        0.000
     20 H          -1.2287    0.0430   -6.0490 H.spc      1 <1>        0.000
@<TRIPOS>BOND
     1    6    7 2  
     2   10   11 am 
     3    9   10 1  
     4    8    9 2  
     5    5    6 am 
     6    4    5 1  
     7    1    2 1  
     8    1    8 1  
     9    2    3 1  
    10    3    4 2  
    11   11   12 2  
    12    3   13 1  
    13    4   14 1  
    14    5   15 1  
    15    6   16 1  
    16    8   17 1  
    17    9   18 1  
    18   10   19 1  
    19   11   20 1  
# Name:          frag3-195-6/31924 -- energy: -1.896247
# Creation time: Sat Jun  5 12:52:17 2010


@<TRIPOS>MOLECULE
frag3-195-6/31924 -- energy: -1.896247
   20    19     1     1     1
SMALL
USER_CHARGES


@<TRIPOS>ATOM
      1 S1          4.5385   -3.1883   -5.9460 S.3        1 <1>        0.000
      2 S2          3.0701   -2.8012   -7.2862 S.3        1 <1>        0.000
      3 C1          1.8672   -2.0092   -6.2334 C.2        1 <1>        0.000
      4 C2          0.5654   -2.2604   -6.4239 C.2        1 <1>        0.000
      5 N1         -0.4865   -1.7921   -5.7104 N.am       1 <1>        0.000
      6 C9         -1.8084   -2.0072   -5.9048 C.2        1 <1>        0.000
      7 O1         -2.7102   -1.5922   -5.1972 O.2        1 <1>        0.000
      8 C20         5.7928   -2.0445   -6.4918 C.2        1 <1>        0.000
      9 C21         5.6004   -0.7310   -6.3001 C.2        1 <1>        0.000
     10 N5          6.4396    0.2838   -6.6169 N.am       1 <1>        0.000
     11 C28         7.7284    0.2199   -7.0312 C.2        1 <1>        0.000
     12 O4          8.4172   -0.7873   -7.0550 O.2        1 <1>        0.000
     13 H           2.1878   -1.3289   -5.4444 H.spc      1 <1>        0.000
     14 H           0.3227   -2.9228   -7.2548 H.spc      1 <1>        0.000
     15 H          -0.2497   -1.1954   -4.9178 H.spc      1 <1>        0.000
     16 H          -2.0920   -2.6047   -6.7712 H.spc      1 <1>        0.000
     17 H           6.7011   -2.4068   -6.9734 H.spc      1 <1>        0.000
     18 H           4.6569   -0.4466   -5.8342 H.spc      1 <1>        0.000
     19 H           6.0491    1.2223   -6.5323 H.spc      1 <1>        0.000
     20 H           8.1890    1.1471   -7.3722 H.spc      1 <1>        0.000
@<TRIPOS>BOND
     1    6    7 2  
     2   10   11 am 
     3    9   10 1  
     4    8    9 2  
     5    5    6 am 
     6    4    5 1  
     7    1    2 1  
     8    1    8 1  
     9    2    3 1  
    10    3    4 2  
    11   11   12 2  
    12    3   13 1  
    13    4   14 1  
    14    5   15 1  
    15    6   16 1  
    16    8   17 1  
    17    9   18 1  
    18   10   19 1  
    19   11   20 1  
# Name:          frag3-195-6/31924 -- energy: -1.784757
# Creation time: Sat Jun  5 12:52:17 2010


@<TRIPOS>MOLECULE
frag3-195-6/31924 -- energy: -1.784757
   20    19     1     1     1
SMALL
USER_CHARGES


@<TRIPOS>ATOM
      1 S1          2.9184   -1.8027   -6.7978 S.3        1 <1>        0.000
      2 S2          4.1826   -2.7176   -5.5019 S.3        1 <1>        0.000
      3 C1          5.4348   -1.4479   -5.3335 C.2        1 <1>        0.000
      4 C2          6.2732   -1.2311   -6.3576 C.2        1 <1>        0.000
      5 N1          7.2556   -0.2961   -6.4365 N.am       1 <1>        0.000
      6 C9          8.1683   -0.1126   -7.4192 C.2        1 <1>        0.000
      7 O1          8.2953   -0.8138   -8.4089 O.2        1 <1>        0.000
      8 C20         1.5157   -1.5030   -5.7258 C.2        1 <1>        0.000
      9 C21         0.3127   -1.9558   -6.1055 C.2        1 <1>        0.000
     10 N5         -0.8557   -1.8572   -5.4230 N.am       1 <1>        0.000
     11 C28        -2.0978   -2.2429   -5.8036 C.2        1 <1>        0.000
     12 O4         -2.3885   -2.7292   -6.8837 O.2        1 <1>        0.000
     13 H           5.5138   -0.8632   -4.4170 H.spc      1 <1>        0.000
     14 H           6.1526   -1.8791   -7.2257 H.spc      1 <1>        0.000
     15 H           7.3130    0.3532   -5.6519 H.spc      1 <1>        0.000
     16 H           8.8475    0.7338   -7.3173 H.spc      1 <1>        0.000
     17 H           1.6374   -0.9646   -4.7859 H.spc      1 <1>        0.000
     18 H           0.2681   -2.4598   -7.0709 H.spc      1 <1>        0.000
     19 H          -0.7903   -1.4350   -4.4968 H.spc      1 <1>        0.000
     20 H          -2.9050   -2.1071   -5.0839 H.spc      1 <1>        0.000
@<TRIPOS>BOND
     1    6    7 2  
     2   10   11 am 
     3    9   10 1  
     4    8    9 2  
     5    5    6 am 
     6    4    5 1  
     7    1    2 1  
     8    1    8 1  
     9    2    3 1  
    10    3    4 2  
    11   11   12 2  
    12    3   13 1  
    13    4   14 1  
    14    5   15 1  
    15    6   16 1  
    16    8   17 1  
    17    9   18 1  
    18   10   19 1  
    19   11   20 1  
# Name:          frag3-195-6/31924 -- energy: -1.969717
# Creation time: Sat Jun  5 12:52:17 2010


@<TRIPOS>MOLECULE
frag3-195-6/31924 -- energy: -1.969717
   20    19     1     1     1
SMALL
USER_CHARGES


@<TRIPOS>ATOM
      1 S1          4.2700   -3.7935   -5.6070 S.3        1 <1>        0.000
      2 S2          3.0432   -3.6121   -7.2088 S.3        1 <1>        0.000
      3 C1          1.7302   -2.6314   -6.4974 C.2        1 <1>        0.000
      4 C2          0.8255   -2.0651   -7.3071 C.2        1 <1>        0.000
      5 N1         -0.2551   -1.3235   -6.9563 N.am       1 <1>        0.000
      6 C9         -0.6327   -0.9190   -5.7208 C.2        1 <1>        0.000
      7 O1         -0.0939   -1.2380   -4.6734 O.2        1 <1>        0.000
      8 C20         4.6566   -2.0773   -5.2969 C.2        1 <1>        0.000
      9 C21         5.4682   -1.4351   -6.1490 C.2        1 <1>        0.000
     10 N5          5.8524   -0.1365   -6.1061 N.am       1 <1>        0.000
     11 C28         6.7462    0.5135   -6.8896 C.2        1 <1>        0.000
     12 O4          7.4040    0.0082   -7.7845 O.2        1 <1>        0.000
     13 H           1.6660   -2.4955   -5.4178 H.spc      1 <1>        0.000
     14 H           0.9756   -2.2185   -8.3758 H.spc      1 <1>        0.000
     15 H          -0.8618   -1.0330   -7.7231 H.spc      1 <1>        0.000
     16 H          -1.4917   -0.2511   -5.6560 H.spc      1 <1>        0.000
     17 H           4.2405   -1.5620   -4.4312 H.spc      1 <1>        0.000
     18 H           5.8658   -2.0273   -6.9733 H.spc      1 <1>        0.000
     19 H           5.4071    0.4300   -5.3841 H.spc      1 <1>        0.000
     20 H           6.8899    1.5781   -6.7049 H.spc      1 <1>        0.000
@<TRIPOS>BOND
     1    6    7 2  
     2   10   11 am 
     3    9   10 1  
     4    8    9 2  
     5    5    6 am 
     6    4    5 1  
     7    1    2 1  
     8    1    8 1  
     9    2    3 1  
    10    3    4 2  
    11   11   12 2  
    12    3   13 1  
    13    4   14 1  
    14    5   15 1  
    15    6   16 1  
    16    8   17 1  
    17    9   18 1  
    18   10   19 1  
    19   11   20 1  
# Name:          frag3-195-6/31924 -- energy: -1.673993
# Creation time: Sat Jun  5 12:52:17 2010


@<TRIPOS>MOLECULE
frag3-195-6/31924 -- energy: -1.673993
   20    19     1     1     1
SMALL
USER_CHARGES


@<TRIPOS>ATOM
      1 S1          2.8791   -2.2751   -7.0450 S.3        1 <1>        0.000
      2 S2          4.3805   -3.0676   -5.9359 S.3        1 <1>        0.000
      3 C1          5.3019   -1.5838   -5.5434 C.2        1 <1>        0.000
      4 C2          6.2958   -1.2068   -6.3610 C.2        1 <1>        0.000
      5 N1          7.0780   -0.1015   -6.2560 N.am       1 <1>        0.000
      6 C9          8.0570    0.3215   -7.0897 C.2        1 <1>        0.000
      7 O1          8.4112   -0.2426   -8.1114 O.2        1 <1>        0.000
      8 C20         1.4553   -2.9469   -6.1939 C.2        1 <1>        0.000
      9 C21         0.3054   -2.2599   -6.2273 C.2        1 <1>        0.000
     10 N5         -0.8817   -2.6145   -5.6748 N.am       1 <1>        0.000
     11 C28        -2.0472   -1.9240   -5.6479 C.2        1 <1>        0.000
     12 O4         -2.2208   -0.8088   -6.1106 O.2        1 <1>        0.000
     13 H           5.0597   -0.9979   -4.6567 H.spc      1 <1>        0.000
     14 H           6.4993   -1.8630   -7.2072 H.spc      1 <1>        0.000
     15 H           6.9049    0.4876   -5.4415 H.spc      1 <1>        0.000
     16 H           8.5726    1.2448   -6.8254 H.spc      1 <1>        0.000
     17 H           1.5221   -3.8947   -5.6598 H.spc      1 <1>        0.000
     18 H           0.3262   -1.3084   -6.7586 H.spc      1 <1>        0.000
     19 H          -0.8993   -3.5258   -5.2169 H.spc      1 <1>        0.000
     20 H          -2.9018   -2.4057   -5.1727 H.spc      1 <1>        0.000
@<TRIPOS>BOND
     1    6    7 2  
     2   10   11 am 
     3    9   10 1  
     4    8    9 2  
     5    5    6 am 
     6    4    5 1  
     7    1    2 1  
     8    1    8 1  
     9    2    3 1  
    10    3    4 2  
    11   11   12 2  
    12    3   13 1  
    13    4   14 1  
    14    5   15 1  
    15    6   16 1  
    16    8   17 1  
    17    9   18 1  
    18   10   19 1  
    19   11   20 1  
# Name:          frag3-195-6/31924 -- energy: -2.215210
# Creation time: Sat Jun  5 12:52:17 2010


@<TRIPOS>MOLECULE
frag3-195-6/31924 -- energy: -2.215210
   20    19     1     1     1
SMALL
USER_CHARGES


@<TRIPOS>ATOM
      1 S1          4.7084   -4.3121   -5.9561 S.3        1 <1>        0.000
      2 S2          2.9341   -3.9797   -6.8800 S.3        1 <1>        0.000
      3 C1          2.2024   -2.8009   -5.7483 C.2        1 <1>        0.000
      4 C2          1.0247   -2.2455   -6.0661 C.2        1 <1>        0.000
      5 N1          0.2984   -1.3674   -5.3271 N.am       1 <1>        0.000
      6 C9         -0.6653   -0.5115   -5.7407 C.2        1 <1>        0.000
      7 O1         -0.9973   -0.3235   -6.8991 O.2        1 <1>        0.000
      8 C20         5.7075   -3.0270   -6.7002 C.2        1 <1>        0.000
      9 C21         5.4685   -1.7523   -6.3606 C.2        1 <1>        0.000
     10 N5          6.1300   -0.6488   -6.7883 N.am       1 <1>        0.000
     11 C28         5.8145    0.6566   -6.6086 C.2        1 <1>        0.000
     12 O4          6.3885    1.6023   -7.1217 O.2        1 <1>        0.000
     13 H           2.7057   -2.5396   -4.8175 H.spc      1 <1>        0.000
     14 H           0.6009   -2.5316   -7.0287 H.spc      1 <1>        0.000
     15 H           0.5066   -1.3507   -4.3287 H.spc      1 <1>        0.000
     16 H          -1.1892    0.0582   -4.9731 H.spc      1 <1>        0.000
     17 H           6.4931   -3.2753   -7.4139 H.spc      1 <1>        0.000
     18 H           4.6495   -1.5840   -5.6613 H.spc      1 <1>        0.000
     19 H           6.9831   -0.8258   -7.3187 H.spc      1 <1>        0.000
     20 H           4.9760    0.8806   -5.9491 H.spc      1 <1>        0.000
@<TRIPOS>BOND
     1    6    7 2  
     2   10   11 am 
     3    9   10 1  
     4    8    9 2  
     5    5    6 am 
     6    4    5 1  
     7    1    2 1  
     8    1    8 1  
     9    2    3 1  
    10    3    4 2  
    11   11   12 2  
    12    3   13 1  
    13    4   14 1  
    14    5   15 1  
    15    6   16 1  
    16    8   17 1  
    17    9   18 1  
    18   10   19 1  
    19   11   20 1  
# Name:          frag3-195-6/31924 -- energy: -1.652153
# Creation time: Sat Jun  5 12:52:17 2010


@<TRIPOS>MOLECULE
frag3-195-6/31924 -- energy: -1.652153
   20    19     1     1     1
SMALL
USER_CHARGES


@<TRIPOS>ATOM
      1 S1          4.0976   -2.9071   -6.0570 S.3        1 <1>        0.000
      2 S2          2.9337   -2.8351   -7.7103 S.3        1 <1>        0.000
      3 C1          1.4673   -2.0767   -7.0433 C.2        1 <1>        0.000
      4 C2          0.4864   -2.8570   -6.5651 C.2        1 <1>        0.000
      5 N1         -0.6745   -2.4730   -5.9860 N.am       1 <1>        0.000
      6 C9         -1.0110   -1.2596   -5.4885 C.2        1 <1>        0.000
      7 O1         -2.0553   -0.9835   -4.9239 O.2        1 <1>        0.000
      8 C20         5.3412   -1.7013   -6.4662 C.2        1 <1>        0.000
      9 C21         6.3116   -1.4349   -5.5837 C.2        1 <1>        0.000
     10 N5          7.3538   -0.5824   -5.7247 N.am       1 <1>        0.000
     11 C28         7.6852    0.1800   -6.7949 C.2        1 <1>        0.000
     12 O4          7.0785    0.2207   -7.8535 O.2        1 <1>        0.000
     13 H           1.3678   -0.9914   -7.0238 H.spc      1 <1>        0.000
     14 H           0.6440   -3.9319   -6.6540 H.spc      1 <1>        0.000
     15 H          -1.3923   -3.1942   -5.9147 H.spc      1 <1>        0.000
     16 H          -0.2822   -0.4572   -5.6033 H.spc      1 <1>        0.000
     17 H           5.3128   -1.1850   -7.4258 H.spc      1 <1>        0.000
     18 H           6.2560   -1.9697   -4.6356 H.spc      1 <1>        0.000
     19 H           7.9723   -0.5034   -4.9175 H.spc      1 <1>        0.000
     20 H           8.5692    0.8110   -6.7026 H.spc      1 <1>        0.000
@<TRIPOS>BOND
     1    6    7 2  
     2   10   11 am 
     3    9   10 1  
     4    8    9 2  
     5    5    6 am 
     6    4    5 1  
     7    1    2 1  
     8    1    8 1  
     9    2    3 1  
    10    3    4 2  
    11   11   12 2  
    12    3   13 1  
    13    4   14 1  
    14    5   15 1  
    15    6   16 1  
    16    8   17 1  
    17    9   18 1  
    18   10   19 1  
    19   11   20 1  
# Name:          frag3-195-6/31924 -- energy: -2.241400
# Creation time: Sat Jun  5 12:52:17 2010


@<TRIPOS>MOLECULE
frag3-195-6/31924 -- energy: -2.241400
   20    19     1     1     1
SMALL
USER_CHARGES


@<TRIPOS>ATOM
      1 S1          4.0491   -3.8063   -5.7089 S.3        1 <1>        0.000
      2 S2          2.6374   -4.0408   -7.1382 S.3        1 <1>        0.000
      3 C1          1.3852   -2.9253   -6.5458 C.2        1 <1>        0.000
      4 C2          1.5678   -1.6011   -6.6685 C.2        1 <1>        0.000
      5 N1          0.7246   -0.6035   -6.3109 N.am       1 <1>        0.000
      6 C9         -0.4746   -0.7000   -5.6900 C.2        1 <1>        0.000
      7 O1         -1.0481   -1.7402   -5.4072 O.2        1 <1>        0.000
      8 C20         5.0219   -2.4897   -6.4033 C.2        1 <1>        0.000
      9 C21         5.3008   -1.4122   -5.6590 C.2        1 <1>        0.000
     10 N5          6.0405   -0.3355   -5.9999 N.am       1 <1>        0.000
     11 C28         6.6572   -0.0616   -7.1751 C.2        1 <1>        0.000
     12 O4          7.1528    1.0065   -7.4901 O.2        1 <1>        0.000
     13 H           0.4763   -3.3140   -6.0865 H.spc      1 <1>        0.000
     14 H           2.5137   -1.2896   -7.1117 H.spc      1 <1>        0.000
     15 H           1.0325    0.3419   -6.5386 H.spc      1 <1>        0.000
     16 H          -0.9712    0.2317   -5.4191 H.spc      1 <1>        0.000
     17 H           5.3885   -2.5593   -7.4274 H.spc      1 <1>        0.000
     18 H           4.8786   -1.4032   -4.6541 H.spc      1 <1>        0.000
     19 H           6.1505    0.3700   -5.2715 H.spc      1 <1>        0.000
     20 H           6.7153   -0.8694   -7.9046 H.spc      1 <1>        0.000
@<TRIPOS>BOND
     1    6    7 2  
     2   10   11 am 
     3    9   10 1  
     4    8    9 2  
     5    5    6 am 
     6    4    5 1  
     7    1    2 1  
     8    1    8 1  
     9    2    3 1  
    10    3    4 2  
    11   11   12 2  
    12    3   13 1  
    13    4   14 1  
    14    5   15 1  
    15    6   16 1  
    16    8   17 1  
    17    9   18 1  
    18   10   19 1  
    19   11   20 1  
# Name:          frag3-195-6/31924 -- energy: -2.068848
# Creation time: Sat Jun  5 12:52:17 2010


@<TRIPOS>MOLECULE
frag3-195-6/31924 -- energy: -2.068848
   20    19     1     1     1
SMALL
USER_CHARGES


@<TRIPOS>ATOM
      1 S1          3.1653   -2.0122   -4.4629 S.3        1 <1>        0.000
      2 S2          3.8652   -3.3687   -5.7975 S.3        1 <1>        0.000
      3 C1          5.5670   -2.8393   -5.9268 C.2        1 <1>        0.000
      4 C2          5.8458   -1.7038   -6.5836 C.2        1 <1>        0.000
      5 N1          7.0593   -1.1206   -6.7542 N.am       1 <1>        0.000
      6 C9          7.3664    0.0053   -7.4396 C.2        1 <1>        0.000
      7 O1          6.5806    0.6806   -8.0837 O.2        1 <1>        0.000
      8 C20         2.0187   -1.1037   -5.4881 C.2        1 <1>        0.000
      9 C21         0.8317   -1.6583   -5.7723 C.2        1 <1>        0.000
     10 N5         -0.1769   -1.1223   -6.5021 N.am       1 <1>        0.000
     11 C28        -1.3585   -1.6803   -6.8599 C.2        1 <1>        0.000
     12 O4         -1.7500   -2.7866   -6.5262 O.2        1 <1>        0.000
     13 H           6.3660   -3.4301   -5.4788 H.spc      1 <1>        0.000
     14 H           4.9974   -1.1883   -7.0337 H.spc      1 <1>        0.000
     15 H           7.8442   -1.5937   -6.3064 H.spc      1 <1>        0.000
     16 H           8.4044    0.3370   -7.4139 H.spc      1 <1>        0.000
     17 H           2.2789   -0.1184   -5.8748 H.spc      1 <1>        0.000
     18 H           0.6575   -2.6561   -5.3697 H.spc      1 <1>        0.000
     19 H          -0.0255   -0.1672   -6.8266 H.spc      1 <1>        0.000
     20 H          -2.0149   -1.0910   -7.5001 H.spc      1 <1>        0.000
@<TRIPOS>BOND
     1    6    7 2  
     2   10   11 am 
     3    9   10 1  
     4    8    9 2  
     5    5    6 am 
     6    4    5 1  
     7    1    2 1  
     8    1    8 1  
     9    2    3 1  
    10    3    4 2  
    11   11   12 2  
    12    3   13 1  
    13    4   14 1  
    14    5   15 1  
    15    6   16 1  
    16    8   17 1  
    17    9   18 1  
    18   10   19 1  
    19   11   20 1  
# Name:          frag3-195-6/31924 -- energy: -2.363411
# Creation time: Sat Jun  5 12:52:17 2010


@<TRIPOS>MOLECULE
frag3-195-6/31924 -- energy: -2.363411
   20    19     1     1     1
SMALL
USER_CHARGES


@<TRIPOS>ATOM
      1 S1          2.6989   -4.2240   -7.0235 S.3        1 <1>        0.000
      2 S2          4.3836   -4.1521   -5.9071 S.3        1 <1>        0.000
      3 C1          5.0899   -2.6222   -6.4883 C.2        1 <1>        0.000
      4 C2          4.8890   -1.4960   -5.7881 C.2        1 <1>        0.000
      5 N1          5.3675   -0.2579   -6.0483 N.am       1 <1>        0.000
      6 C9          6.3342    0.1092   -6.9222 C.2        1 <1>        0.000
      7 O1          6.7245    1.2467   -7.1199 O.2        1 <1>        0.000
      8 C20         1.8325   -2.7896   -6.4183 C.2        1 <1>        0.000
      9 C21         0.6586   -2.4529   -6.9655 C.2        1 <1>        0.000
     10 N5         -0.1556   -1.4269   -6.6236 N.am       1 <1>        0.000
     11 C28         0.0709   -0.4242   -5.7407 C.2        1 <1>        0.000
     12 O4          1.1206   -0.2200   -5.1514 O.2        1 <1>        0.000
     13 H           5.6798   -2.6021   -7.4046 H.spc      1 <1>        0.000
     14 H           4.2634   -1.5900   -4.9005 H.spc      1 <1>        0.000
     15 H           4.9432    0.5008   -5.5147 H.spc      1 <1>        0.000
     16 H           6.8062   -0.6845   -7.5014 H.spc      1 <1>        0.000
     17 H           2.2545   -2.1921   -5.6102 H.spc      1 <1>        0.000
     18 H           0.3161   -3.0819   -7.7872 H.spc      1 <1>        0.000
     19 H          -1.0607   -1.4057   -7.0934 H.spc      1 <1>        0.000
     20 H          -0.7546    0.2585   -5.5394 H.spc      1 <1>        0.000
@<TRIPOS>BOND
     1    6    7 2  
     2   10   11 am 
     3    9   10 1  
     4    8    9 2  
     5    5    6 am 
     6    4    5 1  
     7    1    2 1  
     8    1    8 1  
     9    2    3 1  
    10    3    4 2  
    11   11   12 2  
    12    3   13 1  
    13    4   14 1  
    14    5   15 1  
    15    6   16 1  
    16    8   17 1  
    17    9   18 1  
    18   10   19 1  
    19   11   20 1  
# Name:          frag3-195-6/31924 -- energy: -1.746192
# Creation time: Sat Jun  5 12:52:17 2010


@<TRIPOS>MOLECULE
frag3-195-6/31924 -- energy: -1.746192
   20    19     1     1     1
SMALL
USER_CHARGES


@<TRIPOS>ATOM
      1 S1          4.1052   -2.8349   -5.8952 S.3        1 <1>        0.000
      2 S2          2.9296   -1.6299   -4.7711 S.3        1 <1>        0.000
      3 C1          1.6847   -1.1860   -5.9692 C.2        1 <1>        0.000
      4 C2          0.5059   -1.8240   -5.9519 C.2        1 <1>        0.000
      5 N1         -0.5695   -1.6091   -6.7496 N.am       1 <1>        0.000
      6 C9         -1.8218   -2.1085   -6.6330 C.2        1 <1>        0.000
      7 O1         -2.2298   -2.7948   -5.7101 O.2        1 <1>        0.000
      8 C20         5.3541   -1.6786   -6.4266 C.2        1 <1>        0.000
      9 C21         6.6418   -1.9558   -6.1816 C.2        1 <1>        0.000
     10 N5          7.7278   -1.2237   -6.5267 N.am       1 <1>        0.000
     11 C28         7.7977   -0.1442   -7.3430 C.2        1 <1>        0.000
     12 O4          6.8888    0.2795   -8.0389 O.2        1 <1>        0.000
     13 H           1.8800   -0.4064   -6.7055 H.spc      1 <1>        0.000
     14 H           0.3987   -2.6114   -5.2058 H.spc      1 <1>        0.000
     15 H          -0.4136   -0.9881   -7.5436 H.spc      1 <1>        0.000
     16 H          -2.5265   -1.8780   -7.4319 H.spc      1 <1>        0.000
     17 H           5.0743   -0.7603   -6.9429 H.spc      1 <1>        0.000
     18 H           6.8390   -2.8809   -5.6399 H.spc      1 <1>        0.000
     19 H           8.6119   -1.5254   -6.1171 H.spc      1 <1>        0.000
     20 H           8.7463    0.3913   -7.3814 H.spc      1 <1>        0.000
@<TRIPOS>BOND
     1    6    7 2  
     2   10   11 am 
     3    9   10 1  
     4    8    9 2  
     5    5    6 am 
     6    4    5 1  
     7    1    2 1  
     8    1    8 1  
     9    2    3 1  
    10    3    4 2  
    11   11   12 2  
    12    3   13 1  
    13    4   14 1  
    14    5   15 1  
    15    6   16 1  
    16    8   17 1  
    17    9   18 1  
    18   10   19 1  
    19   11   20 1  
# Name:          frag3-195-6/31924 -- energy: -3.125226
# Creation time: Sat Jun  5 12:52:17 2010


@<TRIPOS>MOLECULE
frag3-195-6/31924 -- energy: -3.125226
   20    19     1     1     1
SMALL
USER_CHARGES


@<TRIPOS>ATOM
      1 S1          4.3763   -4.3394   -6.2750 S.3        1 <1>        0.000
      2 S2          2.6275   -4.6159   -7.2598 S.3        1 <1>        0.000
      3 C1          1.5321   -3.6326   -6.2475 C.2        1 <1>        0.000
      4 C2          1.5332   -2.2992   -6.3919 C.2        1 <1>        0.000
      5 N1          0.7571   -1.3928   -5.7467 N.am       1 <1>        0.000
      6 C9          0.8555   -0.0431   -5.7477 C.2        1 <1>        0.000
      7 O1          1.6745    0.6086   -6.3749 O.2        1 <1>        0.000
      8 C20         4.7268   -2.6397   -6.6957 C.2        1 <1>        0.000
      9 C21         4.8038   -1.7314   -5.7134 C.2        1 <1>        0.000
     10 N5          5.0860   -0.4127   -5.8285 N.am       1 <1>        0.000
     11 C28         5.3842    0.3003   -6.9417 C.2        1 <1>        0.000
     12 O4          5.6575    1.4880   -6.9739 O.2        1 <1>        0.000
     13 H           0.8722   -4.1095   -5.5228 H.spc      1 <1>        0.000
     14 H           2.2427   -1.8955   -7.1142 H.spc      1 <1>        0.000
     15 H          -0.0018   -1.7802   -5.1860 H.spc      1 <1>        0.000
     16 H           0.1421    0.5091   -5.1359 H.spc      1 <1>        0.000
     17 H           4.8757   -2.3457   -7.7347 H.spc      1 <1>        0.000
     18 H           4.6174   -2.0974   -4.7037 H.spc      1 <1>        0.000
     19 H           5.0723    0.1175   -4.9573 H.spc      1 <1>        0.000
     20 H           5.3793   -0.2349   -7.8913 H.spc      1 <1>        0.000
@<TRIPOS>BOND
     1    6    7 2  
     2   10   11 am 
     3    9   10 1  
     4    8    9 2  
     5    5    6 am 
     6    4    5 1  
     7    1    2 1  
     8    1    8 1  
     9    2    3 1  
    10    3    4 2  
    11   11   12 2  
    12    3   13 1  
    13    4   14 1  
    14    5   15 1  
    15    6   16 1  
    16    8   17 1  
    17    9   18 1  
    18   10   19 1  
    19   11   20 1  
# Name:          frag3-195-6/31924 -- energy: -1.949206
# Creation time: Sat Jun  5 12:52:17 2010


@<TRIPOS>MOLECULE
frag3-195-6/31924 -- energy: -1.949206
   20    19     1     1     1
SMALL
USER_CHARGES


@<TRIPOS>ATOM
      1 S1          4.6430   -3.9614   -5.5000 S.3        1 <1>        0.000
      2 S2          3.0752   -3.6947   -6.7559 S.3        1 <1>        0.000
      3 C1          2.3700   -2.1990   -6.0780 C.2        1 <1>        0.000
      4 C2          1.0566   -1.9766   -6.2194 C.2        1 <1>        0.000
      5 N1          0.3357   -0.9293   -5.7449 N.am       1 <1>        0.000
      6 C9         -1.0008   -0.7256   -5.8091 C.2        1 <1>        0.000
      7 O1         -1.8001   -1.4385   -6.3934 O.2        1 <1>        0.000
      8 C20         5.9034   -3.0207   -6.3474 C.2        1 <1>        0.000
      9 C21         5.7753   -1.6879   -6.4183 C.2        1 <1>        0.000
     10 N5          6.6311   -0.8046   -6.9875 N.am       1 <1>        0.000
     11 C28         6.5075    0.5383   -7.1167 C.2        1 <1>        0.000
     12 O4          5.5177    1.1902   -6.8266 O.2        1 <1>        0.000
     13 H           2.9997   -1.4779   -5.5568 H.spc      1 <1>        0.000
     14 H           0.5007   -2.7261   -6.7827 H.spc      1 <1>        0.000
     15 H           0.8724   -0.1985   -5.2778 H.spc      1 <1>        0.000
     16 H          -1.3968    0.1501   -5.2949 H.spc      1 <1>        0.000
     17 H           6.7605   -3.5209   -6.7983 H.spc      1 <1>        0.000
     18 H           4.8783   -1.2656   -5.9653 H.spc      1 <1>        0.000
     19 H           7.4863   -1.2063   -7.3717 H.spc      1 <1>        0.000
     20 H           7.3647    1.0824   -7.5133 H.spc      1 <1>        0.000
@<TRIPOS>BOND
     1    6    7 2  
     2   10   11 am 
     3    9   10 1  
     4    8    9 2  
     5    5    6 am 
     6    4    5 1  
     7    1    2 1  
     8    1    8 1  
     9    2    3 1  
    10    3    4 2  
    11   11   12 2  
    12    3   13 1  
    13    4   14 1  
    14    5   15 1  
    15    6   16 1  
    16    8   17 1  
    17    9   18 1  
    18   10   19 1  
    19   11   20 1  
# Name:          frag3-195-6/31924 -- energy: -2.119585
# Creation time: Sat Jun  5 12:52:17 2010


@<TRIPOS>MOLECULE
frag3-195-6/31924 -- energy: -2.119585
   20    19     1     1     1
SMALL
USER_CHARGES


@<TRIPOS>ATOM
      1 S1          4.5616   -3.8294   -6.4830 S.3        1 <1>        0.000
      2 S2          2.8157   -4.2832   -7.4115 S.3        1 <1>        0.000
      3 C1          1.6471   -3.6219   -6.2241 C.2        1 <1>        0.000
      4 C2          1.0996   -2.4209   -6.4615 C.2        1 <1>        0.000
      5 N1          0.1738   -1.7731   -5.7071 N.am       1 <1>        0.000
      6 C9         -0.4255   -0.5829   -5.9454 C.2        1 <1>        0.000
      7 O1         -1.2343   -0.0371   -5.2141 O.2        1 <1>        0.000
      8 C20         4.4363   -2.0432   -6.4141 C.2        1 <1>        0.000
      9 C21         5.5596   -1.3201   -6.5230 C.2        1 <1>        0.000
     10 N5          5.6683    0.0326   -6.5255 N.am       1 <1>        0.000
     11 C28         6.7869    0.7952   -6.5845 C.2        1 <1>        0.000
     12 O4          7.9254    0.3743   -6.7031 O.2        1 <1>        0.000
     13 H           1.3868   -4.1844   -5.3275 H.spc      1 <1>        0.000
     14 H           1.4354   -1.9061   -7.3617 H.spc      1 <1>        0.000
     15 H          -0.1067   -2.2459   -4.8479 H.spc      1 <1>        0.000
     16 H          -0.1627   -0.0686   -6.8698 H.spc      1 <1>        0.000
     17 H           3.4695   -1.5562   -6.2866 H.spc      1 <1>        0.000
     18 H           6.4892   -1.8809   -6.6204 H.spc      1 <1>        0.000
     19 H           4.7879    0.5453   -6.4762 H.spc      1 <1>        0.000
     20 H           6.6583    1.8757   -6.5206 H.spc      1 <1>        0.000
@<TRIPOS>BOND
     1    6    7 2  
     2   10   11 am 
     3    9   10 1  
     4    8    9 2  
     5    5    6 am 
     6    4    5 1  
     7    1    2 1  
     8    1    8 1  
     9    2    3 1  
    10    3    4 2  
    11   11   12 2  
    12    3   13 1  
    13    4   14 1  
    14    5   15 1  
    15    6   16 1  
    16    8   17 1  
    17    9   18 1  
    18   10   19 1  
    19   11   20 1  
# Name:          frag3-195-6/31924 -- energy: -2.529727
# Creation time: Sat Jun  5 12:52:17 2010


@<TRIPOS>MOLECULE
frag3-195-6/31924 -- energy: -2.529727
   20    19     1     1     1
SMALL
USER_CHARGES


@<TRIPOS>ATOM
      1 S1          4.0660   -4.2361   -6.7708 S.3        1 <1>        0.000
      2 S2          2.7201   -4.2713   -5.2583 S.3        1 <1>        0.000
      3 C1          1.6593   -2.9201   -5.7417 C.2        1 <1>        0.000
      4 C2          1.9265   -1.6847   -5.2922 C.2        1 <1>        0.000
      5 N1          1.2679   -0.5344   -5.5776 N.am       1 <1>        0.000
      6 C9          0.2080   -0.3544   -6.4006 C.2        1 <1>        0.000
      7 O1         -0.3320   -1.2245   -7.0646 O.2        1 <1>        0.000
      8 C20         4.8611   -2.6674   -6.4712 C.2        1 <1>        0.000
      9 C21         4.9349   -1.7739   -7.4665 C.2        1 <1>        0.000
     10 N5          5.4647   -0.5301   -7.4242 N.am       1 <1>        0.000
     11 C28         5.8813    0.1824   -6.3496 C.2        1 <1>        0.000
     12 O4          6.3568    1.3045   -6.3796 O.2        1 <1>        0.000
     13 H           0.8044   -3.0965   -6.3945 H.spc      1 <1>        0.000
     14 H           2.7762   -1.5947   -4.6154 H.spc      1 <1>        0.000
     15 H           1.6160    0.3038   -5.1121 H.spc      1 <1>        0.000
     16 H          -0.1979    0.6543   -6.4767 H.spc      1 <1>        0.000
     17 H           5.2811   -2.4391   -5.4916 H.spc      1 <1>        0.000
     18 H           4.5186   -2.0863   -8.4242 H.spc      1 <1>        0.000
     19 H           5.5644   -0.0640   -8.3260 H.spc      1 <1>        0.000
     20 H           5.7825   -0.2894   -5.3720 H.spc      1 <1>        0.000
@<TRIPOS>BOND
     1    6    7 2  
     2   10   11 am 
     3    9   10 1  
     4    8    9 2  
     5    5    6 am 
     6    4    5 1  
     7    1    2 1  
     8    1    8 1  
     9    2    3 1  
    10    3    4 2  
    11   11   12 2  
    12    3   13 1  
    13    4   14 1  
    14    5   15 1  
    15    6   16 1  
    16    8   17 1  
    17    9   18 1  
    18   10   19 1  
    19   11   20 1  
# Name:          frag3-195-6/31924 -- energy: -1.859690
# Creation time: Sat Jun  5 12:52:18 2010


@<TRIPOS>MOLECULE
frag3-195-6/31924 -- energy: -1.859690
   20    19     1     1     1
SMALL
USER_CHARGES


@<TRIPOS>ATOM
      1 S1          3.8437   -3.4329   -6.2477 S.3        1 <1>        0.000
      2 S2          2.8492   -2.9947   -4.5416 S.3        1 <1>        0.000
      3 C1          1.2770   -2.4898   -5.1994 C.2        1 <1>        0.000
      4 C2          1.1740   -1.3121   -5.8350 C.2        1 <1>        0.000
      5 N1          0.0839   -0.7776   -6.4351 N.am       1 <1>        0.000
      6 C9         -1.1296   -1.3452   -6.6309 C.2        1 <1>        0.000
      7 O1         -1.4613   -2.4609   -6.2622 O.2        1 <1>        0.000
      8 C20         5.0867   -2.1630   -6.2583 C.2        1 <1>        0.000
      9 C21         5.6667   -1.8167   -7.4133 C.2        1 <1>        0.000
     10 N5          6.5996   -0.8633   -7.6221 N.am       1 <1>        0.000
     11 C28         7.1355    0.0140   -6.7392 C.2        1 <1>        0.000
     12 O4          7.8891    0.9323   -7.0121 O.2        1 <1>        0.000
     13 H           0.4032   -3.1317   -5.0875 H.spc      1 <1>        0.000
     14 H           2.0819   -0.7102   -5.8729 H.spc      1 <1>        0.000
     15 H           0.1908    0.1748   -6.7844 H.spc      1 <1>        0.000
     16 H          -1.8750   -0.7550   -7.1639 H.spc      1 <1>        0.000
     17 H           5.3747   -1.6695   -5.3301 H.spc      1 <1>        0.000
     18 H           5.3465   -2.3729   -8.2943 H.spc      1 <1>        0.000
     19 H           6.9498   -0.7937   -8.5776 H.spc      1 <1>        0.000
     20 H           6.8685   -0.1130   -5.6901 H.spc      1 <1>        0.000
@<TRIPOS>BOND
     1    6    7 2  
     2   10   11 am 
     3    9   10 1  
     4    8    9 2  
     5    5    6 am 
     6    4    5 1  
     7    1    2 1  
     8    1    8 1  
     9    2    3 1  
    10    3    4 2  
    11   11   12 2  
    12    3   13 1  
    13    4   14 1  
    14    5   15 1  
    15    6   16 1  
    16    8   17 1  
    17    9   18 1  
    18   10   19 1  
    19   11   20 1  
# Name:          frag3-195-6/31924 -- energy: -2.017617
# Creation time: Sat Jun  5 12:52:18 2010


@<TRIPOS>MOLECULE
frag3-195-6/31924 -- energy: -2.017617
   20    19     1     1     1
SMALL
USER_CHARGES


@<TRIPOS>ATOM
      1 S1          4.5861   -3.8549   -6.3474 S.3        1 <1>        0.000
      2 S2          3.0213   -3.8505   -7.6300 S.3        1 <1>        0.000
      3 C1          2.0348   -2.5377   -6.9303 C.2        1 <1>        0.000
      4 C2          0.7145   -2.7150   -6.7887 C.2        1 <1>        0.000
      5 N1         -0.1853   -1.8601   -6.2469 N.am       1 <1>        0.000
      6 C9          0.0392   -0.7917   -5.4463 C.2        1 <1>        0.000
      7 O1         -0.8141   -0.0510   -4.9892 O.2        1 <1>        0.000
      8 C20         5.2104   -2.2000   -6.5817 C.2        1 <1>        0.000
      9 C21         5.8609   -1.6004   -5.5765 C.2        1 <1>        0.000
     10 N5          6.4289   -0.3708   -5.5723 N.am       1 <1>        0.000
     11 C28         6.4000    0.5793   -6.5382 C.2        1 <1>        0.000
     12 O4          5.7178    0.5428   -7.5496 O.2        1 <1>        0.000
     13 H           2.5014   -1.6022   -6.6217 H.spc      1 <1>        0.000
     14 H           0.3163   -3.6618   -7.1537 H.spc      1 <1>        0.000
     15 H          -1.1626   -2.0460   -6.4721 H.spc      1 <1>        0.000
     16 H           1.0755   -0.5745   -5.1874 H.spc      1 <1>        0.000
     17 H           5.0642   -1.6839   -7.5306 H.spc      1 <1>        0.000
     18 H           5.9432   -2.1700   -4.6508 H.spc      1 <1>        0.000
     19 H           6.9481   -0.1272   -4.7288 H.spc      1 <1>        0.000
     20 H           7.0406    1.4503   -6.4001 H.spc      1 <1>        0.000
@<TRIPOS>BOND
     1    6    7 2  
     2   10   11 am 
     3    9   10 1  
     4    8    9 2  
     5    5    6 am 
     6    4    5 1  
     7    1    2 1  
     8    1    8 1  
     9    2    3 1  
    10    3    4 2  
    11   11   12 2  
    12    3   13 1  
    13    4   14 1  
    14    5   15 1  
    15    6   16 1  
    16    8   17 1  
    17    9   18 1  
    18   10   19 1  
    19   11   20 1  
# Name:          frag3-195-6/31924 -- energy: -2.034269
# Creation time: Sat Jun  5 12:52:18 2010


@<TRIPOS>MOLECULE
frag3-195-6/31924 -- energy: -2.034269
   20    19     1     1     1
SMALL
USER_CHARGES


@<TRIPOS>ATOM
      1 S1          4.0673   -3.8054   -6.0862 S.3        1 <1>        0.000
      2 S2          2.5647   -3.9066   -7.4380 S.3        1 <1>        0.000
      3 C1          1.5230   -2.5831   -6.8563 C.2        1 <1>        0.000
      4 C2          0.8216   -2.7504   -5.7245 C.2        1 <1>        0.000
      5 N1          0.0135   -1.8578   -5.1032 N.am       1 <1>        0.000
      6 C9         -0.3733   -0.6336   -5.5330 C.2        1 <1>        0.000
      7 O1         -0.0930   -0.1376   -6.6127 O.2        1 <1>        0.000
      8 C20         4.7152   -2.1818   -6.4293 C.2        1 <1>        0.000
      9 C21         6.0096   -1.9308   -6.1997 C.2        1 <1>        0.000
     10 N5          6.6854   -0.7831   -6.4260 N.am       1 <1>        0.000
     11 C28         6.2074    0.4282   -6.8011 C.2        1 <1>        0.000
     12 O4          6.8733    1.4321   -6.9870 O.2        1 <1>        0.000
     13 H           1.4563   -1.6485   -7.4133 H.spc      1 <1>        0.000
     14 H           0.9134   -3.7253   -5.2457 H.spc      1 <1>        0.000
     15 H          -0.3503   -2.1451   -4.1946 H.spc      1 <1>        0.000
     16 H          -0.9880   -0.0396   -4.8567 H.spc      1 <1>        0.000
     17 H           4.0641   -1.4009   -6.8222 H.spc      1 <1>        0.000
     18 H           6.5891   -2.7525   -5.7789 H.spc      1 <1>        0.000
     19 H           7.6958   -0.8356   -6.2965 H.spc      1 <1>        0.000
     20 H           5.1309    0.5123   -6.9499 H.spc      1 <1>        0.000
@<TRIPOS>BOND
     1    6    7 2  
     2   10   11 am 
     3    9   10 1  
     4    8    9 2  
     5    5    6 am 
     6    4    5 1  
     7    1    2 1  
     8    1    8 1  
     9    2    3 1  
    10    3    4 2  
    11   11   12 2  
    12    3   13 1  
    13    4   14 1  
    14    5   15 1  
    15    6   16 1  
    16    8   17 1  
    17    9   18 1  
    18   10   19 1  
    19   11   20 1  
# Name:          frag3-195-6/31924 -- energy: -1.924053
# Creation time: Sat Jun  5 12:52:18 2010


@<TRIPOS>MOLECULE
frag3-195-6/31924 -- energy: -1.924053
   20    19     1     1     1
SMALL
USER_CHARGES


@<TRIPOS>ATOM
      1 S1          2.9494   -2.6679   -7.6127 S.3        1 <1>        0.000
      2 S2          3.9525   -3.2493   -5.9506 S.3        1 <1>        0.000
      3 C1          4.7516   -1.7192   -5.5076 C.2        1 <1>        0.000
      4 C2          5.7797   -1.2806   -6.2493 C.2        1 <1>        0.000
      5 N1          6.4861   -0.1334   -6.1017 N.am       1 <1>        0.000
      6 C9          7.5146    0.3290   -6.8495 C.2        1 <1>        0.000
      7 O1          8.0488   -0.2683   -7.7701 O.2        1 <1>        0.000
      8 C20         1.4322   -2.0768   -6.8908 C.2        1 <1>        0.000
      9 C21         0.5630   -2.9668   -6.3881 C.2        1 <1>        0.000
     10 N5         -0.6179   -2.7191   -5.7744 N.am       1 <1>        0.000
     11 C28        -1.1897   -1.5241   -5.4890 C.2        1 <1>        0.000
     12 O4         -0.6557   -0.4333   -5.6130 O.2        1 <1>        0.000
     13 H           4.4094   -1.1472   -4.6452 H.spc      1 <1>        0.000
     14 H           6.0847   -1.9267   -7.0725 H.spc      1 <1>        0.000
     15 H           6.2046    0.4613   -5.3222 H.spc      1 <1>        0.000
     16 H           7.8991    1.3202   -6.6091 H.spc      1 <1>        0.000
     17 H           1.2134   -1.0095   -6.8579 H.spc      1 <1>        0.000
     18 H           0.8414   -4.0161   -6.4857 H.spc      1 <1>        0.000
     19 H          -1.1483   -3.5421   -5.4885 H.spc      1 <1>        0.000
     20 H          -2.2141   -1.5380   -5.1169 H.spc      1 <1>        0.000
@<TRIPOS>BOND
     1    6    7 2  
     2   10   11 am 
     3    9   10 1  
     4    8    9 2  
     5    5    6 am 
     6    4    5 1  
     7    1    2 1  
     8    1    8 1  
     9    2    3 1  
    10    3    4 2  
    11   11   12 2  
    12    3   13 1  
    13    4   14 1  
    14    5   15 1  
    15    6   16 1  
    16    8   17 1  
    17    9   18 1  
    18   10   19 1  
    19   11   20 1  
# Name:          frag3-195-6/31924 -- energy: -1.737537
# Creation time: Sat Jun  5 12:52:18 2010


@<TRIPOS>MOLECULE
frag3-195-6/31924 -- energy: -1.737537
   20    19     1     1     1
SMALL
USER_CHARGES


@<TRIPOS>ATOM
      1 S1          2.9814   -2.3853   -6.9201 S.3        1 <1>        0.000
      2 S2          4.2072   -2.9292   -5.3983 S.3        1 <1>        0.000
      3 C1          5.8022   -2.6170   -6.1503 C.2        1 <1>        0.000
      4 C2          6.1598   -1.3486   -6.3993 C.2        1 <1>        0.000
      5 N1          7.3322   -0.9092   -6.9254 N.am       1 <1>        0.000
      6 C9          7.7488    0.3650   -7.1127 C.2        1 <1>        0.000
      7 O1          8.8205    0.6986   -7.5889 O.2        1 <1>        0.000
      8 C20         1.5885   -1.7375   -6.0007 C.2        1 <1>        0.000
      9 C21         0.3571   -2.1527   -6.3283 C.2        1 <1>        0.000
     10 N5         -0.8125   -1.8055   -5.7358 N.am       1 <1>        0.000
     11 C28        -2.0756   -2.1655   -6.0696 C.2        1 <1>        0.000
     12 O4         -3.0949   -1.7229   -5.5676 O.2        1 <1>        0.000
     13 H           6.4694   -3.4418   -6.4008 H.spc      1 <1>        0.000
     14 H           5.4252   -0.5826   -6.1509 H.spc      1 <1>        0.000
     15 H           7.9855   -1.6357   -7.2182 H.spc      1 <1>        0.000
     16 H           7.0677    1.1611   -6.8120 H.spc      1 <1>        0.000
     17 H           1.7386   -1.0215   -5.1927 H.spc      1 <1>        0.000
     18 H           0.2877   -2.8477   -7.1651 H.spc      1 <1>        0.000
     19 H          -0.7300   -1.1885   -4.9278 H.spc      1 <1>        0.000
     20 H          -2.1901   -2.9143   -6.8534 H.spc      1 <1>        0.000
@<TRIPOS>BOND
     1    6    7 2  
     2   10   11 am 
     3    9   10 1  
     4    8    9 2  
     5    5    6 am 
     6    4    5 1  
     7    1    2 1  
     8    1    8 1  
     9    2    3 1  
    10    3    4 2  
    11   11   12 2  
    12    3   13 1  
    13    4   14 1  
    14    5   15 1  
    15    6   16 1  
    16    8   17 1  
    17    9   18 1  
    18   10   19 1  
    19   11   20 1  
# Name:          frag3-195-6/31924 -- energy: -1.591212
# Creation time: Sat Jun  5 12:52:18 2010


@<TRIPOS>MOLECULE
frag3-195-6/31924 -- energy: -1.591212
   20    19     1     1     1
SMALL
USER_CHARGES


@<TRIPOS>ATOM
      1 S1          2.8553   -3.3579   -7.3404 S.3        1 <1>        0.000
      2 S2          4.1781   -3.2902   -5.8128 S.3        1 <1>        0.000
      3 C1          5.1205   -1.8471   -6.2597 C.2        1 <1>        0.000
      4 C2          6.4442   -1.8345   -6.0552 C.2        1 <1>        0.000
      5 N1          7.3289   -0.8558   -6.3647 N.am       1 <1>        0.000
      6 C9          7.0803    0.3630   -6.8989 C.2        1 <1>        0.000
      7 O1          5.9763    0.8616   -7.0504 O.2        1 <1>        0.000
      8 C20         1.5416   -2.3474   -6.6910 C.2        1 <1>        0.000
      9 C21         0.2898   -2.8236   -6.6907 C.2        1 <1>        0.000
     10 N5         -0.8278   -2.2272   -6.2140 N.am       1 <1>        0.000
     11 C28        -0.9489   -1.0281   -5.5945 C.2        1 <1>        0.000
     12 O4         -0.0236   -0.3226   -5.2245 O.2        1 <1>        0.000
     13 H           4.6240   -0.9805   -6.6964 H.spc      1 <1>        0.000
     14 H           6.8619   -2.7224   -5.5806 H.spc      1 <1>        0.000
     15 H           8.3082   -1.0643   -6.1701 H.spc      1 <1>        0.000
     16 H           7.9402    0.9499   -7.2217 H.spc      1 <1>        0.000
     17 H           1.7534   -1.3529   -6.2983 H.spc      1 <1>        0.000
     18 H           0.1544   -3.8128   -7.1280 H.spc      1 <1>        0.000
     19 H          -1.6947   -2.7502   -6.3376 H.spc      1 <1>        0.000
     20 H          -1.9590   -0.6620   -5.4107 H.spc      1 <1>        0.000
@<TRIPOS>BOND
     1    6    7 2  
     2   10   11 am 
     3    9   10 1  
     4    8    9 2  
     5    5    6 am 
     6    4    5 1  
     7    1    2 1  
     8    1    8 1  
     9    2    3 1  
    10    3    4 2  
    11   11   12 2  
    12    3   13 1  
    13    4   14 1  
    14    5   15 1  
    15    6   16 1  
    16    8   17 1  
    17    9   18 1  
    18   10   19 1  
    19   11   20 1  
# Name:          frag3-195-6/31924 -- energy: -1.410832
# Creation time: Sat Jun  5 12:52:18 2010


@<TRIPOS>MOLECULE
frag3-195-6/31924 -- energy: -1.410832
   20    19     1     1     1
SMALL
USER_CHARGES


@<TRIPOS>ATOM
      1 S1          4.2459   -1.8679   -5.3652 S.3        1 <1>        0.000
      2 S2          2.7701   -0.8292   -6.2834 S.3        1 <1>        0.000
      3 C1          1.4908   -2.0733   -6.3495 C.2        1 <1>        0.000
      4 C2          0.2233   -1.7176   -6.0999 C.2        1 <1>        0.000
      5 N1         -0.8819   -2.5018   -6.1355 N.am       1 <1>        0.000
      6 C9         -2.1714   -2.1610   -5.9057 C.2        1 <1>        0.000
      7 O1         -3.1274   -2.9160   -5.9557 O.2        1 <1>        0.000
      8 C20         5.6696   -1.3059   -6.2832 C.2        1 <1>        0.000
      9 C21         6.8752   -1.3550   -5.7014 C.2        1 <1>        0.000
     10 N5          8.0683   -1.0042   -6.2402 N.am       1 <1>        0.000
     11 C28         8.3347   -0.5535   -7.4902 C.2        1 <1>        0.000
     12 O4          7.5172   -0.4245   -8.3870 O.2        1 <1>        0.000
     13 H           1.7375   -3.1075   -6.5895 H.spc      1 <1>        0.000
     14 H           0.0614   -0.6723   -5.8367 H.spc      1 <1>        0.000
     15 H          -0.7196   -3.4819   -6.3669 H.spc      1 <1>        0.000
     16 H          -2.3730   -1.1199   -5.6537 H.spc      1 <1>        0.000
     17 H           5.5599   -0.9291   -7.3001 H.spc      1 <1>        0.000
     18 H           6.8995   -1.7198   -4.6745 H.spc      1 <1>        0.000
     19 H           8.8745   -1.0911   -5.6214 H.spc      1 <1>        0.000
     20 H           9.3668   -0.2833   -7.7135 H.spc      1 <1>        0.000
@<TRIPOS>BOND
     1    6    7 2  
     2   10   11 am 
     3    9   10 1  
     4    8    9 2  
     5    5    6 am 
     6    4    5 1  
     7    1    2 1  
     8    1    8 1  
     9    2    3 1  
    10    3    4 2  
    11   11   12 2  
    12    3   13 1  
    13    4   14 1  
    14    5   15 1  
    15    6   16 1  
    16    8   17 1  
    17    9   18 1  
    18   10   19 1  
    19   11   20 1  
# Name:          frag3-195-6/31924 -- energy: -2.778279
# Creation time: Sat Jun  5 12:52:18 2010


@<TRIPOS>MOLECULE
frag3-195-6/31924 -- energy: -2.778279
   20    19     1     1     1
SMALL
USER_CHARGES


@<TRIPOS>ATOM
      1 S1          4.7772   -4.0691   -6.5869 S.3        1 <1>        0.000
      2 S2          3.1668   -4.3045   -7.7936 S.3        1 <1>        0.000
      3 C1          1.8868   -3.6140   -6.7557 C.2        1 <1>        0.000
      4 C2          1.7683   -2.2808   -6.6679 C.2        1 <1>        0.000
      5 N1          0.8487   -1.5729   -5.9680 N.am       1 <1>        0.000
      6 C9          0.8077   -0.2423   -5.7248 C.2        1 <1>        0.000
      7 O1         -0.1383    0.3676   -5.2563 O.2        1 <1>        0.000
      8 C20         4.9940   -2.2983   -6.6678 C.2        1 <1>        0.000
      9 C21         4.8857   -1.5802   -5.5415 C.2        1 <1>        0.000
     10 N5          5.0436   -0.2424   -5.3951 N.am       1 <1>        0.000
     11 C28         5.3742    0.6799   -6.3314 C.2        1 <1>        0.000
     12 O4          5.5999    0.4472   -7.5078 O.2        1 <1>        0.000
     13 H           1.2120   -4.2667   -6.2019 H.spc      1 <1>        0.000
     14 H           2.4995   -1.6966   -7.2266 H.spc      1 <1>        0.000
     15 H           0.0832   -2.1172   -5.5704 H.spc      1 <1>        0.000
     16 H           1.6992    0.3352   -5.9694 H.spc      1 <1>        0.000
     17 H           5.2108   -1.8096   -7.6177 H.spc      1 <1>        0.000
     18 H           4.6420   -2.1377   -4.6371 H.spc      1 <1>        0.000
     19 H           4.8934    0.1192   -4.4533 H.spc      1 <1>        0.000
     20 H           5.4445    1.7178   -6.0060 H.spc      1 <1>        0.000
@<TRIPOS>BOND
     1    6    7 2  
     2   10   11 am 
     3    9   10 1  
     4    8    9 2  
     5    5    6 am 
     6    4    5 1  
     7    1    2 1  
     8    1    8 1  
     9    2    3 1  
    10    3    4 2  
    11   11   12 2  
    12    3   13 1  
    13    4   14 1  
    14    5   15 1  
    15    6   16 1  
    16    8   17 1  
    17    9   18 1  
    18   10   19 1  
    19   11   20 1  
# Name:          frag3-195-6/31924 -- energy: -2.679505
# Creation time: Sat Jun  5 12:52:18 2010


@<TRIPOS>MOLECULE
frag3-195-6/31924 -- energy: -2.679505
   20    19     1     1     1
SMALL
USER_CHARGES


@<TRIPOS>ATOM
      1 S1          2.9835   -4.0589   -7.7614 S.3        1 <1>        0.000
      2 S2          4.6123   -3.9515   -6.5638 S.3        1 <1>        0.000
      3 C1          5.0385   -2.2306   -6.7471 C.2        1 <1>        0.000
      4 C2          4.6981   -1.3625   -5.7834 C.2        1 <1>        0.000
      5 N1          4.9617   -0.0341   -5.7267 N.am       1 <1>        0.000
      6 C9          5.8532    0.6778   -6.4557 C.2        1 <1>        0.000
      7 O1          6.7143    0.2076   -7.1821 O.2        1 <1>        0.000
      8 C20         1.6928   -3.6395   -6.6064 C.2        1 <1>        0.000
      9 C21         1.3507   -2.3533   -6.4494 C.2        1 <1>        0.000
     10 N5          0.3862   -1.8415   -5.6490 N.am       1 <1>        0.000
     11 C28         0.0411   -0.5469   -5.4505 C.2        1 <1>        0.000
     12 O4          0.6821    0.4234   -5.8213 O.2        1 <1>        0.000
     13 H           5.5708   -1.8871   -7.6341 H.spc      1 <1>        0.000
     14 H           4.1411   -1.7758   -4.9425 H.spc      1 <1>        0.000
     15 H           4.4182    0.4979   -5.0470 H.spc      1 <1>        0.000
     16 H           5.7973    1.7643   -6.3882 H.spc      1 <1>        0.000
     17 H           1.1883   -4.4188   -6.0352 H.spc      1 <1>        0.000
     18 H           1.9178   -1.6317   -7.0375 H.spc      1 <1>        0.000
     19 H          -0.1561   -2.5261   -5.1221 H.spc      1 <1>        0.000
     20 H          -0.8881   -0.3552   -4.9140 H.spc      1 <1>        0.000
@<TRIPOS>BOND
     1    6    7 2  
     2   10   11 am 
     3    9   10 1  
     4    8    9 2  
     5    5    6 am 
     6    4    5 1  
     7    1    2 1  
     8    1    8 1  
     9    2    3 1  
    10    3    4 2  
    11   11   12 2  
    12    3   13 1  
    13    4   14 1  
    14    5   15 1  
    15    6   16 1  
    16    8   17 1  
    17    9   18 1  
    18   10   19 1  
    19   11   20 1  
# Name:          frag3-195-6/31924 -- energy: -1.505290
# Creation time: Sat Jun  5 12:52:18 2010


@<TRIPOS>MOLECULE
frag3-195-6/31924 -- energy: -1.505290
   20    19     1     1     1
SMALL
USER_CHARGES


@<TRIPOS>ATOM
      1 S1          2.8445   -2.3904   -6.9853 S.3        1 <1>        0.000
      2 S2          4.1897   -2.3431   -5.4723 S.3        1 <1>        0.000
      3 C1          5.5304   -1.4652   -6.2591 C.2        1 <1>        0.000
      4 C2          6.7923   -1.8357   -6.0013 C.2        1 <1>        0.000
      5 N1          7.9329   -1.3224   -6.5273 N.am       1 <1>        0.000
      6 C9          8.0774   -0.2413   -7.3293 C.2        1 <1>        0.000
      7 O1          7.1763    0.4928   -7.7008 O.2        1 <1>        0.000
      8 C20         1.5217   -1.4194   -6.2828 C.2        1 <1>        0.000
      9 C21         0.2994   -1.9606   -6.1948 C.2        1 <1>        0.000
     10 N5         -0.8170   -1.4022   -5.6674 N.am       1 <1>        0.000
     11 C28        -2.0742   -1.9036   -5.6097 C.2        1 <1>        0.000
     12 O4         -2.4590   -2.9188   -6.1667 O.2        1 <1>        0.000
     13 H           5.3254   -0.6390   -6.9399 H.spc      1 <1>        0.000
     14 H           6.9173   -2.6462   -5.2833 H.spc      1 <1>        0.000
     15 H           8.7932   -1.8150   -6.2873 H.spc      1 <1>        0.000
     16 H           9.0850   -0.0065   -7.6725 H.spc      1 <1>        0.000
     17 H           1.7052   -0.4040   -5.9316 H.spc      1 <1>        0.000
     18 H           0.1900   -2.9688   -6.5945 H.spc      1 <1>        0.000
     19 H          -0.6937   -0.4765   -5.2572 H.spc      1 <1>        0.000
     20 H          -2.8038   -1.3536   -5.0154 H.spc      1 <1>        0.000
@<TRIPOS>BOND
     1    6    7 2  
     2   10   11 am 
     3    9   10 1  
     4    8    9 2  
     5    5    6 am 
     6    4    5 1  
     7    1    2 1  
     8    1    8 1  
     9    2    3 1  
    10    3    4 2  
    11   11   12 2  
    12    3   13 1  
    13    4   14 1  
    14    5   15 1  
    15    6   16 1  
    16    8   17 1  
    17    9   18 1  
    18   10   19 1  
    19   11   20 1  
# Name:          frag3-195-6/31924 -- energy: -1.723608
# Creation time: Sat Jun  5 12:52:18 2010


@<TRIPOS>MOLECULE
frag3-195-6/31924 -- energy: -1.723608
   20    19     1     1     1
SMALL
USER_CHARGES


@<TRIPOS>ATOM
      1 S1          3.2242   -2.0305   -6.6788 S.3        1 <1>        0.000
      2 S2          4.3648   -3.0103   -5.3182 S.3        1 <1>        0.000
      3 C1          5.7191   -1.8538   -5.1484 C.2        1 <1>        0.000
      4 C2          6.3233   -1.4003   -6.2570 C.2        1 <1>        0.000
      5 N1          7.3346   -0.4979   -6.3380 N.am       1 <1>        0.000
      6 C9          7.9057    0.0326   -7.4446 C.2        1 <1>        0.000
      7 O1          7.5006   -0.1040   -8.5870 O.2        1 <1>        0.000
      8 C20         1.7064   -1.8348   -5.7536 C.2        1 <1>        0.000
      9 C21         0.5397   -2.0000   -6.3915 C.2        1 <1>        0.000
     10 N5         -0.7063   -1.9259   -5.8632 N.am       1 <1>        0.000
     11 C28        -1.9039   -2.0702   -6.4803 C.2        1 <1>        0.000
     12 O4         -2.9939   -2.0147   -5.9364 O.2        1 <1>        0.000
     13 H           6.0472   -1.5238   -4.1627 H.spc      1 <1>        0.000
     14 H           5.9602   -1.8030   -7.2025 H.spc      1 <1>        0.000
     15 H           7.7141   -0.1774   -5.4471 H.spc      1 <1>        0.000
     16 H           8.8042    0.6331   -7.3028 H.spc      1 <1>        0.000
     17 H           1.7299   -1.5862   -4.6926 H.spc      1 <1>        0.000
     18 H           0.5995   -2.2191   -7.4576 H.spc      1 <1>        0.000
     19 H          -0.7482   -1.7350   -4.8621 H.spc      1 <1>        0.000
     20 H          -1.8920   -2.2514   -7.5551 H.spc      1 <1>        0.000
@<TRIPOS>BOND
     1    6    7 2  
     2   10   11 am 
     3    9   10 1  
     4    8    9 2  
     5    5    6 am 
     6    4    5 1  
     7    1    2 1  
     8    1    8 1  
     9    2    3 1  
    10    3    4 2  
    11   11   12 2  
    12    3   13 1  
    13    4   14 1  
    14    5   15 1  
    15    6   16 1  
    16    8   17 1  
    17    9   18 1  
    18   10   19 1  
    19   11   20 1  
# Name:          frag3-195-6/31924 -- energy: -1.966703
# Creation time: Sat Jun  5 12:52:18 2010


@<TRIPOS>MOLECULE
frag3-195-6/31924 -- energy: -1.966703
   20    19     1     1     1
SMALL
USER_CHARGES


@<TRIPOS>ATOM
      1 S1          3.5444   -0.8891   -5.2366 S.3        1 <1>        0.000
      2 S2          2.7246   -0.6020   -7.0691 S.3        1 <1>        0.000
      3 C1          1.6115   -2.0011   -7.1404 C.2        1 <1>        0.000
      4 C2          0.4821   -1.9652   -6.4179 C.2        1 <1>        0.000
      5 N1         -0.4983   -2.9032   -6.3675 N.am       1 <1>        0.000
      6 C9         -1.6805   -2.8540   -5.7102 C.2        1 <1>        0.000
      7 O1         -2.0408   -1.9584   -4.9645 O.2        1 <1>        0.000
      8 C20         5.0136   -1.8088   -5.6782 C.2        1 <1>        0.000
      9 C21         6.0539   -1.1432   -6.1997 C.2        1 <1>        0.000
     10 N5          7.2562   -1.6510   -6.5678 N.am       1 <1>        0.000
     11 C28         8.2891   -1.0290   -7.1860 C.2        1 <1>        0.000
     12 O4          8.2587    0.0951   -7.6589 O.2        1 <1>        0.000
     13 H           1.8470   -2.8667   -7.7596 H.spc      1 <1>        0.000
     14 H           0.3341   -1.0801   -5.7992 H.spc      1 <1>        0.000
     15 H          -0.3204   -3.7580   -6.8947 H.spc      1 <1>        0.000
     16 H          -2.3692   -3.6855   -5.8600 H.spc      1 <1>        0.000
     17 H           5.0620   -2.8871   -5.5266 H.spc      1 <1>        0.000
     18 H           5.9178   -0.0715   -6.3444 H.spc      1 <1>        0.000
     19 H           7.4032   -2.6364   -6.3493 H.spc      1 <1>        0.000
     20 H           9.2263   -1.5795   -7.2677 H.spc      1 <1>        0.000
@<TRIPOS>BOND
     1    6    7 2  
     2   10   11 am 
     3    9   10 1  
     4    8    9 2  
     5    5    6 am 
     6    4    5 1  
     7    1    2 1  
     8    1    8 1  
     9    2    3 1  
    10    3    4 2  
    11   11   12 2  
    12    3   13 1  
    13    4   14 1  
    14    5   15 1  
    15    6   16 1  
    16    8   17 1  
    17    9   18 1  
    18   10   19 1  
    19   11   20 1  
# Name:          frag3-195-6/31924 -- energy: -3.060725
# Creation time: Sat Jun  5 12:52:18 2010


@<TRIPOS>MOLECULE
frag3-195-6/31924 -- energy: -3.060725
   20    19     1     1     1
SMALL
USER_CHARGES


@<TRIPOS>ATOM
      1 S1          3.2849   -4.4778   -5.9815 S.3        1 <1>        0.000
      2 S2          4.6250   -4.2728   -7.4879 S.3        1 <1>        0.000
      3 C1          5.5997   -2.9113   -6.8639 C.2        1 <1>        0.000
      4 C2          5.0452   -1.6918   -6.7959 C.2        1 <1>        0.000
      5 N1          5.6035   -0.5510   -6.3189 N.am       1 <1>        0.000
      6 C9          5.0367    0.6689   -6.1700 C.2        1 <1>        0.000
      7 O1          3.9105    0.9764   -6.5246 O.2        1 <1>        0.000
      8 C20         2.1995   -3.0991   -6.3157 C.2        1 <1>        0.000
      9 C21         1.9694   -2.2058   -5.3438 C.2        1 <1>        0.000
     10 N5          1.2097   -1.0875   -5.4137 N.am       1 <1>        0.000
     11 C28         0.5961   -0.5410   -6.4914 C.2        1 <1>        0.000
     12 O4         -0.0657    0.4830   -6.4897 O.2        1 <1>        0.000
     13 H           6.6294   -3.0694   -6.5433 H.spc      1 <1>        0.000
     14 H           4.0243   -1.6073   -7.1683 H.spc      1 <1>        0.000
     15 H           6.5805   -0.6222   -6.0347 H.spc      1 <1>        0.000
     16 H           5.6377    1.4428   -5.6925 H.spc      1 <1>        0.000
     17 H           1.7321   -2.9863   -7.2939 H.spc      1 <1>        0.000
     18 H           2.4498   -2.4025   -4.3854 H.spc      1 <1>        0.000
     19 H           1.0814   -0.5873   -4.5341 H.spc      1 <1>        0.000
     20 H           0.7036   -1.0623   -7.4426 H.spc      1 <1>        0.000
@<TRIPOS>BOND
     1    6    7 2  
     2   10   11 am 
     3    9   10 1  
     4    8    9 2  
     5    5    6 am 
     6    4    5 1  
     7    1    2 1  
     8    1    8 1  
     9    2    3 1  
    10    3    4 2  
    11   11   12 2  
    12    3   13 1  
    13    4   14 1  
    14    5   15 1  
    15    6   16 1  
    16    8   17 1  
    17    9   18 1  
    18   10   19 1  
    19   11   20 1  
# Name:          frag3-195-6/31924 -- energy: -2.327884
# Creation time: Sat Jun  5 12:52:18 2010


@<TRIPOS>MOLECULE
frag3-195-6/31924 -- energy: -2.327884
   20    19     1     1     1
SMALL
USER_CHARGES


@<TRIPOS>ATOM
      1 S1          3.9662   -3.9033   -6.5682 S.3        1 <1>        0.000
      2 S2          2.8946   -3.6959   -4.8638 S.3        1 <1>        0.000
      3 C1          1.4977   -2.7750   -5.4664 C.2        1 <1>        0.000
      4 C2          1.6517   -1.4843   -5.8018 C.2        1 <1>        0.000
      5 N1          0.7280   -0.6367   -6.3139 N.am       1 <1>        0.000
      6 C9         -0.5961   -0.8502   -6.4991 C.2        1 <1>        0.000
      7 O1         -1.2020   -1.8666   -6.1979 O.2        1 <1>        0.000
      8 C20         5.0815   -2.5248   -6.4384 C.2        1 <1>        0.000
      9 C21         5.0272   -1.5448   -7.3499 C.2        1 <1>        0.000
     10 N5          5.7622   -0.4135   -7.3985 N.am       1 <1>        0.000
     11 C28         6.7870   -0.0269   -6.6004 C.2        1 <1>        0.000
     12 O4          7.4166    1.0121   -6.6986 O.2        1 <1>        0.000
     13 H           0.5238   -3.2549   -5.5627 H.spc      1 <1>        0.000
     14 H           2.6454   -1.0658   -5.6418 H.spc      1 <1>        0.000
     15 H           1.0742    0.2802   -6.5963 H.spc      1 <1>        0.000
     16 H          -1.1710   -0.0451   -6.9567 H.spc      1 <1>        0.000
     17 H           5.8038   -2.4775   -5.6235 H.spc      1 <1>        0.000
     18 H           4.3000   -1.6770   -8.1510 H.spc      1 <1>        0.000
     19 H           5.5113    0.2415   -8.1390 H.spc      1 <1>        0.000
     20 H           7.0742   -0.7066   -5.7981 H.spc      1 <1>        0.000
@<TRIPOS>BOND
     1    6    7 2  
     2   10   11 am 
     3    9   10 1  
     4    8    9 2  
     5    5    6 am 
     6    4    5 1  
     7    1    2 1  
     8    1    8 1  
     9    2    3 1  
    10    3    4 2  
    11   11   12 2  
    12    3   13 1  
    13    4   14 1  
    14    5   15 1  
    15    6   16 1  
    16    8   17 1  
    17    9   18 1  
    18   10   19 1  
    19   11   20 1  
# Name:          frag3-195-6/31924 -- energy: -2.780596
# Creation time: Sat Jun  5 12:52:18 2010


@<TRIPOS>MOLECULE
frag3-195-6/31924 -- energy: -2.780596
   20    19     1     1     1
SMALL
USER_CHARGES


@<TRIPOS>ATOM
      1 S1          4.3792   -4.2085   -6.0848 S.3        1 <1>        0.000
      2 S2          2.8128   -4.4101   -7.3507 S.3        1 <1>        0.000
      3 C1          1.6646   -3.2533   -6.6292 C.2        1 <1>        0.000
      4 C2          1.8249   -1.9403   -6.8557 C.2        1 <1>        0.000
      5 N1          1.0455   -0.9213   -6.4265 N.am       1 <1>        0.000
      6 C9         -0.0289   -0.9664   -5.6039 C.2        1 <1>        0.000
      7 O1         -0.5794   -0.0058   -5.0945 O.2        1 <1>        0.000
      8 C20         5.0028   -2.6130   -6.5755 C.2        1 <1>        0.000
      9 C21         5.0144   -1.6125   -5.6845 C.2        1 <1>        0.000
     10 N5          5.4699   -0.3523   -5.8596 N.am       1 <1>        0.000
     11 C28         6.0466    0.2015   -6.9537 C.2        1 <1>        0.000
     12 O4          6.3623    1.3722   -7.0783 O.2        1 <1>        0.000
     13 H           0.8407   -3.6087   -6.0104 H.spc      1 <1>        0.000
     14 H           2.6885   -1.6608   -7.4592 H.spc      1 <1>        0.000
     15 H           1.3015    0.0050   -6.7684 H.spc      1 <1>        0.000
     16 H          -0.4385   -1.9506   -5.3767 H.spc      1 <1>        0.000
     17 H           5.3706   -2.4528   -7.5890 H.spc      1 <1>        0.000
     18 H           4.6075   -1.8427   -4.6999 H.spc      1 <1>        0.000
     19 H           5.3651    0.2681   -5.0568 H.spc      1 <1>        0.000
     20 H           6.2460   -0.4589   -7.7977 H.spc      1 <1>        0.000
@<TRIPOS>BOND
     1    6    7 2  
     2   10   11 am 
     3    9   10 1  
     4    8    9 2  
     5    5    6 am 
     6    4    5 1  
     7    1    2 1  
     8    1    8 1  
     9    2    3 1  
    10    3    4 2  
    11   11   12 2  
    12    3   13 1  
    13    4   14 1  
    14    5   15 1  
    15    6   16 1  
    16    8   17 1  
    17    9   18 1  
    18   10   19 1  
    19   11   20 1  
# Name:          frag3-195-6/31924 -- energy: -2.009613
# Creation time: Sat Jun  5 12:52:18 2010


@<TRIPOS>MOLECULE
frag3-195-6/31924 -- energy: -2.009613
   20    19     1     1     1
SMALL
USER_CHARGES


@<TRIPOS>ATOM
      1 S1          3.7784   -2.9740   -5.7896 S.3        1 <1>        0.000
      2 S2          3.0210   -1.4693   -4.6633 S.3        1 <1>        0.000
      3 C1          1.6887   -0.9223   -5.7109 C.2        1 <1>        0.000
      4 C2          0.5770   -1.6680   -5.7978 C.2        1 <1>        0.000
      5 N1         -0.5490   -1.4096   -6.5060 N.am       1 <1>        0.000
      6 C9         -1.6358   -2.1957   -6.6841 C.2        1 <1>        0.000
      7 O1         -1.8248   -3.2782   -6.1529 O.2        1 <1>        0.000
      8 C20         5.0634   -2.1112   -6.6691 C.2        1 <1>        0.000
      9 C21         5.9634   -1.4009   -5.9706 C.2        1 <1>        0.000
     10 N5          7.0201   -0.7069   -6.4463 N.am       1 <1>        0.000
     11 C28         7.4748   -0.6124   -7.7194 C.2        1 <1>        0.000
     12 O4          8.4373    0.0388   -8.0870 O.2        1 <1>        0.000
     13 H           1.7755    0.0067   -6.2744 H.spc      1 <1>        0.000
     14 H           0.5798   -2.5972   -5.2280 H.spc      1 <1>        0.000
     15 H          -0.5817   -0.5002   -6.9668 H.spc      1 <1>        0.000
     16 H          -2.4091   -1.8308   -7.3601 H.spc      1 <1>        0.000
     17 H           5.1186   -2.1588   -7.7567 H.spc      1 <1>        0.000
     18 H           5.8247   -1.3820   -4.8896 H.spc      1 <1>        0.000
     19 H           7.5492   -0.1810   -5.7507 H.spc      1 <1>        0.000
     20 H           6.9311   -1.1686   -8.4830 H.spc      1 <1>        0.000
@<TRIPOS>BOND
     1    6    7 2  
     2   10   11 am 
     3    9   10 1  
     4    8    9 2  
     5    5    6 am 
     6    4    5 1  
     7    1    2 1  
     8    1    8 1  
     9    2    3 1  
    10    3    4 2  
    11   11   12 2  
    12    3   13 1  
    13    4   14 1  
    14    5   15 1  
    15    6   16 1  
    16    8   17 1  
    17    9   18 1  
    18   10   19 1  
    19   11   20 1  
# Name:          frag3-195-6/31924 -- energy: -2.487145
# Creation time: Sat Jun  5 12:52:18 2010


@<TRIPOS>MOLECULE
frag3-195-6/31924 -- energy: -2.487145
   20    19     1     1     1
SMALL
USER_CHARGES


@<TRIPOS>ATOM
      1 S1          3.0890   -4.3624   -5.7268 S.3        1 <1>        0.000
      2 S2          3.6671   -3.6796   -7.5453 S.3        1 <1>        0.000
      3 C1          4.8784   -2.4603   -7.0575 C.2        1 <1>        0.000
      4 C2          4.6656   -1.1716   -7.3594 C.2        1 <1>        0.000
      5 N1          5.4418   -0.1067   -7.0429 N.am       1 <1>        0.000
      6 C9          6.5892   -0.0812   -6.3247 C.2        1 <1>        0.000
      7 O1          7.3498    0.8667   -6.2307 O.2        1 <1>        0.000
      8 C20         2.3883   -2.8755   -5.0277 C.2        1 <1>        0.000
      9 C21         1.3753   -2.2764   -5.6705 C.2        1 <1>        0.000
     10 N5          0.6957   -1.1672   -5.2919 N.am       1 <1>        0.000
     11 C28        -0.3292   -0.5409   -5.9184 C.2        1 <1>        0.000
     12 O4         -0.7965   -0.8548   -7.0010 O.2        1 <1>        0.000
     13 H           5.7788   -2.7603   -6.5214 H.spc      1 <1>        0.000
     14 H           3.7607   -0.9545   -7.9269 H.spc      1 <1>        0.000
     15 H           5.1186    0.7955   -7.3922 H.spc      1 <1>        0.000
     16 H           6.8564   -0.9884   -5.7827 H.spc      1 <1>        0.000
     17 H           2.7767   -2.4630   -4.0965 H.spc      1 <1>        0.000
     18 H           1.0618   -2.7359   -6.6079 H.spc      1 <1>        0.000
     19 H           0.9975   -0.7453   -4.4136 H.spc      1 <1>        0.000
     20 H          -0.7741    0.3160   -5.4126 H.spc      1 <1>        0.000
@<TRIPOS>BOND
     1    6    7 2  
     2   10   11 am 
     3    9   10 1  
     4    8    9 2  
     5    5    6 am 
     6    4    5 1  
     7    1    2 1  
     8    1    8 1  
     9    2    3 1  
    10    3    4 2  
    11   11   12 2  
    12    3   13 1  
    13    4   14 1  
    14    5   15 1  
    15    6   16 1  
    16    8   17 1  
    17    9   18 1  
    18   10   19 1  
    19   11   20 1  
# Name:          frag3-195-6/31924 -- energy: -1.619278
# Creation time: Sat Jun  5 12:52:18 2010


@<TRIPOS>MOLECULE
frag3-195-6/31924 -- energy: -1.619278
   20    19     1     1     1
SMALL
USER_CHARGES


@<TRIPOS>ATOM
      1 S1          3.0611   -3.0305   -6.7207 S.3        1 <1>        0.000
      2 S2          4.6568   -3.2361   -5.4912 S.3        1 <1>        0.000
      3 C1          5.6355   -1.8340   -5.9972 C.2        1 <1>        0.000
      4 C2          6.2601   -1.8703   -7.1846 C.2        1 <1>        0.000
      5 N1          7.0110   -0.8986   -7.7598 N.am       1 <1>        0.000
      6 C9          7.2847    0.3412   -7.2902 C.2        1 <1>        0.000
      7 O1          6.8454    0.8235   -6.2587 O.2        1 <1>        0.000
      8 C20         1.8243   -2.4584   -5.5709 C.2        1 <1>        0.000
      9 C21         0.5793   -2.2381   -6.0098 C.2        1 <1>        0.000
     10 N5         -0.4957   -1.8364   -5.2903 N.am       1 <1>        0.000
     11 C28        -1.6662   -1.3134   -5.7274 C.2        1 <1>        0.000
     12 O4         -1.9819   -1.1588   -6.8961 O.2        1 <1>        0.000
     13 H           5.7252   -0.9603   -5.3517 H.spc      1 <1>        0.000
     14 H           6.1505   -2.7923   -7.7556 H.spc      1 <1>        0.000
     15 H           7.4229   -1.1321   -8.6632 H.spc      1 <1>        0.000
     16 H           7.9551    0.9622   -7.8844 H.spc      1 <1>        0.000
     17 H           2.0788   -2.2903   -4.5244 H.spc      1 <1>        0.000
     18 H           0.4101   -2.4016   -7.0741 H.spc      1 <1>        0.000
     19 H          -0.4122   -1.9424   -4.2793 H.spc      1 <1>        0.000
     20 H          -2.3876   -1.0043   -4.9710 H.spc      1 <1>        0.000
@<TRIPOS>BOND
     1    6    7 2  
     2   10   11 am 
     3    9   10 1  
     4    8    9 2  
     5    5    6 am 
     6    4    5 1  
     7    1    2 1  
     8    1    8 1  
     9    2    3 1  
    10    3    4 2  
    11   11   12 2  
    12    3   13 1  
    13    4   14 1  
    14    5   15 1  
    15    6   16 1  
    16    8   17 1  
    17    9   18 1  
    18   10   19 1  
    19   11   20 1  
# Name:          frag3-195-6/31924 -- energy: -1.952107
# Creation time: Sat Jun  5 12:52:18 2010


@<TRIPOS>MOLECULE
frag3-195-6/31924 -- energy: -1.952107
   20    19     1     1     1
SMALL
USER_CHARGES


@<TRIPOS>ATOM
      1 S1          4.2265   -3.3397   -6.0950 S.3        1 <1>        0.000
      2 S2          2.9601   -3.3803   -7.6703 S.3        1 <1>        0.000
      3 C1          1.4305   -2.9570   -6.8730 C.2        1 <1>        0.000
      4 C2          1.2510   -1.7129   -6.4018 C.2        1 <1>        0.000
      5 N1          0.1563   -1.1984   -5.8007 N.am       1 <1>        0.000
      6 C9         -1.0922   -1.7168   -5.7271 C.2        1 <1>        0.000
      7 O1         -2.0616   -1.1813   -5.2187 O.2        1 <1>        0.000
      8 C20         5.1901   -1.8941   -6.4607 C.2        1 <1>        0.000
      9 C21         6.1032   -1.4669   -5.5812 C.2        1 <1>        0.000
     10 N5          6.9472   -0.4162   -5.6955 N.am       1 <1>        0.000
     11 C28         7.2031    0.3485   -6.7846 C.2        1 <1>        0.000
     12 O4          6.7005    0.2052   -7.8884 O.2        1 <1>        0.000
     13 H           0.6426   -3.7027   -6.7670 H.spc      1 <1>        0.000
     14 H           2.0945   -1.0325   -6.5190 H.spc      1 <1>        0.000
     15 H           0.2880   -0.2979   -5.3401 H.spc      1 <1>        0.000
     16 H          -1.2443   -2.7043   -6.1628 H.spc      1 <1>        0.000
     17 H           5.0385   -1.3573   -7.3972 H.spc      1 <1>        0.000
     18 H           6.1762   -2.0377   -4.6555 H.spc      1 <1>        0.000
     19 H           7.4591   -0.1662   -4.8495 H.spc      1 <1>        0.000
     20 H           7.9192    1.1615   -6.6652 H.spc      1 <1>        0.000
@<TRIPOS>BOND
     1    6    7 2  
     2   10   11 am 
     3    9   10 1  
     4    8    9 2  
     5    5    6 am 
     6    4    5 1  
     7    1    2 1  
     8    1    8 1  
     9    2    3 1  
    10    3    4 2  
    11   11   12 2  
    12    3   13 1  
    13    4   14 1  
    14    5   15 1  
    15    6   16 1  
    16    8   17 1  
    17    9   18 1  
    18   10   19 1  
    19   11   20 1  
# Name:          frag3-195-6/31924 -- energy: -1.596174
# Creation time: Sat Jun  5 12:52:18 2010


@<TRIPOS>MOLECULE
frag3-195-6/31924 -- energy: -1.596174
   20    19     1     1     1
SMALL
USER_CHARGES


@<TRIPOS>ATOM
      1 S1          2.9315   -1.1023   -4.8616 S.3        1 <1>        0.000
      2 S2          4.2891   -2.5340   -5.3004 S.3        1 <1>        0.000
      3 C1          5.5677   -1.5582   -6.0623 C.2        1 <1>        0.000
      4 C2          6.6333   -2.1675   -6.5972 C.2        1 <1>        0.000
      5 N1          7.6808   -1.6026   -7.2458 N.am       1 <1>        0.000
      6 C9          7.7765   -0.3534   -7.7590 C.2        1 <1>        0.000
      7 O1          6.9160    0.5100   -7.6941 O.2        1 <1>        0.000
      8 C20         1.4526   -1.8107   -5.5520 C.2        1 <1>        0.000
      9 C21         0.2954   -1.1469   -5.4433 C.2        1 <1>        0.000
     10 N5         -0.9154   -1.5066   -5.9241 N.am       1 <1>        0.000
     11 C28        -1.2535   -2.5981   -6.6525 C.2        1 <1>        0.000
     12 O4         -2.3595   -2.8396   -7.1046 O.2        1 <1>        0.000
     13 H           5.4839   -0.4719   -6.0933 H.spc      1 <1>        0.000
     14 H           6.6619   -3.2527   -6.4988 H.spc      1 <1>        0.000
     15 H           8.5030   -2.1949   -7.3623 H.spc      1 <1>        0.000
     16 H           8.7018   -0.0965   -8.2746 H.spc      1 <1>        0.000
     17 H           1.4886   -2.7753   -6.0583 H.spc      1 <1>        0.000
     18 H           0.3342   -0.2019   -4.9015 H.spc      1 <1>        0.000
     19 H          -1.6809   -0.8678   -5.7088 H.spc      1 <1>        0.000
     20 H          -0.4662   -3.3251   -6.8520 H.spc      1 <1>        0.000
@<TRIPOS>BOND
     1    6    7 2  
     2   10   11 am 
     3    9   10 1  
     4    8    9 2  
     5    5    6 am 
     6    4    5 1  
     7    1    2 1  
     8    1    8 1  
     9    2    3 1  
    10    3    4 2  
    11   11   12 2  
    12    3   13 1  
    13    4   14 1  
    14    5   15 1  
    15    6   16 1  
    16    8   17 1  
    17    9   18 1  
    18   10   19 1  
    19   11   20 1  
# Name:          frag3-195-6/31924 -- energy: -2.301104
# Creation time: Sat Jun  5 12:52:18 2010


@<TRIPOS>MOLECULE
frag3-195-6/31924 -- energy: -2.301104
   20    19     1     1     1
SMALL
USER_CHARGES


@<TRIPOS>ATOM
      1 S1          4.9759   -4.0600   -6.0864 S.3        1 <1>        0.000
      2 S2          3.1492   -4.1866   -6.9531 S.3        1 <1>        0.000
      3 C1          2.1614   -3.3157   -5.7464 C.2        1 <1>        0.000
      4 C2          1.4063   -2.2823   -6.1428 C.2        1 <1>        0.000
      5 N1          0.5689   -1.5264   -5.3895 N.am       1 <1>        0.000
      6 C9         -0.1049   -0.4065   -5.7403 C.2        1 <1>        0.000
      7 O1          0.0003    0.1815   -6.8043 O.2        1 <1>        0.000
      8 C20         5.2363   -2.2943   -6.1294 C.2        1 <1>        0.000
      9 C21         5.4901   -1.7076   -7.3084 C.2        1 <1>        0.000
     10 N5          5.6823   -0.3890   -7.5523 N.am       1 <1>        0.000
     11 C28         5.4894    0.6638   -6.7210 C.2        1 <1>        0.000
     12 O4          4.9592    0.6131   -5.6229 O.2        1 <1>        0.000
     13 H           2.1727   -3.6212   -4.7002 H.spc      1 <1>        0.000
     14 H           1.4729   -2.0170   -7.1979 H.spc      1 <1>        0.000
     15 H           0.4283   -1.8446   -4.4307 H.spc      1 <1>        0.000
     16 H          -0.8012    0.0056   -5.0099 H.spc      1 <1>        0.000
     17 H           5.1899   -1.7040   -5.2143 H.spc      1 <1>        0.000
     18 H           5.5486   -2.3698   -8.1722 H.spc      1 <1>        0.000
     19 H           6.0173   -0.1574   -8.4875 H.spc      1 <1>        0.000
     20 H           5.8374    1.6388   -7.0621 H.spc      1 <1>        0.000
@<TRIPOS>BOND
     1    6    7 2  
     2   10   11 am 
     3    9   10 1  
     4    8    9 2  
     5    5    6 am 
     6    4    5 1  
     7    1    2 1  
     8    1    8 1  
     9    2    3 1  
    10    3    4 2  
    11   11   12 2  
    12    3   13 1  
    13    4   14 1  
    14    5   15 1  
    15    6   16 1  
    16    8   17 1  
    17    9   18 1  
    18   10   19 1  
    19   11   20 1  
# Name:          frag3-195-6/31924 -- energy: -1.921800
# Creation time: Sat Jun  5 12:52:18 2010


@<TRIPOS>MOLECULE
frag3-195-6/31924 -- energy: -1.921800
   20    19     1     1     1
SMALL
USER_CHARGES


@<TRIPOS>ATOM
      1 S1          4.1872   -3.8997   -6.5862 S.3        1 <1>        0.000
      2 S2          3.2973   -2.9660   -5.0246 S.3        1 <1>        0.000
      3 C1          1.7260   -2.5369   -5.7500 C.2        1 <1>        0.000
      4 C2          0.8265   -1.8674   -5.0175 C.2        1 <1>        0.000
      5 N1         -0.3950   -1.4261   -5.4019 N.am       1 <1>        0.000
      6 C9         -0.9885   -1.5303   -6.6143 C.2        1 <1>        0.000
      7 O1         -1.9755   -0.9158   -6.9803 O.2        1 <1>        0.000
      8 C20         5.7097   -2.9792   -6.6986 C.2        1 <1>        0.000
      9 C21         5.6535   -1.6603   -6.9357 C.2        1 <1>        0.000
     10 N5          6.6845   -0.7890   -7.0220 N.am       1 <1>        0.000
     11 C28         6.6586    0.5628   -7.1051 C.2        1 <1>        0.000
     12 O4          7.6303    1.2979   -7.0608 O.2        1 <1>        0.000
     13 H           1.4998   -2.8166   -6.7789 H.spc      1 <1>        0.000
     14 H           1.1119   -1.6517   -3.9879 H.spc      1 <1>        0.000
     15 H          -0.9404   -0.9521   -4.6820 H.spc      1 <1>        0.000
     16 H          -0.5441   -2.2256   -7.3265 H.spc      1 <1>        0.000
     17 H           6.6702   -3.4799   -6.5767 H.spc      1 <1>        0.000
     18 H           4.6575   -1.2402   -7.0756 H.spc      1 <1>        0.000
     19 H           7.6137   -1.2097   -7.0249 H.spc      1 <1>        0.000
     20 H           5.6831    1.0350   -7.2219 H.spc      1 <1>        0.000
@<TRIPOS>BOND
     1    6    7 2  
     2   10   11 am 
     3    9   10 1  
     4    8    9 2  
     5    5    6 am 
     6    4    5 1  
     7    1    2 1  
     8    1    8 1  
     9    2    3 1  
    10    3    4 2  
    11   11   12 2  
    12    3   13 1  
    13    4   14 1  
    14    5   15 1  
    15    6   16 1  
    16    8   17 1  
    17    9   18 1  
    18   10   19 1  
    19   11   20 1  
# Name:          frag3-195-6/31924 -- energy: -2.335926
# Creation time: Sat Jun  5 12:52:18 2010


@<TRIPOS>MOLECULE
frag3-195-6/31924 -- energy: -2.335926
   20    19     1     1     1
SMALL
USER_CHARGES


@<TRIPOS>ATOM
      1 S1          3.2819   -3.7543   -5.6782 S.3        1 <1>        0.000
      2 S2          3.9928   -3.4719   -7.5532 S.3        1 <1>        0.000
      3 C1          5.3266   -2.3406   -7.2249 C.2        1 <1>        0.000
      4 C2          5.0474   -1.0718   -6.8876 C.2        1 <1>        0.000
      5 N1          5.9141   -0.0861   -6.5642 N.am       1 <1>        0.000
      6 C9          7.2617   -0.0674   -6.6933 C.2        1 <1>        0.000
      7 O1          7.9982    0.8500   -6.3755 O.2        1 <1>        0.000
      8 C20         1.9660   -2.5580   -5.6341 C.2        1 <1>        0.000
      9 C21         0.7367   -2.9267   -6.0226 C.2        1 <1>        0.000
     10 N5         -0.3878   -2.1790   -6.0368 N.am       1 <1>        0.000
     11 C28        -0.5325   -0.8514   -5.8073 C.2        1 <1>        0.000
     12 O4         -1.5905   -0.2527   -5.7192 O.2        1 <1>        0.000
     13 H           6.3615   -2.6752   -7.2971 H.spc      1 <1>        0.000
     14 H           3.9912   -0.8030   -6.8726 H.spc      1 <1>        0.000
     15 H           5.4967    0.7569   -6.1699 H.spc      1 <1>        0.000
     16 H           7.7307   -0.9538   -7.1205 H.spc      1 <1>        0.000
     17 H           2.1564   -1.5394   -5.2960 H.spc      1 <1>        0.000
     18 H           0.6324   -3.9549   -6.3691 H.spc      1 <1>        0.000
     19 H          -1.2480   -2.6839   -6.2500 H.spc      1 <1>        0.000
     20 H           0.3796   -0.2660   -5.6910 H.spc      1 <1>        0.000
@<TRIPOS>BOND
     1    6    7 2  
     2   10   11 am 
     3    9   10 1  
     4    8    9 2  
     5    5    6 am 
     6    4    5 1  
     7    1    2 1  
     8    1    8 1  
     9    2    3 1  
    10    3    4 2  
    11   11   12 2  
    12    3   13 1  
    13    4   14 1  
    14    5   15 1  
    15    6   16 1  
    16    8   17 1  
    17    9   18 1  
    18   10   19 1  
    19   11   20 1  
# Name:          frag3-195-6/31924 -- energy: -2.447112
# Creation time: Sat Jun  5 12:52:18 2010


@<TRIPOS>MOLECULE
frag3-195-6/31924 -- energy: -2.447112
   20    19     1     1     1
SMALL
USER_CHARGES


@<TRIPOS>ATOM
      1 S1          4.7405   -4.2753   -5.7902 S.3        1 <1>        0.000
      2 S2          3.4548   -4.1199   -7.3488 S.3        1 <1>        0.000
      3 C1          2.0113   -3.4827   -6.5166 C.2        1 <1>        0.000
      4 C2          1.7315   -2.1745   -6.5990 C.2        1 <1>        0.000
      5 N1          0.6738   -1.5141   -6.0707 N.am       1 <1>        0.000
      6 C9          0.4376   -0.1821   -6.0298 C.2        1 <1>        0.000
      7 O1         -0.5110    0.3577   -5.4865 O.2        1 <1>        0.000
      8 C20         5.8067   -2.8800   -6.1010 C.2        1 <1>        0.000
      9 C21         5.2550   -1.6713   -6.2848 C.2        1 <1>        0.000
     10 N5          5.8893   -0.4951   -6.5041 N.am       1 <1>        0.000
     11 C28         5.3584    0.7332   -6.7146 C.2        1 <1>        0.000
     12 O4          4.1667    0.9943   -6.7507 O.2        1 <1>        0.000
     13 H           1.3640   -4.1499   -5.9474 H.spc      1 <1>        0.000
     14 H           2.4424   -1.5678   -7.1600 H.spc      1 <1>        0.000
     15 H          -0.0435   -2.1013   -5.6451 H.spc      1 <1>        0.000
     16 H           1.1597    0.4657   -6.5268 H.spc      1 <1>        0.000
     17 H           6.8885   -3.0073   -6.1409 H.spc      1 <1>        0.000
     18 H           4.1662   -1.6310   -6.2540 H.spc      1 <1>        0.000
     19 H           6.9083   -0.5404   -6.5118 H.spc      1 <1>        0.000
     20 H           6.0546    1.5584   -6.8645 H.spc      1 <1>        0.000
@<TRIPOS>BOND
     1    6    7 2  
     2   10   11 am 
     3    9   10 1  
     4    8    9 2  
     5    5    6 am 
     6    4    5 1  
     7    1    2 1  
     8    1    8 1  
     9    2    3 1  
    10    3    4 2  
    11   11   12 2  
    12    3   13 1  
    13    4   14 1  
    14    5   15 1  
    15    6   16 1  
    16    8   17 1  
    17    9   18 1  
    18   10   19 1  
    19   11   20 1  
# Name:          frag3-195-6/31924 -- energy: -2.054409
# Creation time: Sat Jun  5 12:52:18 2010


@<TRIPOS>MOLECULE
frag3-195-6/31924 -- energy: -2.054409
   20    19     1     1     1
SMALL
USER_CHARGES


@<TRIPOS>ATOM
      1 S1          3.4313   -3.8421   -5.8993 S.3        1 <1>        0.000
      2 S2          3.9881   -3.1895   -7.7356 S.3        1 <1>        0.000
      3 C1          4.9421   -1.7504   -7.2843 C.2        1 <1>        0.000
      4 C2          6.0129   -1.9019   -6.4891 C.2        1 <1>        0.000
      5 N1          6.8773   -0.9466   -6.0667 N.am       1 <1>        0.000
      6 C9          6.8816    0.3742   -6.3640 C.2        1 <1>        0.000
      7 O1          6.1698    0.9185   -7.1926 O.2        1 <1>        0.000
      8 C20         2.3525   -2.5136   -5.3941 C.2        1 <1>        0.000
      9 C21         1.1171   -2.4516   -5.9112 C.2        1 <1>        0.000
     10 N5          0.1484   -1.5480   -5.6383 N.am       1 <1>        0.000
     11 C28        -1.0368   -1.3478   -6.2628 C.2        1 <1>        0.000
     12 O4         -1.8699   -0.5110   -5.9590 O.2        1 <1>        0.000
     13 H           4.6594   -0.7629   -7.6490 H.spc      1 <1>        0.000
     14 H           6.2115   -2.9155   -6.1409 H.spc      1 <1>        0.000
     15 H           7.6205   -1.2641   -5.4444 H.spc      1 <1>        0.000
     16 H           7.5809    1.0058   -5.8162 H.spc      1 <1>        0.000
     17 H           2.6920   -1.7656   -4.6776 H.spc      1 <1>        0.000
     18 H           0.8628   -3.2221   -6.6391 H.spc      1 <1>        0.000
     19 H           0.3373   -0.9291   -4.8498 H.spc      1 <1>        0.000
     20 H          -1.2660   -1.9917   -7.1119 H.spc      1 <1>        0.000
@<TRIPOS>BOND
     1    6    7 2  
     2   10   11 am 
     3    9   10 1  
     4    8    9 2  
     5    5    6 am 
     6    4    5 1  
     7    1    2 1  
     8    1    8 1  
     9    2    3 1  
    10    3    4 2  
    11   11   12 2  
    12    3   13 1  
    13    4   14 1  
    14    5   15 1  
    15    6   16 1  
    16    8   17 1  
    17    9   18 1  
    18   10   19 1  
    19   11   20 1  
# Name:          frag3-195-6/31924 -- energy: -2.425199
# Creation time: Sat Jun  5 12:52:18 2010


@<TRIPOS>MOLECULE
frag3-195-6/31924 -- energy: -2.425199
   20    19     1     1     1
SMALL
USER_CHARGES


@<TRIPOS>ATOM
      1 S1          4.2133   -4.1534   -5.7863 S.3        1 <1>        0.000
      2 S2          2.5225   -4.4210   -6.8667 S.3        1 <1>        0.000
      3 C1          1.5918   -2.9820   -6.3669 C.2        1 <1>        0.000
      4 C2          1.5372   -1.9211   -7.1855 C.2        1 <1>        0.000
      5 N1          0.8597   -0.7611   -7.0001 N.am       1 <1>        0.000
      6 C9          0.1824   -0.3490   -5.9027 C.2        1 <1>        0.000
      7 O1          0.2250   -0.8751   -4.8023 O.2        1 <1>        0.000
      8 C20         4.7758   -2.5881   -6.4330 C.2        1 <1>        0.000
      9 C21         5.2223   -1.6550   -5.5822 C.2        1 <1>        0.000
     10 N5          5.7125   -0.4300   -5.8809 N.am       1 <1>        0.000
     11 C28         5.8621    0.1551   -7.0940 C.2        1 <1>        0.000
     12 O4          6.3099    1.2708   -7.2963 O.2        1 <1>        0.000
     13 H           1.0741   -2.9658   -5.4078 H.spc      1 <1>        0.000
     14 H           2.1062   -2.0009   -8.1118 H.spc      1 <1>        0.000
     15 H           0.8605   -0.1154   -7.7897 H.spc      1 <1>        0.000
     16 H          -0.4558    0.5280   -6.0113 H.spc      1 <1>        0.000
     17 H           4.7563   -2.3941   -7.5054 H.spc      1 <1>        0.000
     18 H           5.1865   -1.9132   -4.5238 H.spc      1 <1>        0.000
     19 H           6.0107    0.1307   -5.0827 H.spc      1 <1>        0.000
     20 H           5.5550   -0.4227   -7.9657 H.spc      1 <1>        0.000
@<TRIPOS>BOND
     1    6    7 2  
     2   10   11 am 
     3    9   10 1  
     4    8    9 2  
     5    5    6 am 
     6    4    5 1  
     7    1    2 1  
     8    1    8 1  
     9    2    3 1  
    10    3    4 2  
    11   11   12 2  
    12    3   13 1  
    13    4   14 1  
    14    5   15 1  
    15    6   16 1  
    16    8   17 1  
    17    9   18 1  
    18   10   19 1  
    19   11   20 1  
# Name:          frag3-195-6/31924 -- energy: -1.637184
# Creation time: Sat Jun  5 12:52:18 2010


@<TRIPOS>MOLECULE
frag3-195-6/31924 -- energy: -1.637184
   20    19     1     1     1
SMALL
USER_CHARGES


@<TRIPOS>ATOM
      1 S1          2.4232   -0.9785   -6.7640 S.3        1 <1>        0.000
      2 S2          3.9931   -1.2072   -5.5021 S.3        1 <1>        0.000
      3 C1          5.2696   -1.6788   -6.6647 C.2        1 <1>        0.000
      4 C2          6.4902   -1.1395   -6.5379 C.2        1 <1>        0.000
      5 N1          7.5903   -1.3962   -7.2916 N.am       1 <1>        0.000
      6 C9          8.7802   -0.7510   -7.2951 C.2        1 <1>        0.000
      7 O1          9.0042    0.3268   -6.7698 O.2        1 <1>        0.000
      8 C20         1.3688   -2.3176   -6.2197 C.2        1 <1>        0.000
      9 C21         0.0626   -2.0749   -6.0450 C.2        1 <1>        0.000
     10 N5         -0.8960   -2.9576   -5.6687 N.am       1 <1>        0.000
     11 C28        -2.2277   -2.7555   -5.5217 C.2        1 <1>        0.000
     12 O4         -2.8441   -1.7798   -5.9165 O.2        1 <1>        0.000
     13 H           5.0582   -2.3918   -7.4616 H.spc      1 <1>        0.000
     14 H           6.6141   -0.4105   -5.7371 H.spc      1 <1>        0.000
     15 H           7.5092   -2.1786   -7.9409 H.spc      1 <1>        0.000
     16 H           9.6088   -1.2359   -7.8113 H.spc      1 <1>        0.000
     17 H           1.7802   -3.3098   -6.0341 H.spc      1 <1>        0.000
     18 H          -0.2670   -1.0518   -6.2259 H.spc      1 <1>        0.000
     19 H          -0.5697   -3.9031   -5.4690 H.spc      1 <1>        0.000
     20 H          -2.7962   -3.5302   -5.0072 H.spc      1 <1>        0.000
@<TRIPOS>BOND
     1    6    7 2  
     2   10   11 am 
     3    9   10 1  
     4    8    9 2  
     5    5    6 am 
     6    4    5 1  
     7    1    2 1  
     8    1    8 1  
     9    2    3 1  
    10    3    4 2  
    11   11   12 2  
    12    3   13 1  
    13    4   14 1  
    14    5   15 1  
    15    6   16 1  
    16    8   17 1  
    17    9   18 1  
    18   10   19 1  
    19   11   20 1  
# Name:          frag3-195-6/31924 -- energy: -2.156893
# Creation time: Sat Jun  5 12:52:18 2010


@<TRIPOS>MOLECULE
frag3-195-6/31924 -- energy: -2.156893
   20    19     1     1     1
SMALL
USER_CHARGES


@<TRIPOS>ATOM
      1 S1          4.3647   -3.7905   -6.3711 S.3        1 <1>        0.000
      2 S2          2.8734   -3.6536   -7.7302 S.3        1 <1>        0.000
      3 C1          1.8194   -2.4568   -6.9416 C.2        1 <1>        0.000
      4 C2          0.6173   -2.8339   -6.4850 C.2        1 <1>        0.000
      5 N1         -0.3009   -2.0879   -5.8258 N.am       1 <1>        0.000
      6 C9         -0.1833   -0.8162   -5.3768 C.2        1 <1>        0.000
      7 O1          0.7938   -0.0979   -5.5204 O.2        1 <1>        0.000
      8 C20         5.1698   -2.2218   -6.6030 C.2        1 <1>        0.000
      9 C21         4.8906   -1.2087   -5.7703 C.2        1 <1>        0.000
     10 N5          5.4140    0.0385   -5.7690 N.am       1 <1>        0.000
     11 C28         6.4182    0.5353   -6.5311 C.2        1 <1>        0.000
     12 O4          7.1375   -0.1162   -7.2725 O.2        1 <1>        0.000
     13 H           2.1492   -1.4238   -6.8306 H.spc      1 <1>        0.000
     14 H           0.3437   -3.8731   -6.6673 H.spc      1 <1>        0.000
     15 H          -1.1958   -2.5425   -5.6444 H.spc      1 <1>        0.000
     16 H          -1.0347   -0.3970   -4.8405 H.spc      1 <1>        0.000
     17 H           5.8840   -2.0851   -7.4150 H.spc      1 <1>        0.000
     18 H           4.1496   -1.4160   -4.9983 H.spc      1 <1>        0.000
     19 H           4.9973    0.6921   -5.1060 H.spc      1 <1>        0.000
     20 H           6.5996    1.6088   -6.4779 H.spc      1 <1>        0.000
@<TRIPOS>BOND
     1    6    7 2  
     2   10   11 am 
     3    9   10 1  
     4    8    9 2  
     5    5    6 am 
     6    4    5 1  
     7    1    2 1  
     8    1    8 1  
     9    2    3 1  
    10    3    4 2  
    11   11   12 2  
    12    3   13 1  
    13    4   14 1  
    14    5   15 1  
    15    6   16 1  
    16    8   17 1  
    17    9   18 1  
    18   10   19 1  
    19   11   20 1  
# Name:          frag3-195-6/31924 -- energy: -2.155454
# Creation time: Sat Jun  5 12:52:18 2010


@<TRIPOS>MOLECULE
frag3-195-6/31924 -- energy: -2.155454
   20    19     1     1     1
SMALL
USER_CHARGES


@<TRIPOS>ATOM
      1 S1          3.2515   -3.3830   -5.4637 S.3        1 <1>        0.000
      2 S2          4.4308   -3.7517   -7.0693 S.3        1 <1>        0.000
      3 C1          5.6838   -2.5007   -6.8388 C.2        1 <1>        0.000
      4 C2          5.3469   -1.2088   -6.9727 C.2        1 <1>        0.000
      5 N1          6.1393   -0.1233   -6.7995 N.am       1 <1>        0.000
      6 C9          7.4894   -0.0441   -6.8610 C.2        1 <1>        0.000
      7 O1          8.1569    0.9460   -6.6155 O.2        1 <1>        0.000
      8 C20         2.0154   -2.3226   -6.1949 C.2        1 <1>        0.000
      9 C21         0.7880   -2.2946   -5.6607 C.2        1 <1>        0.000
     10 N5         -0.2679   -1.5427   -6.0504 N.am       1 <1>        0.000
     11 C28        -1.5572   -1.6001   -5.6385 C.2        1 <1>        0.000
     12 O4         -2.4625   -0.8844   -6.0320 O.2        1 <1>        0.000
     13 H           6.7076   -2.7824   -6.5929 H.spc      1 <1>        0.000
     14 H           4.3131   -1.0087   -7.2542 H.spc      1 <1>        0.000
     15 H           5.6540    0.7504   -6.5957 H.spc      1 <1>        0.000
     16 H           8.0271   -0.9452   -7.1561 H.spc      1 <1>        0.000
     17 H           2.2560   -1.7079   -7.0623 H.spc      1 <1>        0.000
     18 H           0.6190   -2.9560   -4.8109 H.spc      1 <1>        0.000
     19 H          -0.0640   -0.8325   -6.7536 H.spc      1 <1>        0.000
     20 H          -1.8071   -2.3519   -4.8898 H.spc      1 <1>        0.000
@<TRIPOS>BOND
     1    6    7 2  
     2   10   11 am 
     3    9   10 1  
     4    8    9 2  
     5    5    6 am 
     6    4    5 1  
     7    1    2 1  
     8    1    8 1  
     9    2    3 1  
    10    3    4 2  
    11   11   12 2  
    12    3   13 1  
    13    4   14 1  
    14    5   15 1  
    15    6   16 1  
    16    8   17 1  
    17    9   18 1  
    18   10   19 1  
    19   11   20 1  
# Name:          frag3-195-6/31924 -- energy: -1.604474
# Creation time: Sat Jun  5 12:52:18 2010


@<TRIPOS>MOLECULE
frag3-195-6/31924 -- energy: -1.604474
   20    19     1     1     1
SMALL
USER_CHARGES


@<TRIPOS>ATOM
      1 S1          2.8470   -3.3350   -7.6465 S.3        1 <1>        0.000
      2 S2          4.2470   -3.5058   -6.1986 S.3        1 <1>        0.000
      3 C1          5.2342   -2.0610   -6.5247 C.2        1 <1>        0.000
      4 C2          5.7820   -1.3884   -5.5043 C.2        1 <1>        0.000
      5 N1          6.5848   -0.2982   -5.5556 N.am       1 <1>        0.000
      6 C9          6.9092    0.4563   -6.6318 C.2        1 <1>        0.000
      7 O1          6.6791    0.1710   -7.7963 O.2        1 <1>        0.000
      8 C20         1.6202   -2.3501   -6.8150 C.2        1 <1>        0.000
      9 C21         0.3523   -2.7797   -6.7763 C.2        1 <1>        0.000
     10 N5         -0.7070   -2.1968   -6.1683 N.am       1 <1>        0.000
     11 C28        -0.7266   -1.1060   -5.3644 C.2        1 <1>        0.000
     12 O4          0.1924   -0.3162   -5.2151 O.2        1 <1>        0.000
     13 H           5.3921   -1.7254   -7.5497 H.spc      1 <1>        0.000
     14 H           5.5533   -1.7654   -4.5075 H.spc      1 <1>        0.000
     15 H           6.9980   -0.0086   -4.6691 H.spc      1 <1>        0.000
     16 H           7.4201    1.4003   -6.4422 H.spc      1 <1>        0.000
     17 H           1.8975   -1.4078   -6.3425 H.spc      1 <1>        0.000
     18 H           0.1484   -3.7142   -7.2990 H.spc      1 <1>        0.000
     19 H          -1.6113   -2.6373   -6.3377 H.spc      1 <1>        0.000
     20 H          -1.6416   -0.9175   -4.8028 H.spc      1 <1>        0.000
@<TRIPOS>BOND
     1    6    7 2  
     2   10   11 am 
     3    9   10 1  
     4    8    9 2  
     5    5    6 am 
     6    4    5 1  
     7    1    2 1  
     8    1    8 1  
     9    2    3 1  
    10    3    4 2  
    11   11   12 2  
    12    3   13 1  
    13    4   14 1  
    14    5   15 1  
    15    6   16 1  
    16    8   17 1  
    17    9   18 1  
    18   10   19 1  
    19   11   20 1  
# Name:          frag3-195-6/31924 -- energy: -2.039745
# Creation time: Sat Jun  5 12:52:18 2010


@<TRIPOS>MOLECULE
frag3-195-6/31924 -- energy: -2.039745
   20    19     1     1     1
SMALL
USER_CHARGES


@<TRIPOS>ATOM
      1 S1          4.1110   -3.9050   -5.5686 S.3        1 <1>        0.000
      2 S2          3.0143   -3.6231   -7.2500 S.3        1 <1>        0.000
      3 C1          1.8122   -2.4440   -6.6518 C.2        1 <1>        0.000
      4 C2          0.5358   -2.8299   -6.5136 C.2        1 <1>        0.000
      5 N1         -0.5060   -2.0998   -6.0417 N.am       1 <1>        0.000
      6 C9         -0.5337   -0.7862   -5.7157 C.2        1 <1>        0.000
      7 O1          0.4001   -0.0081   -5.8231 O.2        1 <1>        0.000
      8 C20         4.7698   -2.2612   -5.3320 C.2        1 <1>        0.000
      9 C21         5.4268   -1.6788   -6.3459 C.2        1 <1>        0.000
     10 N5          5.9682   -0.4385   -6.3763 N.am       1 <1>        0.000
     11 C28         6.7824    0.1162   -7.3061 C.2        1 <1>        0.000
     12 O4          7.2335    1.2485   -7.2719 O.2        1 <1>        0.000
     13 H           2.1123   -1.4261   -6.4030 H.spc      1 <1>        0.000
     14 H           0.3077   -3.8519   -6.8164 H.spc      1 <1>        0.000
     15 H          -1.3822   -2.6066   -5.9163 H.spc      1 <1>        0.000
     16 H          -1.4703   -0.3896   -5.3237 H.spc      1 <1>        0.000
     17 H           4.6403   -1.7419   -4.3824 H.spc      1 <1>        0.000
     18 H           5.5379   -2.2743   -7.2521 H.spc      1 <1>        0.000
     19 H           5.7295    0.1632   -5.5880 H.spc      1 <1>        0.000
     20 H           7.0583   -0.5037   -8.1592 H.spc      1 <1>        0.000
@<TRIPOS>BOND
     1    6    7 2  
     2   10   11 am 
     3    9   10 1  
     4    8    9 2  
     5    5    6 am 
     6    4    5 1  
     7    1    2 1  
     8    1    8 1  
     9    2    3 1  
    10    3    4 2  
    11   11   12 2  
    12    3   13 1  
    13    4   14 1  
    14    5   15 1  
    15    6   16 1  
    16    8   17 1  
    17    9   18 1  
    18   10   19 1  
    19   11   20 1  
# Name:          frag3-195-6/31924 -- energy: -1.888271
# Creation time: Sat Jun  5 12:52:18 2010


@<TRIPOS>MOLECULE
frag3-195-6/31924 -- energy: -1.888271
   20    19     1     1     1
SMALL
USER_CHARGES


@<TRIPOS>ATOM
      1 S1          3.8273   -3.4697   -7.1444 S.3        1 <1>        0.000
      2 S2          2.6858   -4.0074   -5.5610 S.3        1 <1>        0.000
      3 C1          1.2830   -2.9351   -5.7924 C.2        1 <1>        0.000
      4 C2          1.4125   -1.6220   -5.5473 C.2        1 <1>        0.000
      5 N1          0.4821   -0.6488   -5.7025 N.am       1 <1>        0.000
      6 C9         -0.7572   -0.7488   -6.2384 C.2        1 <1>        0.000
      7 O1         -1.2693   -1.7739   -6.6593 O.2        1 <1>        0.000
      8 C20         5.2101   -2.7073   -6.3217 C.2        1 <1>        0.000
      9 C21         5.6302   -1.5028   -6.7271 C.2        1 <1>        0.000
     10 N5          6.6344   -0.7548   -6.2122 N.am       1 <1>        0.000
     11 C28         7.1433    0.4162   -6.6640 C.2        1 <1>        0.000
     12 O4          6.7323    1.0445   -7.6264 O.2        1 <1>        0.000
     13 H           0.3292   -3.3410   -6.1296 H.spc      1 <1>        0.000
     14 H           2.3856   -1.2984   -5.1780 H.spc      1 <1>        0.000
     15 H           0.7501    0.2786   -5.3731 H.spc      1 <1>        0.000
     16 H          -1.3487    0.1647   -6.2993 H.spc      1 <1>        0.000
     17 H           5.7091   -3.2159   -5.4969 H.spc      1 <1>        0.000
     18 H           5.0989   -1.0714   -7.5755 H.spc      1 <1>        0.000
     19 H           7.0680   -1.1246   -5.3663 H.spc      1 <1>        0.000
     20 H           7.9922    0.8331   -6.1220 H.spc      1 <1>        0.000
@<TRIPOS>BOND
     1    6    7 2  
     2   10   11 am 
     3    9   10 1  
     4    8    9 2  
     5    5    6 am 
     6    4    5 1  
     7    1    2 1  
     8    1    8 1  
     9    2    3 1  
    10    3    4 2  
    11   11   12 2  
    12    3   13 1  
    13    4   14 1  
    14    5   15 1  
    15    6   16 1  
    16    8   17 1  
    17    9   18 1  
    18   10   19 1  
    19   11   20 1  
# Name:          frag3-195-6/31924 -- energy: -1.723006
# Creation time: Sat Jun  5 12:52:18 2010


@<TRIPOS>MOLECULE
frag3-195-6/31924 -- energy: -1.723006
   20    19     1     1     1
SMALL
USER_CHARGES


@<TRIPOS>ATOM
      1 S1          3.8665   -3.0630   -6.1134 S.3        1 <1>        0.000
      2 S2          2.5973   -3.0056   -7.6880 S.3        1 <1>        0.000
      3 C1          1.1655   -2.2746   -6.9279 C.2        1 <1>        0.000
      4 C2          0.4299   -3.0063   -6.0758 C.2        1 <1>        0.000
      5 N1         -0.6617   -2.6226   -5.3716 N.am       1 <1>        0.000
      6 C9         -1.2523   -1.4049   -5.3353 C.2        1 <1>        0.000
      7 O1         -0.8102   -0.3843   -5.8390 O.2        1 <1>        0.000
      8 C20         5.1485   -1.9643   -6.6695 C.2        1 <1>        0.000
      9 C21         5.7669   -1.1723   -5.7852 C.2        1 <1>        0.000
     10 N5          6.7750   -0.3026   -6.0116 N.am       1 <1>        0.000
     11 C28         7.5246   -0.1378   -7.1284 C.2        1 <1>        0.000
     12 O4          8.4647    0.6284   -7.2511 O.2        1 <1>        0.000
     13 H           0.8883   -1.2444   -7.1512 H.spc      1 <1>        0.000
     14 H           0.7513   -4.0380   -5.9328 H.spc      1 <1>        0.000
     15 H          -1.0944   -3.3438   -4.7945 H.spc      1 <1>        0.000
     16 H          -2.2049   -1.3291   -4.8110 H.spc      1 <1>        0.000
     17 H           5.4288   -1.9358   -7.7224 H.spc      1 <1>        0.000
     18 H           5.4135   -1.2373   -4.7561 H.spc      1 <1>        0.000
     19 H           7.0040    0.3163   -5.2338 H.spc      1 <1>        0.000
     20 H           7.2634   -0.7451   -7.9951 H.spc      1 <1>        0.000
@<TRIPOS>BOND
     1    6    7 2  
     2   10   11 am 
     3    9   10 1  
     4    8    9 2  
     5    5    6 am 
     6    4    5 1  
     7    1    2 1  
     8    1    8 1  
     9    2    3 1  
    10    3    4 2  
    11   11   12 2  
    12    3   13 1  
    13    4   14 1  
    14    5   15 1  
    15    6   16 1  
    16    8   17 1  
    17    9   18 1  
    18   10   19 1  
    19   11   20 1  
# Name:          frag3-195-6/31924 -- energy: -1.847927
# Creation time: Sat Jun  5 12:52:18 2010


@<TRIPOS>MOLECULE
frag3-195-6/31924 -- energy: -1.847927
   20    19     1     1     1
SMALL
USER_CHARGES


@<TRIPOS>ATOM
      1 S1          3.0535   -3.7701   -5.3397 S.3        1 <1>        0.000
      2 S2          4.1036   -3.6559   -7.0632 S.3        1 <1>        0.000
      3 C1          4.8666   -2.0577   -6.8789 C.2        1 <1>        0.000
      4 C2          6.1405   -1.8872   -7.2562 C.2        1 <1>        0.000
      5 N1          6.8772   -0.7504   -7.2250 N.am       1 <1>        0.000
      6 C9          6.5495    0.4484   -6.6882 C.2        1 <1>        0.000
      7 O1          5.4675    0.7390   -6.2032 O.2        1 <1>        0.000
      8 C20         1.5909   -2.8549   -5.7776 C.2        1 <1>        0.000
      9 C21         1.1501   -1.8901   -4.9601 C.2        1 <1>        0.000
     10 N5          0.0859   -1.0723   -5.1346 N.am       1 <1>        0.000
     11 C28        -0.5978   -0.8039   -6.2734 C.2        1 <1>        0.000
     12 O4         -0.2728   -1.1547   -7.3968 O.2        1 <1>        0.000
     13 H           4.3012   -1.2242   -6.4621 H.spc      1 <1>        0.000
     14 H           6.6480   -2.7740   -7.6359 H.spc      1 <1>        0.000
     15 H           7.7971   -0.8049   -7.6623 H.spc      1 <1>        0.000
     16 H           7.3183    1.2211   -6.6891 H.spc      1 <1>        0.000
     17 H           1.0590   -3.0777   -6.7026 H.spc      1 <1>        0.000
     18 H           1.7183   -1.7457   -4.0412 H.spc      1 <1>        0.000
     19 H          -0.2459   -0.5941   -4.2970 H.spc      1 <1>        0.000
     20 H          -1.5166   -0.2252   -6.1783 H.spc      1 <1>        0.000
@<TRIPOS>BOND
     1    6    7 2  
     2   10   11 am 
     3    9   10 1  
     4    8    9 2  
     5    5    6 am 
     6    4    5 1  
     7    1    2 1  
     8    1    8 1  
     9    2    3 1  
    10    3    4 2  
    11   11   12 2  
    12    3   13 1  
    13    4   14 1  
    14    5   15 1  
    15    6   16 1  
    16    8   17 1  
    17    9   18 1  
    18   10   19 1  
    19   11   20 1  
# Name:          frag3-195-6/31924 -- energy: -1.699063
# Creation time: Sat Jun  5 12:52:18 2010


@<TRIPOS>MOLECULE
frag3-195-6/31924 -- energy: -1.699063
   20    19     1     1     1
SMALL
USER_CHARGES


@<TRIPOS>ATOM
      1 S1          4.2231   -2.9104   -6.1538 S.3        1 <1>        0.000
      2 S2          2.9745   -1.5711   -5.2905 S.3        1 <1>        0.000
      3 C1          1.6287   -1.5794   -6.4577 C.2        1 <1>        0.000
      4 C2          0.3852   -1.8228   -6.0235 C.2        1 <1>        0.000
      5 N1         -0.7629   -1.8392   -6.7439 N.am       1 <1>        0.000
      6 C9         -2.0024   -2.2143   -6.3517 C.2        1 <1>        0.000
      7 O1         -2.3103   -2.5899   -5.2320 O.2        1 <1>        0.000
      8 C20         5.5334   -1.8366   -6.7016 C.2        1 <1>        0.000
      9 C21         6.3441   -1.2837   -5.7863 C.2        1 <1>        0.000
     10 N5          7.4044   -0.4697   -5.9999 N.am       1 <1>        0.000
     11 C28         7.9469   -0.0772   -7.1780 C.2        1 <1>        0.000
     12 O4          7.6498   -0.5155   -8.2780 O.2        1 <1>        0.000
     13 H           1.8153   -1.3883   -7.5145 H.spc      1 <1>        0.000
     14 H           0.2839   -2.0338   -4.9589 H.spc      1 <1>        0.000
     15 H          -0.6816   -1.5269   -7.7115 H.spc      1 <1>        0.000
     16 H          -2.7940   -2.1779   -7.1001 H.spc      1 <1>        0.000
     17 H           5.6747   -1.6317   -7.7628 H.spc      1 <1>        0.000
     18 H           6.1221   -1.5183   -4.7453 H.spc      1 <1>        0.000
     19 H           7.8554   -0.1026   -5.1619 H.spc      1 <1>        0.000
     20 H           8.7142    0.6960   -7.1403 H.spc      1 <1>        0.000
@<TRIPOS>BOND
     1    6    7 2  
     2   10   11 am 
     3    9   10 1  
     4    8    9 2  
     5    5    6 am 
     6    4    5 1  
     7    1    2 1  
     8    1    8 1  
     9    2    3 1  
    10    3    4 2  
    11   11   12 2  
    12    3   13 1  
    13    4   14 1  
    14    5   15 1  
    15    6   16 1  
    16    8   17 1  
    17    9   18 1  
    18   10   19 1  
    19   11   20 1  
# Name:          frag3-195-6/31924 -- energy: -1.787028
# Creation time: Sat Jun  5 12:52:18 2010


@<TRIPOS>MOLECULE
frag3-195-6/31924 -- energy: -1.787028
   20    19     1     1     1
SMALL
USER_CHARGES


@<TRIPOS>ATOM
      1 S1          4.2956   -3.3941   -5.4164 S.3        1 <1>        0.000
      2 S2          3.3933   -1.6606   -4.8867 S.3        1 <1>        0.000
      3 C1          1.8287   -1.8387   -5.7167 C.2        1 <1>        0.000
      4 C2          0.7002   -1.5187   -5.0697 C.2        1 <1>        0.000
      5 N1         -0.5679   -1.5549   -5.5390 N.am       1 <1>        0.000
      6 C9         -1.0032   -1.8922   -6.7758 C.2        1 <1>        0.000
      7 O1         -2.1643   -2.0673   -7.1020 O.2        1 <1>        0.000
      8 C20         5.2386   -2.8568   -6.8275 C.2        1 <1>        0.000
      9 C21         5.9141   -1.6993   -6.7537 C.2        1 <1>        0.000
     10 N5          6.7047   -1.1359   -7.6960 N.am       1 <1>        0.000
     11 C28         7.3579    0.0501   -7.6636 C.2        1 <1>        0.000
     12 O4          7.3170    0.8586   -6.7499 O.2        1 <1>        0.000
     13 H           1.7892   -2.2050   -6.7426 H.spc      1 <1>        0.000
     14 H           0.8184   -1.1884   -4.0377 H.spc      1 <1>        0.000
     15 H          -1.2934   -1.2930   -4.8716 H.spc      1 <1>        0.000
     16 H          -0.2465   -2.0186   -7.5501 H.spc      1 <1>        0.000
     17 H           5.2670   -3.4578   -7.7364 H.spc      1 <1>        0.000
     18 H           5.8134   -1.1454   -5.8203 H.spc      1 <1>        0.000
     19 H           6.8257   -1.6803   -8.5500 H.spc      1 <1>        0.000
     20 H           7.9726    0.3044   -8.5271 H.spc      1 <1>        0.000
@<TRIPOS>BOND
     1    6    7 2  
     2   10   11 am 
     3    9   10 1  
     4    8    9 2  
     5    5    6 am 
     6    4    5 1  
     7    1    2 1  
     8    1    8 1  
     9    2    3 1  
    10    3    4 2  
    11   11   12 2  
    12    3   13 1  
    13    4   14 1  
    14    5   15 1  
    15    6   16 1  
    16    8   17 1  
    17    9   18 1  
    18   10   19 1  
    19   11   20 1  
# Name:          frag3-195-6/31924 -- energy: -2.290669
# Creation time: Sat Jun  5 12:52:18 2010


@<TRIPOS>MOLECULE
frag3-195-6/31924 -- energy: -2.290669
   20    19     1     1     1
SMALL
USER_CHARGES


@<TRIPOS>ATOM
      1 S1          3.2435   -3.2827   -4.8535 S.3        1 <1>        0.000
      2 S2          3.7295   -3.5957   -6.7961 S.3        1 <1>        0.000
      3 C1          4.7168   -2.1449   -7.1136 C.2        1 <1>        0.000
      4 C2          5.8188   -1.9313   -6.3774 C.2        1 <1>        0.000
      5 N1          6.7085   -0.9177   -6.4886 N.am       1 <1>        0.000
      6 C9          6.7222    0.1018   -7.3792 C.2        1 <1>        0.000
      7 O1          7.4625    1.0694   -7.3456 O.2        1 <1>        0.000
      8 C20         2.2021   -1.8434   -5.0058 C.2        1 <1>        0.000
      9 C21         1.0118   -1.9660   -5.6111 C.2        1 <1>        0.000
     10 N5          0.0733   -1.0087   -5.7996 N.am       1 <1>        0.000
     11 C28        -1.1200   -1.0980   -6.4342 C.2        1 <1>        0.000
     12 O4         -1.5545   -2.0927   -6.9922 O.2        1 <1>        0.000
     13 H           4.4294   -1.4412   -7.8948 H.spc      1 <1>        0.000
     14 H           6.0216   -2.6629   -5.5953 H.spc      1 <1>        0.000
     15 H           7.4707   -0.9225   -5.8108 H.spc      1 <1>        0.000
     16 H           6.0068    0.0529   -8.2001 H.spc      1 <1>        0.000
     17 H           2.5276   -0.8800   -4.6134 H.spc      1 <1>        0.000
     18 H           0.7708   -2.9561   -5.9981 H.spc      1 <1>        0.000
     19 H           0.2957   -0.0929   -5.4095 H.spc      1 <1>        0.000
     20 H          -1.7455   -0.2055   -6.4477 H.spc      1 <1>        0.000
@<TRIPOS>BOND
     1    6    7 2  
     2   10   11 am 
     3    9   10 1  
     4    8    9 2  
     5    5    6 am 
     6    4    5 1  
     7    1    2 1  
     8    1    8 1  
     9    2    3 1  
    10    3    4 2  
    11   11   12 2  
    12    3   13 1  
    13    4   14 1  
    14    5   15 1  
    15    6   16 1  
    16    8   17 1  
    17    9   18 1  
    18   10   19 1  
    19   11   20 1  
# Name:          frag3-195-6/31924 -- energy: -2.116339
# Creation time: Sat Jun  5 12:52:18 2010


@<TRIPOS>MOLECULE
frag3-195-6/31924 -- energy: -2.116339
   20    19     1     1     1
SMALL
USER_CHARGES


@<TRIPOS>ATOM
      1 S1          4.3799   -3.7327   -5.9529 S.3        1 <1>        0.000
      2 S2          3.0825   -3.8639   -7.5008 S.3        1 <1>        0.000
      3 C1          1.9298   -2.5812   -7.0603 C.2        1 <1>        0.000
      4 C2          1.0839   -2.7799   -6.0374 C.2        1 <1>        0.000
      5 N1          0.1726   -1.9207   -5.5302 N.am       1 <1>        0.000
      6 C9         -0.1940   -0.7032   -5.9950 C.2        1 <1>        0.000
      7 O1         -1.0064    0.0450   -5.4800 O.2        1 <1>        0.000
      8 C20         4.9684   -2.0657   -6.1545 C.2        1 <1>        0.000
      9 C21         6.2241   -1.8597   -6.5734 C.2        1 <1>        0.000
     10 N5          6.8391   -0.6801   -6.8192 N.am       1 <1>        0.000
     11 C28         6.3302    0.5729   -6.7349 C.2        1 <1>        0.000
     12 O4          5.2044    0.8595   -6.3582 O.2        1 <1>        0.000
     13 H           1.9111   -1.6436   -7.6158 H.spc      1 <1>        0.000
     14 H           1.1389   -3.7561   -5.5557 H.spc      1 <1>        0.000
     15 H          -0.3031   -2.2313   -4.6831 H.spc      1 <1>        0.000
     16 H           0.2811   -0.3607   -6.9143 H.spc      1 <1>        0.000
     17 H           4.3141   -1.2209   -5.9394 H.spc      1 <1>        0.000
     18 H           6.8253   -2.7542   -6.7365 H.spc      1 <1>        0.000
     19 H           7.8159   -0.7422   -7.1062 H.spc      1 <1>        0.000
     20 H           6.9817    1.3959   -7.0286 H.spc      1 <1>        0.000
@<TRIPOS>BOND
     1    6    7 2  
     2   10   11 am 
     3    9   10 1  
     4    8    9 2  
     5    5    6 am 
     6    4    5 1  
     7    1    2 1  
     8    1    8 1  
     9    2    3 1  
    10    3    4 2  
    11   11   12 2  
    12    3   13 1  
    13    4   14 1  
    14    5   15 1  
    15    6   16 1  
    16    8   17 1  
    17    9   18 1  
    18   10   19 1  
    19   11   20 1  
# Name:          frag3-195-6/31924 -- energy: -1.627220
# Creation time: Sat Jun  5 12:52:18 2010


@<TRIPOS>MOLECULE
frag3-195-6/31924 -- energy: -1.627220
   20    19     1     1     1
SMALL
USER_CHARGES


@<TRIPOS>ATOM
      1 S1          3.0255   -2.1358   -6.6169 S.3        1 <1>        0.000
      2 S2          4.1615   -2.9005   -5.1215 S.3        1 <1>        0.000
      3 C1          5.5768   -1.8119   -5.2095 C.2        1 <1>        0.000
      4 C2          6.0858   -1.5092   -6.4136 C.2        1 <1>        0.000
      5 N1          7.1226   -0.6798   -6.6902 N.am       1 <1>        0.000
      6 C9          7.6735   -0.3839   -7.8905 C.2        1 <1>        0.000
      7 O1          8.5802    0.4086   -8.0811 O.2        1 <1>        0.000
      8 C20         1.6046   -1.5691   -5.6935 C.2        1 <1>        0.000
      9 C21         0.3840   -1.9519   -6.0917 C.2        1 <1>        0.000
     10 N5         -0.8045   -1.6571   -5.5099 N.am       1 <1>        0.000
     11 C28        -2.0543   -1.9962   -5.9081 C.2        1 <1>        0.000
     12 O4         -2.3413   -2.5232   -6.9704 O.2        1 <1>        0.000
     13 H           6.0183   -1.4014   -4.3014 H.spc      1 <1>        0.000
     14 H           5.6099   -1.9861   -7.2704 H.spc      1 <1>        0.000
     15 H           7.5440   -0.2166   -5.8851 H.spc      1 <1>        0.000
     16 H           7.2715   -0.8991   -8.7629 H.spc      1 <1>        0.000
     17 H           1.7285   -0.9246   -4.8233 H.spc      1 <1>        0.000
     18 H           0.3416   -2.5721   -6.9870 H.spc      1 <1>        0.000
     19 H          -0.7503   -1.1039   -4.6547 H.spc      1 <1>        0.000
     20 H          -2.8726   -1.7799   -5.2213 H.spc      1 <1>        0.000
@<TRIPOS>BOND
     1    6    7 2  
     2   10   11 am 
     3    9   10 1  
     4    8    9 2  
     5    5    6 am 
     6    4    5 1  
     7    1    2 1  
     8    1    8 1  
     9    2    3 1  
    10    3    4 2  
    11   11   12 2  
    12    3   13 1  
    13    4   14 1  
    14    5   15 1  
    15    6   16 1  
    16    8   17 1  
    17    9   18 1  
    18   10   19 1  
    19   11   20 1  
# Name:          frag3-195-6/31924 -- energy: -2.231637
# Creation time: Sat Jun  5 12:52:18 2010


@<TRIPOS>MOLECULE
frag3-195-6/31924 -- energy: -2.231637
   20    19     1     1     1
SMALL
USER_CHARGES


@<TRIPOS>ATOM
      1 S1          4.3778   -3.8628   -6.4396 S.3        1 <1>        0.000
      2 S2          3.0462   -3.8204   -7.9635 S.3        1 <1>        0.000
      3 C1          1.9020   -2.6002   -7.3561 C.2        1 <1>        0.000
      4 C2          1.4108   -2.7225   -6.1116 C.2        1 <1>        0.000
      5 N1          0.5709   -1.8878   -5.4615 N.am       1 <1>        0.000
      6 C9         -0.0244   -0.7608   -5.9179 C.2        1 <1>        0.000
      7 O1         -0.7084    0.0043   -5.2608 O.2        1 <1>        0.000
      8 C20         5.1182   -2.2533   -6.5983 C.2        1 <1>        0.000
      9 C21         5.1136   -1.4184   -5.5510 C.2        1 <1>        0.000
     10 N5          5.6467   -0.1777   -5.4702 N.am       1 <1>        0.000
     11 C28         6.2397    0.5534   -6.4449 C.2        1 <1>        0.000
     12 O4          6.3214    0.2365   -7.6215 O.2        1 <1>        0.000
     13 H           1.6030   -1.7629   -7.9867 H.spc      1 <1>        0.000
     14 H           1.7298   -3.6053   -5.5574 H.spc      1 <1>        0.000
     15 H           0.3563   -2.1407   -4.4969 H.spc      1 <1>        0.000
     16 H           0.1215   -0.5152   -6.9698 H.spc      1 <1>        0.000
     17 H           5.5724   -1.9486   -7.5411 H.spc      1 <1>        0.000
     18 H           4.6185   -1.7843   -4.6515 H.spc      1 <1>        0.000
     19 H           5.5955    0.2666   -4.5535 H.spc      1 <1>        0.000
     20 H           6.6818    1.5062   -6.1538 H.spc      1 <1>        0.000
@<TRIPOS>BOND
     1    6    7 2  
     2   10   11 am 
     3    9   10 1  
     4    8    9 2  
     5    5    6 am 
     6    4    5 1  
     7    1    2 1  
     8    1    8 1  
     9    2    3 1  
    10    3    4 2  
    11   11   12 2  
    12    3   13 1  
    13    4   14 1  
    14    5   15 1  
    15    6   16 1  
    16    8   17 1  
    17    9   18 1  
    18   10   19 1  
    19   11   20 1  
# Name:          frag3-195-6/31924 -- energy: -2.326082
# Creation time: Sat Jun  5 12:52:18 2010


@<TRIPOS>MOLECULE
frag3-195-6/31924 -- energy: -2.326082
   20    19     1     1     1
SMALL
USER_CHARGES


@<TRIPOS>ATOM
      1 S1          3.2763   -3.7886   -5.8300 S.3        1 <1>        0.000
      2 S2          3.4343   -2.9957   -7.6884 S.3        1 <1>        0.000
      3 C1          4.9482   -2.0779   -7.5195 C.2        1 <1>        0.000
      4 C2          4.9615   -0.9544   -6.7851 C.2        1 <1>        0.000
      5 N1          6.0136   -0.1523   -6.5082 N.am       1 <1>        0.000
      6 C9          7.3169   -0.3231   -6.8328 C.2        1 <1>        0.000
      7 O1          8.2371    0.4063   -6.5068 O.2        1 <1>        0.000
      8 C20         2.2133   -2.5961   -5.0478 C.2        1 <1>        0.000
      9 C21         1.0513   -2.2751   -5.6376 C.2        1 <1>        0.000
     10 N5          0.1003   -1.4208   -5.1956 N.am       1 <1>        0.000
     11 C28        -1.0574   -1.0498   -5.7923 C.2        1 <1>        0.000
     12 O4         -1.4806   -1.4823   -6.8527 O.2        1 <1>        0.000
     13 H           5.8583   -2.4251   -8.0086 H.spc      1 <1>        0.000
     14 H           4.0051   -0.6513   -6.3591 H.spc      1 <1>        0.000
     15 H           5.7965    0.6955   -5.9843 H.spc      1 <1>        0.000
     16 H           7.5658   -1.1925   -7.4413 H.spc      1 <1>        0.000
     17 H           2.5012   -2.1332   -4.1039 H.spc      1 <1>        0.000
     18 H           0.8488   -2.7633   -6.5909 H.spc      1 <1>        0.000
     19 H           0.2803   -0.9967   -4.2856 H.spc      1 <1>        0.000
     20 H          -1.6633   -0.3009   -5.2822 H.spc      1 <1>        0.000
@<TRIPOS>BOND
     1    6    7 2  
     2   10   11 am 
     3    9   10 1  
     4    8    9 2  
     5    5    6 am 
     6    4    5 1  
     7    1    2 1  
     8    1    8 1  
     9    2    3 1  
    10    3    4 2  
    11   11   12 2  
    12    3   13 1  
    13    4   14 1  
    14    5   15 1  
    15    6   16 1  
    16    8   17 1  
    17    9   18 1  
    18   10   19 1  
    19   11   20 1  
# Name:          frag3-195-6/31924 -- energy: -1.462619
# Creation time: Sat Jun  5 12:52:18 2010


@<TRIPOS>MOLECULE
frag3-195-6/31924 -- energy: -1.462619
   20    19     1     1     1
SMALL
USER_CHARGES


@<TRIPOS>ATOM
      1 S1          2.9992   -2.4301   -4.6851 S.3        1 <1>        0.000
      2 S2          4.1136   -3.2583   -6.1522 S.3        1 <1>        0.000
      3 C1          5.1731   -1.8952   -6.5768 C.2        1 <1>        0.000
      4 C2          6.4681   -2.1193   -6.8348 C.2        1 <1>        0.000
      5 N1          7.4163   -1.2243   -7.2020 N.am       1 <1>        0.000
      6 C9          7.3164    0.1240   -7.2715 C.2        1 <1>        0.000
      7 O1          6.2782    0.7645   -7.2207 O.2        1 <1>        0.000
      8 C20         1.4249   -2.2786   -5.4957 C.2        1 <1>        0.000
      9 C21         0.5344   -1.3865   -5.0466 C.2        1 <1>        0.000
     10 N5         -0.6920   -1.1074   -5.5455 N.am       1 <1>        0.000
     11 C28        -1.2670   -1.5665   -6.6835 C.2        1 <1>        0.000
     12 O4         -0.7506   -2.3321   -7.4824 O.2        1 <1>        0.000
     13 H           4.7712   -0.8832   -6.6268 H.spc      1 <1>        0.000
     14 H           6.8012   -3.1525   -6.7369 H.spc      1 <1>        0.000
     15 H           8.3220   -1.6167   -7.4592 H.spc      1 <1>        0.000
     16 H           8.2433    0.6866   -7.3824 H.spc      1 <1>        0.000
     17 H           1.1863   -2.9081   -6.3529 H.spc      1 <1>        0.000
     18 H           0.8344   -0.8131   -4.1695 H.spc      1 <1>        0.000
     19 H          -1.2593   -0.4660   -4.9912 H.spc      1 <1>        0.000
     20 H          -2.2774   -1.2228   -6.9047 H.spc      1 <1>        0.000
@<TRIPOS>BOND
     1    6    7 2  
     2   10   11 am 
     3    9   10 1  
     4    8    9 2  
     5    5    6 am 
     6    4    5 1  
     7    1    2 1  
     8    1    8 1  
     9    2    3 1  
    10    3    4 2  
    11   11   12 2  
    12    3   13 1  
    13    4   14 1  
    14    5   15 1  
    15    6   16 1  
    16    8   17 1  
    17    9   18 1  
    18   10   19 1  
    19   11   20 1  
# Name:          frag3-195-6/31924 -- energy: -2.119820
# Creation time: Sat Jun  5 12:52:18 2010


@<TRIPOS>MOLECULE
frag3-195-6/31924 -- energy: -2.119820
   20    19     1     1     1
SMALL
USER_CHARGES


@<TRIPOS>ATOM
      1 S1          2.9164   -3.2779   -7.0512 S.3        1 <1>        0.000
      2 S2          4.3550   -3.5338   -5.6490 S.3        1 <1>        0.000
      3 C1          5.6173   -2.4449   -6.2833 C.2        1 <1>        0.000
      4 C2          5.4592   -1.1181   -6.1603 C.2        1 <1>        0.000
      5 N1          6.3142   -0.1411   -6.5445 N.am       1 <1>        0.000
      6 C9          7.4959   -0.2593   -7.1948 C.2        1 <1>        0.000
      7 O1          8.2666    0.6512   -7.4450 O.2        1 <1>        0.000
      8 C20         1.9814   -1.9411   -6.3308 C.2        1 <1>        0.000
      9 C21         0.6553   -2.0726   -6.2004 C.2        1 <1>        0.000
     10 N5         -0.2165   -1.1926   -5.6528 N.am       1 <1>        0.000
     11 C28        -1.5662   -1.2704   -5.5690 C.2        1 <1>        0.000
     12 O4         -2.2639   -2.1093   -6.1157 O.2        1 <1>        0.000
     13 H           6.5062   -2.8523   -6.7649 H.spc      1 <1>        0.000
     14 H           4.5307   -0.7870   -5.6951 H.spc      1 <1>        0.000
     15 H           6.0303    0.8109   -6.3132 H.spc      1 <1>        0.000
     16 H           7.7837   -1.2578   -7.5239 H.spc      1 <1>        0.000
     17 H           2.4820   -1.0305   -6.0015 H.spc      1 <1>        0.000
     18 H           0.2257   -2.9994   -6.5807 H.spc      1 <1>        0.000
     19 H           0.2012   -0.3551   -5.2472 H.spc      1 <1>        0.000
     20 H          -2.0722   -0.5199   -4.9616 H.spc      1 <1>        0.000
@<TRIPOS>BOND
     1    6    7 2  
     2   10   11 am 
     3    9   10 1  
     4    8    9 2  
     5    5    6 am 
     6    4    5 1  
     7    1    2 1  
     8    1    8 1  
     9    2    3 1  
    10    3    4 2  
    11   11   12 2  
    12    3   13 1  
    13    4   14 1  
    14    5   15 1  
    15    6   16 1  
    16    8   17 1  
    17    9   18 1  
    18   10   19 1  
    19   11   20 1  
# Name:          frag3-195-6/31924 -- energy: -2.141782
# Creation time: Sat Jun  5 12:52:18 2010


@<TRIPOS>MOLECULE
frag3-195-6/31924 -- energy: -2.141782
   20    19     1     1     1
SMALL
USER_CHARGES


@<TRIPOS>ATOM
      1 S1          3.0629   -4.0975   -5.5864 S.3        1 <1>        0.000
      2 S2          3.5298   -3.3025   -7.3902 S.3        1 <1>        0.000
      3 C1          4.5798   -1.9510   -6.8836 C.2        1 <1>        0.000
      4 C2          5.7548   -1.7688   -7.5010 C.2        1 <1>        0.000
      5 N1          6.6642   -0.7890   -7.2835 N.am       1 <1>        0.000
      6 C9          6.5954    0.2519   -6.4207 C.2        1 <1>        0.000
      7 O1          7.4222    1.1404   -6.3074 O.2        1 <1>        0.000
      8 C20         2.0859   -2.7757   -4.8915 C.2        1 <1>        0.000
      9 C21         1.0823   -2.2629   -5.6190 C.2        1 <1>        0.000
     10 N5          0.2153   -1.2856   -5.2627 N.am       1 <1>        0.000
     11 C28        -0.8414   -0.7912   -5.9511 C.2        1 <1>        0.000
     12 O4         -1.1367   -1.0782   -7.0999 O.2        1 <1>        0.000
     13 H           4.2688   -1.2818   -6.0814 H.spc      1 <1>        0.000
     14 H           6.0096   -2.4969   -8.2712 H.spc      1 <1>        0.000
     15 H           7.5143   -0.8425   -7.8446 H.spc      1 <1>        0.000
     16 H           5.7228    0.2998   -5.7692 H.spc      1 <1>        0.000
     17 H           2.3007   -2.3920   -3.8941 H.spc      1 <1>        0.000
     18 H           0.9487   -2.6830   -6.6159 H.spc      1 <1>        0.000
     19 H           0.3809   -0.8631   -4.3492 H.spc      1 <1>        0.000
     20 H          -1.4824   -0.0763   -5.4351 H.spc      1 <1>        0.000
@<TRIPOS>BOND
     1    6    7 2  
     2   10   11 am 
     3    9   10 1  
     4    8    9 2  
     5    5    6 am 
     6    4    5 1  
     7    1    2 1  
     8    1    8 1  
     9    2    3 1  
    10    3    4 2  
    11   11   12 2  
    12    3   13 1  
    13    4   14 1  
    14    5   15 1  
    15    6   16 1  
    16    8   17 1  
    17    9   18 1  
    18   10   19 1  
    19   11   20 1  
# Name:          frag3-195-6/31924 -- energy: -2.468578
# Creation time: Sat Jun  5 12:52:18 2010


@<TRIPOS>MOLECULE
frag3-195-6/31924 -- energy: -2.468578
   20    19     1     1     1
SMALL
USER_CHARGES


@<TRIPOS>ATOM
      1 S1          3.4127   -3.5796   -7.6634 S.3        1 <1>        0.000
      2 S2          4.1389   -3.9376   -5.8048 S.3        1 <1>        0.000
      3 C1          4.5105   -2.2746   -5.2793 C.2        1 <1>        0.000
      4 C2          5.2367   -1.4837   -6.0847 C.2        1 <1>        0.000
      5 N1          5.5887   -0.1900   -5.8860 N.am       1 <1>        0.000
      6 C9          6.2845    0.6327   -6.7046 C.2        1 <1>        0.000
      7 O1          6.8486    0.2995   -7.7343 O.2        1 <1>        0.000
      8 C20         1.6843   -3.3394   -7.3005 C.2        1 <1>        0.000
      9 C21         1.2923   -2.1908   -6.7309 C.2        1 <1>        0.000
     10 N5          0.0336   -1.8123   -6.4057 N.am       1 <1>        0.000
     11 C28        -0.3725   -0.7743   -5.6363 C.2        1 <1>        0.000
     12 O4          0.3561   -0.0597   -4.9665 O.2        1 <1>        0.000
     13 H           4.1531   -1.9057   -4.3179 H.spc      1 <1>        0.000
     14 H           5.5862   -1.9374   -7.0121 H.spc      1 <1>        0.000
     15 H           5.2889    0.2182   -5.0006 H.spc      1 <1>        0.000
     16 H           6.3465    1.6830   -6.4200 H.spc      1 <1>        0.000
     17 H           0.9565   -4.1152   -7.5382 H.spc      1 <1>        0.000
     18 H           2.0821   -1.4754   -6.5020 H.spc      1 <1>        0.000
     19 H          -0.7125   -2.3891   -6.7942 H.spc      1 <1>        0.000
     20 H          -1.4407   -0.5587   -5.6132 H.spc      1 <1>        0.000
@<TRIPOS>BOND
     1    6    7 2  
     2   10   11 am 
     3    9   10 1  
     4    8    9 2  
     5    5    6 am 
     6    4    5 1  
     7    1    2 1  
     8    1    8 1  
     9    2    3 1  
    10    3    4 2  
    11   11   12 2  
    12    3   13 1  
    13    4   14 1  
    14    5   15 1  
    15    6   16 1  
    16    8   17 1  
    17    9   18 1  
    18   10   19 1  
    19   11   20 1  
# Name:          frag3-195-6/31924 -- energy: -1.996824
# Creation time: Sat Jun  5 12:52:18 2010


@<TRIPOS>MOLECULE
frag3-195-6/31924 -- energy: -1.996824
   20    19     1     1     1
SMALL
USER_CHARGES


@<TRIPOS>ATOM
      1 S1          2.8417   -4.1246   -7.1973 S.3        1 <1>        0.000
      2 S2          4.5136   -4.0186   -6.0640 S.3        1 <1>        0.000
      3 C1          5.0522   -2.3597   -6.4359 C.2        1 <1>        0.000
      4 C2          5.2470   -1.4907   -5.4343 C.2        1 <1>        0.000
      5 N1          5.6840   -0.2100   -5.5141 N.am       1 <1>        0.000
      6 C9          5.8876    0.5412   -6.6218 C.2        1 <1>        0.000
      7 O1          5.7794    0.1529   -7.7740 O.2        1 <1>        0.000
      8 C20         1.8744   -2.8057   -6.4880 C.2        1 <1>        0.000
      9 C21         1.2949   -1.9108   -7.2988 C.2        1 <1>        0.000
     10 N5          0.5066   -0.8653   -6.9543 N.am       1 <1>        0.000
     11 C28         0.0902   -0.4889   -5.7210 C.2        1 <1>        0.000
     12 O4          0.2428   -1.1298   -4.6933 O.2        1 <1>        0.000
     13 H           5.2215   -2.0552   -7.4687 H.spc      1 <1>        0.000
     14 H           5.0270   -1.8591   -4.4323 H.spc      1 <1>        0.000
     15 H           5.8855    0.2467   -4.6246 H.spc      1 <1>        0.000
     16 H           6.1727    1.5825   -6.4719 H.spc      1 <1>        0.000
     17 H           1.7560   -2.7285   -5.4072 H.spc      1 <1>        0.000
     18 H           1.4804   -2.0399   -8.3651 H.spc      1 <1>        0.000
     19 H           0.1828   -0.2830   -7.7266 H.spc      1 <1>        0.000
     20 H          -0.4252    0.4681   -5.6396 H.spc      1 <1>        0.000
@<TRIPOS>BOND
     1    6    7 2  
     2   10   11 am 
     3    9   10 1  
     4    8    9 2  
     5    5    6 am 
     6    4    5 1  
     7    1    2 1  
     8    1    8 1  
     9    2    3 1  
    10    3    4 2  
    11   11   12 2  
    12    3   13 1  
    13    4   14 1  
    14    5   15 1  
    15    6   16 1  
    16    8   17 1  
    17    9   18 1  
    18   10   19 1  
    19   11   20 1  
# Name:          frag3-195-6/31924 -- energy: -1.880319
# Creation time: Sat Jun  5 12:52:18 2010


@<TRIPOS>MOLECULE
frag3-195-6/31924 -- energy: -1.880319
   20    19     1     1     1
SMALL
USER_CHARGES


@<TRIPOS>ATOM
      1 S1          3.9925   -2.6922   -7.4589 S.3        1 <1>        0.000
      2 S2          2.8771   -3.3618   -5.9040 S.3        1 <1>        0.000
      3 C1          1.7421   -1.9901   -5.7152 C.2        1 <1>        0.000
      4 C2          0.4278   -2.2157   -5.8524 C.2        1 <1>        0.000
      5 N1         -0.5841   -1.3211   -5.7110 N.am       1 <1>        0.000
      6 C9         -1.9186   -1.5411   -5.7658 C.2        1 <1>        0.000
      7 O1         -2.4526   -2.6254   -5.9298 O.2        1 <1>        0.000
      8 C20         4.7901   -1.2798   -6.7024 C.2        1 <1>        0.000
      9 C21         6.0967   -1.0852   -6.9263 C.2        1 <1>        0.000
     10 N5          6.8674   -0.0662   -6.4710 N.am       1 <1>        0.000
     11 C28         8.1971    0.1347   -6.6377 C.2        1 <1>        0.000
     12 O4          8.9792   -0.6660   -7.1223 O.2        1 <1>        0.000
     13 H           2.1131   -0.9896   -5.4927 H.spc      1 <1>        0.000
     14 H           0.1378   -3.2351   -6.1069 H.spc      1 <1>        0.000
     15 H          -0.3012   -0.3560   -5.5411 H.spc      1 <1>        0.000
     16 H          -2.5716   -0.6756   -5.6538 H.spc      1 <1>        0.000
     17 H           4.2249   -0.5925   -6.0729 H.spc      1 <1>        0.000
     18 H           6.5971   -1.8305   -7.5446 H.spc      1 <1>        0.000
     19 H           6.3792    0.6466   -5.9288 H.spc      1 <1>        0.000
     20 H           8.6019    1.0926   -6.3112 H.spc      1 <1>        0.000
@<TRIPOS>BOND
     1    6    7 2  
     2   10   11 am 
     3    9   10 1  
     4    8    9 2  
     5    5    6 am 
     6    4    5 1  
     7    1    2 1  
     8    1    8 1  
     9    2    3 1  
    10    3    4 2  
    11   11   12 2  
    12    3   13 1  
    13    4   14 1  
    14    5   15 1  
    15    6   16 1  
    16    8   17 1  
    17    9   18 1  
    18   10   19 1  
    19   11   20 1  
# Name:          frag3-195-6/31924 -- energy: -1.507017
# Creation time: Sat Jun  5 12:52:18 2010


@<TRIPOS>MOLECULE
frag3-195-6/31924 -- energy: -1.507017
   20    19     1     1     1
SMALL
USER_CHARGES


@<TRIPOS>ATOM
      1 S1          4.5402   -3.0911   -5.6865 S.3        1 <1>        0.000
      2 S2          2.9461   -2.8469   -6.9104 S.3        1 <1>        0.000
      3 C1          1.6361   -2.6838   -5.7089 C.2        1 <1>        0.000
      4 C2          0.4350   -2.2449   -6.1069 C.2        1 <1>        0.000
      5 N1         -0.6853   -2.0922   -5.3571 N.am       1 <1>        0.000
      6 C9         -1.8676   -1.5349   -5.7081 C.2        1 <1>        0.000
      7 O1         -2.0671   -0.8631   -6.7068 O.2        1 <1>        0.000
      8 C20         5.5442   -1.6962   -6.1656 C.2        1 <1>        0.000
      9 C21         6.8125   -1.9106   -6.5411 C.2        1 <1>        0.000
     10 N5          7.7155   -0.9947   -6.9675 N.am       1 <1>        0.000
     11 C28         7.5303    0.3231   -7.2234 C.2        1 <1>        0.000
     12 O4          6.4746    0.9255   -7.1146 O.2        1 <1>        0.000
     13 H           1.8116   -2.9384   -4.6637 H.spc      1 <1>        0.000
     14 H           0.3469   -1.9783   -7.1601 H.spc      1 <1>        0.000
     15 H          -0.6290   -2.4444   -4.4015 H.spc      1 <1>        0.000
     16 H          -2.7140   -1.7004   -5.0415 H.spc      1 <1>        0.000
     17 H           5.1329   -0.6869   -6.1531 H.spc      1 <1>        0.000
     18 H           7.1585   -2.9433   -6.4985 H.spc      1 <1>        0.000
     19 H           8.6622   -1.3443   -7.1158 H.spc      1 <1>        0.000
     20 H           8.3981    0.8935   -7.5546 H.spc      1 <1>        0.000
@<TRIPOS>BOND
     1    6    7 2  
     2   10   11 am 
     3    9   10 1  
     4    8    9 2  
     5    5    6 am 
     6    4    5 1  
     7    1    2 1  
     8    1    8 1  
     9    2    3 1  
    10    3    4 2  
    11   11   12 2  
    12    3   13 1  
    13    4   14 1  
    14    5   15 1  
    15    6   16 1  
    16    8   17 1  
    17    9   18 1  
    18   10   19 1  
    19   11   20 1  
# Name:          frag3-195-6/31924 -- energy: -2.974640
# Creation time: Sat Jun  5 12:52:18 2010


@<TRIPOS>MOLECULE
frag3-195-6/31924 -- energy: -2.974640
   20    19     1     1     1
SMALL
USER_CHARGES


@<TRIPOS>ATOM
      1 S1          4.6139   -4.0939   -6.5880 S.3        1 <1>        0.000
      2 S2          2.9758   -4.2801   -7.7637 S.3        1 <1>        0.000
      3 C1          1.7247   -3.6155   -6.6784 C.2        1 <1>        0.000
      4 C2          1.6159   -2.2856   -6.5423 C.2        1 <1>        0.000
      5 N1          0.7163   -1.5949   -5.7995 N.am       1 <1>        0.000
      6 C9          0.6668   -0.2655   -5.5520 C.2        1 <1>        0.000
      7 O1          1.5045    0.5527   -5.8956 O.2        1 <1>        0.000
      8 C20         4.8731   -2.3306   -6.6557 C.2        1 <1>        0.000
      9 C21         4.8040   -1.6179   -5.5231 C.2        1 <1>        0.000
     10 N5          4.9970   -0.2865   -5.3677 N.am       1 <1>        0.000
     11 C28         5.1787    0.6603   -6.3201 C.2        1 <1>        0.000
     12 O4          5.3438    0.4473   -7.5107 O.2        1 <1>        0.000
     13 H           1.0571   -4.2823   -6.1327 H.spc      1 <1>        0.000
     14 H           2.3389   -1.6871   -7.0965 H.spc      1 <1>        0.000
     15 H          -0.0221   -2.1520   -5.3696 H.spc      1 <1>        0.000
     16 H          -0.1952    0.1065   -4.9982 H.spc      1 <1>        0.000
     17 H           5.0848   -1.8394   -7.6054 H.spc      1 <1>        0.000
     18 H           4.5637   -2.1766   -4.6186 H.spc      1 <1>        0.000
     19 H           5.0069    0.0487   -4.4044 H.spc      1 <1>        0.000
     20 H           5.1773    1.7008   -5.9953 H.spc      1 <1>        0.000
@<TRIPOS>BOND
     1    6    7 2  
     2   10   11 am 
     3    9   10 1  
     4    8    9 2  
     5    5    6 am 
     6    4    5 1  
     7    1    2 1  
     8    1    8 1  
     9    2    3 1  
    10    3    4 2  
    11   11   12 2  
    12    3   13 1  
    13    4   14 1  
    14    5   15 1  
    15    6   16 1  
    16    8   17 1  
    17    9   18 1  
    18   10   19 1  
    19   11   20 1  
# Name:          frag3-195-6/31924 -- energy: -1.895993
# Creation time: Sat Jun  5 12:52:18 2010


@<TRIPOS>MOLECULE
frag3-195-6/31924 -- energy: -1.895993
   20    19     1     1     1
SMALL
USER_CHARGES


@<TRIPOS>ATOM
      1 S1          3.1611   -3.1412   -7.0415 S.3        1 <1>        0.000
      2 S2          4.1639   -3.5332   -5.3267 S.3        1 <1>        0.000
      3 C1          4.9946   -1.9767   -5.0774 C.2        1 <1>        0.000
      4 C2          5.6918   -1.4391   -6.0907 C.2        1 <1>        0.000
      5 N1          6.3541   -0.2573   -6.1140 N.am       1 <1>        0.000
      6 C9          7.0264    0.3160   -7.1389 C.2        1 <1>        0.000
      7 O1          7.2738   -0.2128   -8.2107 O.2        1 <1>        0.000
      8 C20         1.6429   -2.4710   -6.3964 C.2        1 <1>        0.000
      9 C21         0.9798   -1.5487   -7.1049 C.2        1 <1>        0.000
     10 N5         -0.1947   -0.9495   -6.7980 N.am       1 <1>        0.000
     11 C28        -1.0679   -1.2553   -5.8078 C.2        1 <1>        0.000
     12 O4         -1.0113   -2.2412   -5.0899 O.2        1 <1>        0.000
     13 H           4.9374   -1.4680   -4.1151 H.spc      1 <1>        0.000
     14 H           5.7298   -2.0260   -7.0084 H.spc      1 <1>        0.000
     15 H           6.3446    0.2713   -5.2417 H.spc      1 <1>        0.000
     16 H           7.3772    1.3379   -6.9949 H.spc      1 <1>        0.000
     17 H           1.2572   -2.8082   -5.4343 H.spc      1 <1>        0.000
     18 H           1.4420   -1.2429   -8.0435 H.spc      1 <1>        0.000
     19 H          -0.4576   -0.1626   -7.3914 H.spc      1 <1>        0.000
     20 H          -1.8913   -0.5616   -5.6377 H.spc      1 <1>        0.000
@<TRIPOS>BOND
     1    6    7 2  
     2   10   11 am 
     3    9   10 1  
     4    8    9 2  
     5    5    6 am 
     6    4    5 1  
     7    1    2 1  
     8    1    8 1  
     9    2    3 1  
    10    3    4 2  
    11   11   12 2  
    12    3   13 1  
    13    4   14 1  
    14    5   15 1  
    15    6   16 1  
    16    8   17 1  
    17    9   18 1  
    18   10   19 1  
    19   11   20 1  
# Name:          frag3-195-6/31924 -- energy: -2.490059
# Creation time: Sat Jun  5 12:52:18 2010


@<TRIPOS>MOLECULE
frag3-195-6/31924 -- energy: -2.490059
   20    19     1     1     1
SMALL
USER_CHARGES


@<TRIPOS>ATOM
      1 S1          3.2137   -4.2123   -5.3228 S.3        1 <1>        0.000
      2 S2          3.6289   -3.8807   -7.2793 S.3        1 <1>        0.000
      3 C1          5.1659   -2.9829   -7.1309 C.2        1 <1>        0.000
      4 C2          5.1344   -1.6447   -7.0528 C.2        1 <1>        0.000
      5 N1          6.1817   -0.7963   -6.8985 N.am       1 <1>        0.000
      6 C9          6.1621    0.5388   -6.6777 C.2        1 <1>        0.000
      7 O1          5.1810    1.1920   -6.3623 O.2        1 <1>        0.000
      8 C20         2.5000   -2.6396   -4.8685 C.2        1 <1>        0.000
      9 C21         1.4885   -2.1548   -5.6038 C.2        1 <1>        0.000
     10 N5          0.7997   -1.0049   -5.4071 N.am       1 <1>        0.000
     11 C28        -0.0979   -0.3998   -6.2215 C.2        1 <1>        0.000
     12 O4         -0.3436   -0.7247   -7.3718 O.2        1 <1>        0.000
     13 H           6.1165   -3.5156   -7.1042 H.spc      1 <1>        0.000
     14 H           4.1493   -1.1832   -7.1215 H.spc      1 <1>        0.000
     15 H           7.1071   -1.2212   -6.9566 H.spc      1 <1>        0.000
     16 H           7.1034    1.0766   -6.7914 H.spc      1 <1>        0.000
     17 H           2.8790   -2.0845   -4.0104 H.spc      1 <1>        0.000
     18 H           1.1850   -2.7567   -6.4603 H.spc      1 <1>        0.000
     19 H           0.9822   -0.5289   -4.5236 H.spc      1 <1>        0.000
     20 H          -0.6473    0.4493   -5.8148 H.spc      1 <1>        0.000
@<TRIPOS>BOND
     1    6    7 2  
     2   10   11 am 
     3    9   10 1  
     4    8    9 2  
     5    5    6 am 
     6    4    5 1  
     7    1    2 1  
     8    1    8 1  
     9    2    3 1  
    10    3    4 2  
    11   11   12 2  
    12    3   13 1  
    13    4   14 1  
    14    5   15 1  
    15    6   16 1  
    16    8   17 1  
    17    9   18 1  
    18   10   19 1  
    19   11   20 1  
# Name:          frag3-195-6/31924 -- energy: -2.083337
# Creation time: Sat Jun  5 12:52:18 2010


@<TRIPOS>MOLECULE
frag3-195-6/31924 -- energy: -2.083337
   20    19     1     1     1
SMALL
USER_CHARGES


@<TRIPOS>ATOM
      1 S1          2.7401   -0.3457   -5.2507 S.3        1 <1>        0.000
      2 S2          3.7610   -2.0628   -4.9123 S.3        1 <1>        0.000
      3 C1          5.3621   -1.6177   -5.5526 C.2        1 <1>        0.000
      4 C2          5.5308   -1.5052   -6.8791 C.2        1 <1>        0.000
      5 N1          6.6497   -1.1404   -7.5469 N.am       1 <1>        0.000
      6 C9          7.8770   -0.8576   -7.0502 C.2        1 <1>        0.000
      7 O1          8.8316   -0.4542   -7.6916 O.2        1 <1>        0.000
      8 C20         1.5715   -0.8879   -6.4799 C.2        1 <1>        0.000
      9 C21         0.5119   -1.6126   -6.0921 C.2        1 <1>        0.000
     10 N5         -0.4937   -2.0919   -6.8613 N.am       1 <1>        0.000
     11 C28        -1.5389   -2.8767   -6.5063 C.2        1 <1>        0.000
     12 O4         -1.7886   -3.2571   -5.3737 O.2        1 <1>        0.000
     13 H           6.1962   -1.4385   -4.8742 H.spc      1 <1>        0.000
     14 H           4.6605   -1.7358   -7.4935 H.spc      1 <1>        0.000
     15 H           6.5559   -1.0689   -8.5601 H.spc      1 <1>        0.000
     16 H           8.0247   -1.0039   -5.9802 H.spc      1 <1>        0.000
     17 H           1.7150   -0.6349   -7.5304 H.spc      1 <1>        0.000
     18 H           0.4532   -1.8438   -5.0285 H.spc      1 <1>        0.000
     19 H          -0.4595   -1.8248   -7.8451 H.spc      1 <1>        0.000
     20 H          -2.2147   -3.1958   -7.2997 H.spc      1 <1>        0.000
@<TRIPOS>BOND
     1    6    7 2  
     2   10   11 am 
     3    9   10 1  
     4    8    9 2  
     5    5    6 am 
     6    4    5 1  
     7    1    2 1  
     8    1    8 1  
     9    2    3 1  
    10    3    4 2  
    11   11   12 2  
    12    3   13 1  
    13    4   14 1  
    14    5   15 1  
    15    6   16 1  
    16    8   17 1  
    17    9   18 1  
    18   10   19 1  
    19   11   20 1  
# Name:          frag3-195-6/31924 -- energy: -2.120720
# Creation time: Sat Jun  5 12:52:18 2010


@<TRIPOS>MOLECULE
frag3-195-6/31924 -- energy: -2.120720
   20    19     1     1     1
SMALL
USER_CHARGES


@<TRIPOS>ATOM
      1 S1          3.0221   -3.9687   -5.3865 S.3        1 <1>        0.000
      2 S2          4.2305   -4.1755   -6.9972 S.3        1 <1>        0.000
      3 C1          5.5274   -3.0261   -6.5761 C.2        1 <1>        0.000
      4 C2          5.3565   -1.7215   -6.8345 C.2        1 <1>        0.000
      5 N1          6.2011   -0.6984   -6.5551 N.am       1 <1>        0.000
      6 C9          6.0113    0.6289   -6.7380 C.2        1 <1>        0.000
      7 O1          4.9320    1.1790   -6.8847 O.2        1 <1>        0.000
      8 C20         1.9513   -2.6538   -5.9352 C.2        1 <1>        0.000
      9 C21         0.9723   -2.2286   -5.1272 C.2        1 <1>        0.000
     10 N5          0.0838   -1.2317   -5.3519 N.am       1 <1>        0.000
     11 C28         0.0027   -0.3925   -6.4129 C.2        1 <1>        0.000
     12 O4          0.7234   -0.4210   -7.3976 O.2        1 <1>        0.000
     13 H           6.4488   -3.3802   -6.1138 H.spc      1 <1>        0.000
     14 H           4.4242   -1.4503   -7.3299 H.spc      1 <1>        0.000
     15 H           7.0999   -0.9648   -6.1532 H.spc      1 <1>        0.000
     16 H           6.8990    1.2611   -6.7558 H.spc      1 <1>        0.000
     17 H           2.0919   -2.2013   -6.9168 H.spc      1 <1>        0.000
     18 H           0.8791   -2.7475   -4.1732 H.spc      1 <1>        0.000
     19 H          -0.6186   -1.0940   -4.6252 H.spc      1 <1>        0.000
     20 H          -0.7724    0.3734   -6.3845 H.spc      1 <1>        0.000
@<TRIPOS>BOND
     1    6    7 2  
     2   10   11 am 
     3    9   10 1  
     4    8    9 2  
     5    5    6 am 
     6    4    5 1  
     7    1    2 1  
     8    1    8 1  
     9    2    3 1  
    10    3    4 2  
    11   11   12 2  
    12    3   13 1  
    13    4   14 1  
    14    5   15 1  
    15    6   16 1  
    16    8   17 1  
    17    9   18 1  
    18   10   19 1  
    19   11   20 1  
# Name:          frag3-195-6/31924 -- energy: -1.441746
# Creation time: Sat Jun  5 12:52:18 2010


@<TRIPOS>MOLECULE
frag3-195-6/31924 -- energy: -1.441746
   20    19     1     1     1
SMALL
USER_CHARGES


@<TRIPOS>ATOM
      1 S1          4.1312   -0.9186   -5.1890 S.3        1 <1>        0.000
      2 S2          2.7597   -0.7844   -6.6729 S.3        1 <1>        0.000
      3 C1          1.5759   -2.0071   -6.1328 C.2        1 <1>        0.000
      4 C2          0.2675   -1.7452   -6.2549 C.2        1 <1>        0.000
      5 N1         -0.7745   -2.5523   -5.9380 N.am       1 <1>        0.000
      6 C9         -2.0981   -2.3420   -6.1264 C.2        1 <1>        0.000
      7 O1         -2.9956   -3.0847   -5.7666 O.2        1 <1>        0.000
      8 C20         5.6460   -0.7897   -6.1237 C.2        1 <1>        0.000
      9 C21         6.6169   -1.6879   -5.9105 C.2        1 <1>        0.000
     10 N5          7.8151   -1.7753   -6.5378 N.am       1 <1>        0.000
     11 C28         8.3051   -1.0071   -7.5409 C.2        1 <1>        0.000
     12 O4          7.7652   -0.0153   -8.0035 O.2        1 <1>        0.000
     13 H           1.9129   -2.9534   -5.7097 H.spc      1 <1>        0.000
     14 H           0.0101   -0.7655   -6.6574 H.spc      1 <1>        0.000
     15 H          -0.5274   -3.4386   -5.4977 H.spc      1 <1>        0.000
     16 H          -2.3872   -1.4282   -6.6455 H.spc      1 <1>        0.000
     17 H           5.7791    0.0067   -6.8560 H.spc      1 <1>        0.000
     18 H           6.4201   -2.4360   -5.1426 H.spc      1 <1>        0.000
     19 H           8.4311   -2.5196   -6.2108 H.spc      1 <1>        0.000
     20 H           9.2628   -1.3000   -7.9711 H.spc      1 <1>        0.000
@<TRIPOS>BOND
     1    6    7 2  
     2   10   11 am 
     3    9   10 1  
     4    8    9 2  
     5    5    6 am 
     6    4    5 1  
     7    1    2 1  
     8    1    8 1  
     9    2    3 1  
    10    3    4 2  
    11   11   12 2  
    12    3   13 1  
    13    4   14 1  
    14    5   15 1  
    15    6   16 1  
    16    8   17 1  
    17    9   18 1  
    18   10   19 1  
    19   11   20 1  
# Name:          frag3-195-6/31924 -- energy: -2.022841
# Creation time: Sat Jun  5 12:52:18 2010


@<TRIPOS>MOLECULE
frag3-195-6/31924 -- energy: -2.022841
   20    19     1     1     1
SMALL
USER_CHARGES


@<TRIPOS>ATOM
      1 S1          2.8368   -3.6655   -7.1872 S.3        1 <1>        0.000
      2 S2          4.1908   -3.4844   -5.6975 S.3        1 <1>        0.000
      3 C1          4.9745   -1.9518   -6.1417 C.2        1 <1>        0.000
      4 C2          6.2351   -1.7145   -5.7589 C.2        1 <1>        0.000
      5 N1          7.0068   -0.6361   -6.0333 N.am       1 <1>        0.000
      6 C9          6.8138    0.3160   -6.9763 C.2        1 <1>        0.000
      7 O1          5.8643    0.3778   -7.7418 O.2        1 <1>        0.000
      8 C20         1.4557   -2.7896   -6.4918 C.2        1 <1>        0.000
      9 C21         1.3405   -1.4697   -6.6988 C.2        1 <1>        0.000
     10 N5          0.3574   -0.6415   -6.2781 N.am       1 <1>        0.000
     11 C28        -0.8278   -0.9594   -5.7031 C.2        1 <1>        0.000
     12 O4         -1.2335   -2.0911   -5.4884 O.2        1 <1>        0.000
     13 H           4.4305   -1.2079   -6.7237 H.spc      1 <1>        0.000
     14 H           6.6999   -2.4884   -5.1481 H.spc      1 <1>        0.000
     15 H           7.8403   -0.5272   -5.4555 H.spc      1 <1>        0.000
     16 H           7.5717    1.0950   -7.0595 H.spc      1 <1>        0.000
     17 H           0.7086   -3.3207   -5.9020 H.spc      1 <1>        0.000
     18 H           2.1389   -1.0064   -7.2785 H.spc      1 <1>        0.000
     19 H           0.5312    0.3547   -6.4113 H.spc      1 <1>        0.000
     20 H          -1.4748   -0.1338   -5.4067 H.spc      1 <1>        0.000
@<TRIPOS>BOND
     1    6    7 2  
     2   10   11 am 
     3    9   10 1  
     4    8    9 2  
     5    5    6 am 
     6    4    5 1  
     7    1    2 1  
     8    1    8 1  
     9    2    3 1  
    10    3    4 2  
    11   11   12 2  
    12    3   13 1  
    13    4   14 1  
    14    5   15 1  
    15    6   16 1  
    16    8   17 1  
    17    9   18 1  
    18   10   19 1  
    19   11   20 1  
# Name:          frag3-195-6/31924 -- energy: -1.846331
# Creation time: Sat Jun  5 12:52:18 2010


@<TRIPOS>MOLECULE
frag3-195-6/31924 -- energy: -1.846331
   20    19     1     1     1
SMALL
USER_CHARGES


@<TRIPOS>ATOM
      1 S1          3.2494   -2.6712   -4.9466 S.3        1 <1>        0.000
      2 S2          3.7446   -2.8780   -6.9000 S.3        1 <1>        0.000
      3 C1          5.0728   -1.7004   -7.0219 C.2        1 <1>        0.000
      4 C2          6.2296   -1.9494   -6.3873 C.2        1 <1>        0.000
      5 N1          7.3593   -1.2019   -6.3854 N.am       1 <1>        0.000
      6 C9          7.6014   -0.0444   -7.0446 C.2        1 <1>        0.000
      7 O1          6.8043    0.5522   -7.7512 O.2        1 <1>        0.000
      8 C20         1.9055   -1.5117   -5.0676 C.2        1 <1>        0.000
      9 C21         0.7603   -1.9019   -5.6468 C.2        1 <1>        0.000
     10 N5         -0.3768   -1.1869   -5.8098 N.am       1 <1>        0.000
     11 C28        -1.5622   -1.5775   -6.3353 C.2        1 <1>        0.000
     12 O4         -1.7736   -2.6387   -6.9004 O.2        1 <1>        0.000
     13 H           4.9489   -0.7877   -7.6048 H.spc      1 <1>        0.000
     14 H           6.2639   -2.8674   -5.8006 H.spc      1 <1>        0.000
     15 H           8.1261   -1.5567   -5.8139 H.spc      1 <1>        0.000
     16 H           8.5939    0.3927   -6.9350 H.spc      1 <1>        0.000
     17 H           2.0111   -0.4996   -4.6770 H.spc      1 <1>        0.000
     18 H           0.7437   -2.9207   -6.0339 H.spc      1 <1>        0.000
     19 H          -0.3354   -0.2184   -5.4925 H.spc      1 <1>        0.000
     20 H          -2.3992   -0.8850   -6.2460 H.spc      1 <1>        0.000
@<TRIPOS>BOND
     1    6    7 2  
     2   10   11 am 
     3    9   10 1  
     4    8    9 2  
     5    5    6 am 
     6    4    5 1  
     7    1    2 1  
     8    1    8 1  
     9    2    3 1  
    10    3    4 2  
    11   11   12 2  
    12    3   13 1  
    13    4   14 1  
    14    5   15 1  
    15    6   16 1  
    16    8   17 1  
    17    9   18 1  
    18   10   19 1  
    19   11   20 1  
# Name:          frag3-195-6/31924 -- energy: -2.007836
# Creation time: Sat Jun  5 12:52:18 2010


@<TRIPOS>MOLECULE
frag3-195-6/31924 -- energy: -2.007836
   20    19     1     1     1
SMALL
USER_CHARGES


@<TRIPOS>ATOM
      1 S1          4.6107   -3.7788   -6.3505 S.3        1 <1>        0.000
      2 S2          3.2150   -3.2589   -4.9784 S.3        1 <1>        0.000
      3 C1          2.3076   -2.0223   -5.8944 C.2        1 <1>        0.000
      4 C2          0.9718   -1.9907   -5.8006 C.2        1 <1>        0.000
      5 N1          0.1174   -1.1145   -6.3861 N.am       1 <1>        0.000
      6 C9         -1.2359   -1.1263   -6.3870 C.2        1 <1>        0.000
      7 O1         -1.9396   -1.8982   -5.7564 O.2        1 <1>        0.000
      8 C20         5.5478   -2.2624   -6.4551 C.2        1 <1>        0.000
      9 C21         5.4177   -1.4943   -7.5459 C.2        1 <1>        0.000
     10 N5          6.0133   -0.3030   -7.7949 N.am       1 <1>        0.000
     11 C28         6.8141    0.4304   -6.9841 C.2        1 <1>        0.000
     12 O4          7.1744    0.1091   -5.8634 O.2        1 <1>        0.000
     13 H           2.8342   -1.3029   -6.5215 H.spc      1 <1>        0.000
     14 H           0.5165   -2.7617   -5.1791 H.spc      1 <1>        0.000
     15 H           0.5531   -0.3442   -6.8932 H.spc      1 <1>        0.000
     16 H          -1.7404   -0.3826   -7.0039 H.spc      1 <1>        0.000
     17 H           6.2146   -1.9662   -5.6453 H.spc      1 <1>        0.000
     18 H           4.7548   -1.8725   -8.3241 H.spc      1 <1>        0.000
     19 H           5.8349    0.0955   -8.7168 H.spc      1 <1>        0.000
     20 H           7.1663    1.3888   -7.3655 H.spc      1 <1>        0.000
@<TRIPOS>BOND
     1    6    7 2  
     2   10   11 am 
     3    9   10 1  
     4    8    9 2  
     5    5    6 am 
     6    4    5 1  
     7    1    2 1  
     8    1    8 1  
     9    2    3 1  
    10    3    4 2  
    11   11   12 2  
    12    3   13 1  
    13    4   14 1  
    14    5   15 1  
    15    6   16 1  
    16    8   17 1  
    17    9   18 1  
    18   10   19 1  
    19   11   20 1  
# Name:          frag3-195-6/31924 -- energy: -1.890357
# Creation time: Sat Jun  5 12:52:18 2010


@<TRIPOS>MOLECULE
frag3-195-6/31924 -- energy: -1.890357
   20    19     1     1     1
SMALL
USER_CHARGES


@<TRIPOS>ATOM
      1 S1          3.8315   -3.3699   -7.1213 S.3        1 <1>        0.000
      2 S2          3.1067   -3.1291   -5.2461 S.3        1 <1>        0.000
      3 C1          1.6054   -2.2499   -5.5868 C.2        1 <1>        0.000
      4 C2          0.5563   -2.9086   -6.1057 C.2        1 <1>        0.000
      5 N1         -0.6737   -2.4302   -6.4027 N.am       1 <1>        0.000
      6 C9         -1.1750   -1.1966   -6.1578 C.2        1 <1>        0.000
      7 O1         -0.5551   -0.2563   -5.6847 O.2        1 <1>        0.000
      8 C20         4.8995   -1.9604   -7.2479 C.2        1 <1>        0.000
      9 C21         5.8253   -1.7517   -6.2967 C.2        1 <1>        0.000
     10 N5          6.7400   -0.7651   -6.2271 N.am       1 <1>        0.000
     11 C28         7.0058    0.2177   -7.1212 C.2        1 <1>        0.000
     12 O4          7.8479    1.0901   -6.9987 O.2        1 <1>        0.000
     13 H           1.5343   -1.1827   -5.3767 H.spc      1 <1>        0.000
     14 H           0.7168   -3.9663   -6.3147 H.spc      1 <1>        0.000
     15 H          -1.3036   -3.0818   -6.8707 H.spc      1 <1>        0.000
     16 H          -2.2232   -1.0277   -6.4043 H.spc      1 <1>        0.000
     17 H           4.8062   -1.2714   -8.0873 H.spc      1 <1>        0.000
     18 H           5.8378   -2.4714   -5.4782 H.spc      1 <1>        0.000
     19 H           7.3127   -0.7568   -5.3831 H.spc      1 <1>        0.000
     20 H           6.4113    0.2291   -8.0347 H.spc      1 <1>        0.000
@<TRIPOS>BOND
     1    6    7 2  
     2   10   11 am 
     3    9   10 1  
     4    8    9 2  
     5    5    6 am 
     6    4    5 1  
     7    1    2 1  
     8    1    8 1  
     9    2    3 1  
    10    3    4 2  
    11   11   12 2  
    12    3   13 1  
    13    4   14 1  
    14    5   15 1  
    15    6   16 1  
    16    8   17 1  
    17    9   18 1  
    18   10   19 1  
    19   11   20 1  
# Name:          frag3-195-6/31924 -- energy: -1.923801
# Creation time: Sat Jun  5 12:52:18 2010


@<TRIPOS>MOLECULE
frag3-195-6/31924 -- energy: -1.923801
   20    19     1     1     1
SMALL
USER_CHARGES


@<TRIPOS>ATOM
      1 S1          3.4503   -3.1220   -7.5084 S.3        1 <1>        0.000
      2 S2          4.2663   -3.6597   -5.7324 S.3        1 <1>        0.000
      3 C1          5.0131   -2.1173   -5.2404 C.2        1 <1>        0.000
      4 C2          5.6949   -1.4045   -6.1510 C.2        1 <1>        0.000
      5 N1          6.2969   -0.2012   -5.9865 N.am       1 <1>        0.000
      6 C9          7.0146    0.5150   -6.8827 C.2        1 <1>        0.000
      7 O1          7.2247    0.1962   -8.0418 O.2        1 <1>        0.000
      8 C20         1.7156   -3.1715   -7.1048 C.2        1 <1>        0.000
      9 C21         1.1415   -2.0870   -6.5656 C.2        1 <1>        0.000
     10 N5         -0.1547   -1.9202   -6.2180 N.am       1 <1>        0.000
     11 C28        -0.7322   -0.9130   -5.5206 C.2        1 <1>        0.000
     12 O4         -1.9165   -0.8246   -5.2445 O.2        1 <1>        0.000
     13 H           4.9175   -1.7585   -4.2156 H.spc      1 <1>        0.000
     14 H           5.7741   -1.8474   -7.1438 H.spc      1 <1>        0.000
     15 H           6.1953    0.2210   -5.0635 H.spc      1 <1>        0.000
     16 H           7.4417    1.4574   -6.5399 H.spc      1 <1>        0.000
     17 H           1.1296   -4.0709   -7.2937 H.spc      1 <1>        0.000
     18 H           1.7990   -1.2365   -6.3855 H.spc      1 <1>        0.000
     19 H          -0.7880   -2.6585   -6.5249 H.spc      1 <1>        0.000
     20 H          -0.0805   -0.1103   -5.1756 H.spc      1 <1>        0.000
@<TRIPOS>BOND
     1    6    7 2  
     2   10   11 am 
     3    9   10 1  
     4    8    9 2  
     5    5    6 am 
     6    4    5 1  
     7    1    2 1  
     8    1    8 1  
     9    2    3 1  
    10    3    4 2  
    11   11   12 2  
    12    3   13 1  
    13    4   14 1  
    14    5   15 1  
    15    6   16 1  
    16    8   17 1  
    17    9   18 1  
    18   10   19 1  
    19   11   20 1  
# Name:          frag3-195-6/31924 -- energy: -1.888311
# Creation time: Sat Jun  5 12:52:18 2010


@<TRIPOS>MOLECULE
frag3-195-6/31924 -- energy: -1.888311
   20    19     1     1     1
SMALL
USER_CHARGES


@<TRIPOS>ATOM
      1 S1          2.8981   -2.5788   -6.8749 S.3        1 <1>        0.000
      2 S2          4.3374   -3.1261   -5.5603 S.3        1 <1>        0.000
      3 C1          5.7455   -2.2838   -6.2528 C.2        1 <1>        0.000
      4 C2          5.7078   -0.9490   -6.3907 C.2        1 <1>        0.000
      5 N1          6.6814   -0.1344   -6.8596 N.am       1 <1>        0.000
      6 C9          7.9524   -0.4474   -7.2052 C.2        1 <1>        0.000
      7 O1          8.8081    0.3406   -7.5689 O.2        1 <1>        0.000
      8 C20         1.6764   -1.8939   -5.7754 C.2        1 <1>        0.000
      9 C21         0.3791   -2.0355   -6.0727 C.2        1 <1>        0.000
     10 N5         -0.6895   -1.6187   -5.3530 N.am       1 <1>        0.000
     11 C28        -2.0075   -1.7178   -5.6488 C.2        1 <1>        0.000
     12 O4         -2.4746   -2.2652   -6.6347 O.2        1 <1>        0.000
     13 H           6.6274   -2.8454   -6.5610 H.spc      1 <1>        0.000
     14 H           4.7805   -0.4623   -6.0883 H.spc      1 <1>        0.000
     15 H           6.4231    0.8465   -6.9670 H.spc      1 <1>        0.000
     16 H           8.2359   -1.4986   -7.1535 H.spc      1 <1>        0.000
     17 H           1.9811   -1.3660   -4.8717 H.spc      1 <1>        0.000
     18 H           0.1556   -2.5488   -7.0079 H.spc      1 <1>        0.000
     19 H          -0.4716   -1.1674   -4.4646 H.spc      1 <1>        0.000
     20 H          -2.7110   -1.2706   -4.9466 H.spc      1 <1>        0.000
@<TRIPOS>BOND
     1    6    7 2  
     2   10   11 am 
     3    9   10 1  
     4    8    9 2  
     5    5    6 am 
     6    4    5 1  
     7    1    2 1  
     8    1    8 1  
     9    2    3 1  
    10    3    4 2  
    11   11   12 2  
    12    3   13 1  
    13    4   14 1  
    14    5   15 1  
    15    6   16 1  
    16    8   17 1  
    17    9   18 1  
    18   10   19 1  
    19   11   20 1  
# Name:          frag3-195-6/31924 -- energy: -2.292608
# Creation time: Sat Jun  5 12:52:18 2010


@<TRIPOS>MOLECULE
frag3-195-6/31924 -- energy: -2.292608
   20    19     1     1     1
SMALL
USER_CHARGES


@<TRIPOS>ATOM
      1 S1          4.1347   -3.8230   -5.4599 S.3        1 <1>        0.000
      2 S2          3.2216   -3.6380   -7.2600 S.3        1 <1>        0.000
      3 C1          1.6265   -3.0247   -6.7487 C.2        1 <1>        0.000
      4 C2          1.4197   -1.7007   -6.6964 C.2        1 <1>        0.000
      5 N1          0.2777   -1.0511   -6.3682 N.am       1 <1>        0.000
      6 C9         -0.7469   -1.4800   -5.5945 C.2        1 <1>        0.000
      7 O1         -1.7545   -0.8471   -5.3298 O.2        1 <1>        0.000
      8 C20         4.8489   -2.1980   -5.2848 C.2        1 <1>        0.000
      9 C21         5.5563   -1.6900   -6.3054 C.2        1 <1>        0.000
     10 N5          6.1460   -0.4755   -6.3821 N.am       1 <1>        0.000
     11 C28         6.8921    0.0531   -7.3814 C.2        1 <1>        0.000
     12 O4          7.3924    1.1650   -7.3857 O.2        1 <1>        0.000
     13 H           0.8290   -3.7181   -6.4818 H.spc      1 <1>        0.000
     14 H           2.2735   -1.0718   -6.9484 H.spc      1 <1>        0.000
     15 H           0.1760   -0.1131   -6.7559 H.spc      1 <1>        0.000
     16 H          -0.6635   -2.4806   -5.1703 H.spc      1 <1>        0.000
     17 H           4.7132   -1.6282   -4.3656 H.spc      1 <1>        0.000
     18 H           5.6693   -2.3337   -7.1777 H.spc      1 <1>        0.000
     19 H           6.0095    0.1288   -5.5718 H.spc      1 <1>        0.000
     20 H           7.0601   -0.5707   -8.2593 H.spc      1 <1>        0.000
@<TRIPOS>BOND
     1    6    7 2  
     2   10   11 am 
     3    9   10 1  
     4    8    9 2  
     5    5    6 am 
     6    4    5 1  
     7    1    2 1  
     8    1    8 1  
     9    2    3 1  
    10    3    4 2  
    11   11   12 2  
    12    3   13 1  
    13    4   14 1  
    14    5   15 1  
    15    6   16 1  
    16    8   17 1  
    17    9   18 1  
    18   10   19 1  
    19   11   20 1  
# Name:          frag3-195-6/31924 -- energy: -2.448701
# Creation time: Sat Jun  5 12:52:18 2010


@<TRIPOS>MOLECULE
frag3-195-6/31924 -- energy: -2.448701
   20    19     1     1     1
SMALL
USER_CHARGES


@<TRIPOS>ATOM
      1 S1          3.1464   -4.1705   -5.7125 S.3        1 <1>        0.000
      2 S2          4.3113   -3.9412   -7.3513 S.3        1 <1>        0.000
      3 C1          5.0696   -2.3700   -6.9919 C.2        1 <1>        0.000
      4 C2          4.4829   -1.2413   -7.4184 C.2        1 <1>        0.000
      5 N1          4.8806    0.0371   -7.2111 N.am       1 <1>        0.000
      6 C9          5.8980    0.4854   -6.4386 C.2        1 <1>        0.000
      7 O1          6.5896   -0.2018   -5.7038 O.2        1 <1>        0.000
      8 C20         1.9348   -2.8935   -5.9812 C.2        1 <1>        0.000
      9 C21         1.8486   -1.8771   -5.1124 C.2        1 <1>        0.000
     10 N5          1.0232   -0.8057   -5.1634 N.am       1 <1>        0.000
     11 C28         0.0549   -0.5256   -6.0688 C.2        1 <1>        0.000
     12 O4         -0.2253   -1.2058   -7.0433 O.2        1 <1>        0.000
     13 H           6.0026   -2.3259   -6.4301 H.spc      1 <1>        0.000
     14 H           3.5729   -1.3687   -8.0047 H.spc      1 <1>        0.000
     15 H           4.3445    0.7541   -7.6999 H.spc      1 <1>        0.000
     16 H           6.1188    1.5522   -6.4759 H.spc      1 <1>        0.000
     17 H           1.2699   -2.9382   -6.8438 H.spc      1 <1>        0.000
     18 H           2.5265   -1.9182   -4.2598 H.spc      1 <1>        0.000
     19 H           1.1466   -0.1171   -4.4211 H.spc      1 <1>        0.000
     20 H          -0.5236    0.3851   -5.9139 H.spc      1 <1>        0.000
@<TRIPOS>BOND
     1    6    7 2  
     2   10   11 am 
     3    9   10 1  
     4    8    9 2  
     5    5    6 am 
     6    4    5 1  
     7    1    2 1  
     8    1    8 1  
     9    2    3 1  
    10    3    4 2  
    11   11   12 2  
    12    3   13 1  
    13    4   14 1  
    14    5   15 1  
    15    6   16 1  
    16    8   17 1  
    17    9   18 1  
    18   10   19 1  
    19   11   20 1  
# Name:          frag3-195-6/31924 -- energy: -2.227044
# Creation time: Sat Jun  5 12:52:18 2010


@<TRIPOS>MOLECULE
frag3-195-6/31924 -- energy: -2.227044
   20    19     1     1     1
SMALL
USER_CHARGES


@<TRIPOS>ATOM
      1 S1          4.2597   -3.8201   -5.6375 S.3        1 <1>        0.000
      2 S2          3.2954   -3.4560   -7.3820 S.3        1 <1>        0.000
      3 C1          2.0567   -2.2995   -6.8354 C.2        1 <1>        0.000
      4 C2          0.8607   -2.7599   -6.4390 C.2        1 <1>        0.000
      5 N1         -0.1855   -2.0509   -5.9567 N.am       1 <1>        0.000
      6 C9         -0.3374   -0.7074   -5.8875 C.2        1 <1>        0.000
      7 O1         -1.2807   -0.1196   -5.3875 O.2        1 <1>        0.000
      8 C20         5.7570   -2.8902   -5.8880 C.2        1 <1>        0.000
      9 C21         5.6704   -1.6014   -6.2506 C.2        1 <1>        0.000
     10 N5          6.6814   -0.7271   -6.4618 N.am       1 <1>        0.000
     11 C28         6.6211    0.5694   -6.8488 C.2        1 <1>        0.000
     12 O4          5.6158    1.1529   -7.2220 O.2        1 <1>        0.000
     13 H           2.2677   -1.2302   -6.8230 H.spc      1 <1>        0.000
     14 H           0.7139   -3.8373   -6.5148 H.spc      1 <1>        0.000
     15 H          -0.9644   -2.6025   -5.5969 H.spc      1 <1>        0.000
     16 H           0.4558   -0.0961   -6.3179 H.spc      1 <1>        0.000
     17 H           6.7301   -3.3612   -5.7488 H.spc      1 <1>        0.000
     18 H           4.6627   -1.2109   -6.3924 H.spc      1 <1>        0.000
     19 H           7.6199   -1.0960   -6.3081 H.spc      1 <1>        0.000
     20 H           7.5492    1.1405   -6.8250 H.spc      1 <1>        0.000
@<TRIPOS>BOND
     1    6    7 2  
     2   10   11 am 
     3    9   10 1  
     4    8    9 2  
     5    5    6 am 
     6    4    5 1  
     7    1    2 1  
     8    1    8 1  
     9    2    3 1  
    10    3    4 2  
    11   11   12 2  
    12    3   13 1  
    13    4   14 1  
    14    5   15 1  
    15    6   16 1  
    16    8   17 1  
    17    9   18 1  
    18   10   19 1  
    19   11   20 1  
# Name:          frag3-195-6/31924 -- energy: -1.542066
# Creation time: Sat Jun  5 12:52:18 2010


@<TRIPOS>MOLECULE
frag3-195-6/31924 -- energy: -1.542066
   20    19     1     1     1
SMALL
USER_CHARGES


@<TRIPOS>ATOM
      1 S1          3.7940   -1.2042   -5.5058 S.3        1 <1>        0.000
      2 S2          2.5776   -0.6426   -7.0228 S.3        1 <1>        0.000
      3 C1          1.4754   -2.0422   -7.0911 C.2        1 <1>        0.000
      4 C2          0.3150   -1.9918   -6.4213 C.2        1 <1>        0.000
      5 N1         -0.6626   -2.9305   -6.3768 N.am       1 <1>        0.000
      6 C9         -1.8250   -2.9085   -5.6843 C.2        1 <1>        0.000
      7 O1         -2.2137   -1.9925   -4.9778 O.2        1 <1>        0.000
      8 C20         5.3913   -1.0482   -6.2801 C.2        1 <1>        0.000
      9 C21         6.4906   -1.3292   -5.5693 C.2        1 <1>        0.000
     10 N5          7.7789   -1.2986   -5.9865 N.am       1 <1>        0.000
     11 C28         8.2721   -0.9049   -7.1857 C.2        1 <1>        0.000
     12 O4          7.6211   -0.4166   -8.0954 O.2        1 <1>        0.000
     13 H           1.7413   -2.9269   -7.6696 H.spc      1 <1>        0.000
     14 H           0.1356   -1.0860   -5.8420 H.spc      1 <1>        0.000
     15 H          -0.5000   -3.7647   -6.9407 H.spc      1 <1>        0.000
     16 H          -2.4694   -3.7840   -5.7644 H.spc      1 <1>        0.000
     17 H           5.4724   -0.7282   -7.3189 H.spc      1 <1>        0.000
     18 H           6.3295   -1.6171   -4.5304 H.spc      1 <1>        0.000
     19 H           8.4707   -1.6143   -5.3067 H.spc      1 <1>        0.000
     20 H           9.3414   -1.0354   -7.3521 H.spc      1 <1>        0.000
@<TRIPOS>BOND
     1    6    7 2  
     2   10   11 am 
     3    9   10 1  
     4    8    9 2  
     5    5    6 am 
     6    4    5 1  
     7    1    2 1  
     8    1    8 1  
     9    2    3 1  
    10    3    4 2  
    11   11   12 2  
    12    3   13 1  
    13    4   14 1  
    14    5   15 1  
    15    6   16 1  
    16    8   17 1  
    17    9   18 1  
    18   10   19 1  
    19   11   20 1  
# Name:          frag3-195-6/31924 -- energy: -1.732933
# Creation time: Sat Jun  5 12:52:18 2010


@<TRIPOS>MOLECULE
frag3-195-6/31924 -- energy: -1.732933
   20    19     1     1     1
SMALL
USER_CHARGES


@<TRIPOS>ATOM
      1 S1          4.5761   -3.5767   -5.7890 S.3        1 <1>        0.000
      2 S2          2.7203   -3.7510   -6.5857 S.3        1 <1>        0.000
      3 C1          1.8450   -2.5189   -5.6269 C.2        1 <1>        0.000
      4 C2          0.6999   -2.0170   -6.1096 C.2        1 <1>        0.000
      5 N1         -0.1205   -1.1105   -5.5183 N.am       1 <1>        0.000
      6 C9         -1.4301   -0.8718   -5.7634 C.2        1 <1>        0.000
      7 O1         -2.1974   -1.6356   -6.3253 O.2        1 <1>        0.000
      8 C20         5.3834   -2.5998   -7.0520 C.2        1 <1>        0.000
      9 C21         6.0952   -1.5281   -6.6777 C.2        1 <1>        0.000
     10 N5          6.7988   -0.6868   -7.4757 N.am       1 <1>        0.000
     11 C28         7.4032    0.4829   -7.1554 C.2        1 <1>        0.000
     12 O4          7.2406    1.1035   -6.1179 O.2        1 <1>        0.000
     13 H           2.2365   -2.1825   -4.6669 H.spc      1 <1>        0.000
     14 H           0.3912   -2.3783   -7.0906 H.spc      1 <1>        0.000
     15 H           0.3066   -0.5333   -4.7938 H.spc      1 <1>        0.000
     16 H          -1.8334    0.0845   -5.4303 H.spc      1 <1>        0.000
     17 H           5.2979   -2.8709   -8.1043 H.spc      1 <1>        0.000
     18 H           6.1106   -1.3072   -5.6104 H.spc      1 <1>        0.000
     19 H           6.8848   -0.9740   -8.4506 H.spc      1 <1>        0.000
     20 H           8.0928    0.9049   -7.8865 H.spc      1 <1>        0.000
@<TRIPOS>BOND
     1    6    7 2  
     2   10   11 am 
     3    9   10 1  
     4    8    9 2  
     5    5    6 am 
     6    4    5 1  
     7    1    2 1  
     8    1    8 1  
     9    2    3 1  
    10    3    4 2  
    11   11   12 2  
    12    3   13 1  
    13    4   14 1  
    14    5   15 1  
    15    6   16 1  
    16    8   17 1  
    17    9   18 1  
    18   10   19 1  
    19   11   20 1  
# Name:          frag3-195-6/31924 -- energy: -1.868543
# Creation time: Sat Jun  5 12:52:18 2010


@<TRIPOS>MOLECULE
frag3-195-6/31924 -- energy: -1.868543
   20    19     1     1     1
SMALL
USER_CHARGES


@<TRIPOS>ATOM
      1 S1          3.7388   -2.3529   -5.5466 S.3        1 <1>        0.000
      2 S2          2.9012   -2.1451   -7.3814 S.3        1 <1>        0.000
      3 C1          1.1995   -1.8717   -6.9286 C.2        1 <1>        0.000
      4 C2          0.6090   -2.7206   -6.0718 C.2        1 <1>        0.000
      5 N1         -0.6508   -2.6613   -5.5802 N.am       1 <1>        0.000
      6 C9         -1.6366   -1.7845   -5.8840 C.2        1 <1>        0.000
      7 O1         -2.7389   -1.7423   -5.3657 O.2        1 <1>        0.000
      8 C20         5.0035   -1.1004   -5.6159 C.2        1 <1>        0.000
      9 C21         6.0779   -1.3083   -6.3912 C.2        1 <1>        0.000
     10 N5          7.1218   -0.4753   -6.6034 N.am       1 <1>        0.000
     11 C28         8.2420   -0.6749   -7.3381 C.2        1 <1>        0.000
     12 O4          9.1473    0.1275   -7.4899 O.2        1 <1>        0.000
     13 H           0.6461   -1.0280   -7.3409 H.spc      1 <1>        0.000
     14 H           1.2175   -3.5583   -5.7312 H.spc      1 <1>        0.000
     15 H          -0.8892   -3.3721   -4.8886 H.spc      1 <1>        0.000
     16 H          -1.4256   -1.0506   -6.6618 H.spc      1 <1>        0.000
     17 H           4.9059   -0.1812   -5.0383 H.spc      1 <1>        0.000
     18 H           6.1140   -2.2644   -6.9135 H.spc      1 <1>        0.000
     19 H           7.0562    0.4333   -6.1445 H.spc      1 <1>        0.000
     20 H           8.3431   -1.6383   -7.8379 H.spc      1 <1>        0.000
@<TRIPOS>BOND
     1    6    7 2  
     2   10   11 am 
     3    9   10 1  
     4    8    9 2  
     5    5    6 am 
     6    4    5 1  
     7    1    2 1  
     8    1    8 1  
     9    2    3 1  
    10    3    4 2  
    11   11   12 2  
    12    3   13 1  
    13    4   14 1  
    14    5   15 1  
    15    6   16 1  
    16    8   17 1  
    17    9   18 1  
    18   10   19 1  
    19   11   20 1  
# Name:          frag3-195-6/31924 -- energy: -2.670840
# Creation time: Sat Jun  5 12:52:18 2010


@<TRIPOS>MOLECULE
frag3-195-6/31924 -- energy: -2.670840
   20    19     1     1     1
SMALL
USER_CHARGES


@<TRIPOS>ATOM
      1 S1          2.7704   -4.3033   -5.4312 S.3        1 <1>        0.000
      2 S2          4.2193   -4.2659   -6.8466 S.3        1 <1>        0.000
      3 C1          5.2782   -2.9923   -6.1859 C.2        1 <1>        0.000
      4 C2          5.0789   -1.7174   -6.5504 C.2        1 <1>        0.000
      5 N1          5.7459   -0.6149   -6.1305 N.am       1 <1>        0.000
      6 C9          5.5787    0.6721   -6.5132 C.2        1 <1>        0.000
      7 O1          4.6502    1.1006   -7.1796 O.2        1 <1>        0.000
      8 C20         2.0397   -2.6946   -5.6655 C.2        1 <1>        0.000
      9 C21         1.3635   -2.4476   -6.7977 C.2        1 <1>        0.000
     10 N5          0.7189   -1.3102   -7.1486 N.am       1 <1>        0.000
     11 C28         0.5754   -0.1647   -6.4389 C.2        1 <1>        0.000
     12 O4          0.9956    0.0283   -5.3090 O.2        1 <1>        0.000
     13 H           6.0796   -3.2477   -5.4926 H.spc      1 <1>        0.000
     14 H           4.2818   -1.5466   -7.2740 H.spc      1 <1>        0.000
     15 H           6.4714   -0.7771   -5.4321 H.spc      1 <1>        0.000
     16 H           6.3386    1.3878   -6.1994 H.spc      1 <1>        0.000
     17 H           2.1406   -1.9239   -4.9013 H.spc      1 <1>        0.000
     18 H           1.3290   -3.2610   -7.5224 H.spc      1 <1>        0.000
     19 H           0.2828   -1.3161   -8.0706 H.spc      1 <1>        0.000
     20 H           0.0389    0.6544   -6.9178 H.spc      1 <1>        0.000
@<TRIPOS>BOND
     1    6    7 2  
     2   10   11 am 
     3    9   10 1  
     4    8    9 2  
     5    5    6 am 
     6    4    5 1  
     7    1    2 1  
     8    1    8 1  
     9    2    3 1  
    10    3    4 2  
    11   11   12 2  
    12    3   13 1  
    13    4   14 1  
    14    5   15 1  
    15    6   16 1  
    16    8   17 1  
    17    9   18 1  
    18   10   19 1  
    19   11   20 1  
# Name:          frag3-195-6/31924 -- energy: -1.723844
# Creation time: Sat Jun  5 12:52:18 2010


@<TRIPOS>MOLECULE
frag3-195-6/31924 -- energy: -1.723844
   20    19     1     1     1
SMALL
USER_CHARGES


@<TRIPOS>ATOM
      1 S1          3.1218   -3.4935   -5.4968 S.3        1 <1>        0.000
      2 S2          4.0135   -3.4179   -7.3098 S.3        1 <1>        0.000
      3 C1          4.9594   -1.9241   -7.1490 C.2        1 <1>        0.000
      4 C2          6.0006   -1.8910   -6.3010 C.2        1 <1>        0.000
      5 N1          6.8565   -0.8702   -6.0627 N.am       1 <1>        0.000
      6 C9          6.9310    0.3261   -6.6922 C.2        1 <1>        0.000
      7 O1          6.1955    0.7056   -7.5903 O.2        1 <1>        0.000
      8 C20         1.5618   -2.7260   -5.8529 C.2        1 <1>        0.000
      9 C21         1.1097   -1.7427   -5.0651 C.2        1 <1>        0.000
     10 N5         -0.0276   -1.0226   -5.1932 N.am       1 <1>        0.000
     11 C28        -0.8941   -0.9894   -6.2346 C.2        1 <1>        0.000
     12 O4         -0.8136   -1.6642   -7.2495 O.2        1 <1>        0.000
     13 H           4.6976   -1.0418   -7.7331 H.spc      1 <1>        0.000
     14 H           6.1790   -2.8033   -5.7318 H.spc      1 <1>        0.000
     15 H           7.5316   -1.0214   -5.3132 H.spc      1 <1>        0.000
     16 H           7.7158    1.0102   -6.3693 H.spc      1 <1>        0.000
     17 H           0.9739   -3.0541   -6.7101 H.spc      1 <1>        0.000
     18 H           1.7386   -1.4903   -4.2114 H.spc      1 <1>        0.000
     19 H          -0.2647   -0.4253   -4.4011 H.spc      1 <1>        0.000
     20 H          -1.7358   -0.3009   -6.1601 H.spc      1 <1>        0.000
@<TRIPOS>BOND
     1    6    7 2  
     2   10   11 am 
     3    9   10 1  
     4    8    9 2  
     5    5    6 am 
     6    4    5 1  
     7    1    2 1  
     8    1    8 1  
     9    2    3 1  
    10    3    4 2  
    11   11   12 2  
    12    3   13 1  
    13    4   14 1  
    14    5   15 1  
    15    6   16 1  
    16    8   17 1  
    17    9   18 1  
    18   10   19 1  
    19   11   20 1  
# Name:          frag3-195-6/31924 -- energy: -2.341228
# Creation time: Sat Jun  5 12:52:18 2010


@<TRIPOS>MOLECULE
frag3-195-6/31924 -- energy: -2.341228
   20    19     1     1     1
SMALL
USER_CHARGES


@<TRIPOS>ATOM
      1 S1          3.3160   -2.8112   -4.4525 S.3        1 <1>        0.000
      2 S2          4.1075   -3.9766   -5.9079 S.3        1 <1>        0.000
      3 C1          4.4588   -2.7452   -7.1490 C.2        1 <1>        0.000
      4 C2          5.3066   -1.7470   -6.8568 C.2        1 <1>        0.000
      5 N1          5.7248   -0.7437   -7.6662 N.am       1 <1>        0.000
      6 C9          6.4976    0.3240   -7.3601 C.2        1 <1>        0.000
      7 O1          7.0488    0.5184   -6.2887 O.2        1 <1>        0.000
      8 C20         1.7731   -2.3405   -5.2102 C.2        1 <1>        0.000
      9 C21         1.6242   -1.0891   -5.6667 C.2        1 <1>        0.000
     10 N5          0.5502   -0.5564   -6.2957 N.am       1 <1>        0.000
     11 C28        -0.5940   -1.1697   -6.6844 C.2        1 <1>        0.000
     12 O4         -0.7991   -2.3728   -6.6588 O.2        1 <1>        0.000
     13 H           3.9911   -2.8026   -8.1319 H.spc      1 <1>        0.000
     14 H           5.7084   -1.7425   -5.8436 H.spc      1 <1>        0.000
     15 H           5.4155   -0.8011   -8.6365 H.spc      1 <1>        0.000
     16 H           6.6401    1.0750   -8.1372 H.spc      1 <1>        0.000
     17 H           0.9606   -3.0614   -5.3013 H.spc      1 <1>        0.000
     18 H           2.4702   -0.4192   -5.5129 H.spc      1 <1>        0.000
     19 H           0.6103    0.4401   -6.5051 H.spc      1 <1>        0.000
     20 H          -1.4002   -0.5344   -7.0513 H.spc      1 <1>        0.000
@<TRIPOS>BOND
     1    6    7 2  
     2   10   11 am 
     3    9   10 1  
     4    8    9 2  
     5    5    6 am 
     6    4    5 1  
     7    1    2 1  
     8    1    8 1  
     9    2    3 1  
    10    3    4 2  
    11   11   12 2  
    12    3   13 1  
    13    4   14 1  
    14    5   15 1  
    15    6   16 1  
    16    8   17 1  
    17    9   18 1  
    18   10   19 1  
    19   11   20 1  
# Name:          frag3-195-6/31924 -- energy: -1.628524
# Creation time: Sat Jun  5 12:52:18 2010


@<TRIPOS>MOLECULE
frag3-195-6/31924 -- energy: -1.628524
   20    19     1     1     1
SMALL
USER_CHARGES


@<TRIPOS>ATOM
      1 S1          4.3465   -3.3982   -6.3227 S.3        1 <1>        0.000
      2 S2          2.9259   -3.2360   -7.7542 S.3        1 <1>        0.000
      3 C1          1.4504   -3.4316   -6.7751 C.2        1 <1>        0.000
      4 C2          0.7596   -2.3448   -6.4040 C.2        1 <1>        0.000
      5 N1         -0.3943   -2.2917   -5.6943 N.am       1 <1>        0.000
      6 C9         -1.1269   -1.2071   -5.3509 C.2        1 <1>        0.000
      7 O1         -0.8593   -0.0504   -5.6337 O.2        1 <1>        0.000
      8 C20         5.2808   -1.9081   -6.6006 C.2        1 <1>        0.000
      9 C21         5.9298   -1.3422   -5.5753 C.2        1 <1>        0.000
     10 N5          6.7095   -0.2353   -5.5947 N.am       1 <1>        0.000
     11 C28         7.1211    0.4923   -6.6613 C.2        1 <1>        0.000
     12 O4          6.8713    0.2433   -7.8300 O.2        1 <1>        0.000
     13 H           1.1129   -4.4254   -6.4808 H.spc      1 <1>        0.000
     14 H           1.1768   -1.3856   -6.7105 H.spc      1 <1>        0.000
     15 H          -0.7591   -3.1897   -5.3766 H.spc      1 <1>        0.000
     16 H          -2.0339   -1.3814   -4.7720 H.spc      1 <1>        0.000
     17 H           5.3239   -1.4617   -7.5941 H.spc      1 <1>        0.000
     18 H           5.8168   -1.8317   -4.6080 H.spc      1 <1>        0.000
     19 H           7.0300    0.0952   -4.6845 H.spc      1 <1>        0.000
     20 H           7.7270    1.3754   -6.4583 H.spc      1 <1>        0.000
@<TRIPOS>BOND
     1    6    7 2  
     2   10   11 am 
     3    9   10 1  
     4    8    9 2  
     5    5    6 am 
     6    4    5 1  
     7    1    2 1  
     8    1    8 1  
     9    2    3 1  
    10    3    4 2  
    11   11   12 2  
    12    3   13 1  
    13    4   14 1  
    14    5   15 1  
    15    6   16 1  
    16    8   17 1  
    17    9   18 1  
    18   10   19 1  
    19   11   20 1  
# Name:          frag3-195-6/31924 -- energy: -2.179941
# Creation time: Sat Jun  5 12:52:18 2010


@<TRIPOS>MOLECULE
frag3-195-6/31924 -- energy: -2.179941
   20    19     1     1     1
SMALL
USER_CHARGES


@<TRIPOS>ATOM
      1 S1          3.8414   -3.5935   -6.1908 S.3        1 <1>        0.000
      2 S2          2.9576   -2.8453   -4.5302 S.3        1 <1>        0.000
      3 C1          1.3807   -2.3627   -5.1933 C.2        1 <1>        0.000
      4 C2          1.3014   -1.2938   -6.0016 C.2        1 <1>        0.000
      5 N1          0.2099   -0.7996   -6.6321 N.am       1 <1>        0.000
      6 C9         -1.0372   -1.3240   -6.6866 C.2        1 <1>        0.000
      7 O1         -1.3741   -2.4077   -6.2358 O.2        1 <1>        0.000
      8 C20         4.7558   -2.1777   -6.7539 C.2        1 <1>        0.000
      9 C21         6.0113   -1.9952   -6.3195 C.2        1 <1>        0.000
     10 N5          6.8685   -1.0060   -6.6483 N.am       1 <1>        0.000
     11 C28         6.6394    0.1166   -7.3716 C.2        1 <1>        0.000
     12 O4          7.4600    0.9790   -7.6331 O.2        1 <1>        0.000
     13 H           0.4841   -2.9308   -4.9453 H.spc      1 <1>        0.000
     14 H           2.2338   -0.7556   -6.1719 H.spc      1 <1>        0.000
     15 H           0.3443    0.0805   -7.1298 H.spc      1 <1>        0.000
     16 H          -1.8072   -0.7270   -7.1753 H.spc      1 <1>        0.000
     17 H           4.3018   -1.4664   -7.4439 H.spc      1 <1>        0.000
     18 H           6.3855   -2.7371   -5.6140 H.spc      1 <1>        0.000
     19 H           7.8220   -1.1193   -6.3042 H.spc      1 <1>        0.000
     20 H           5.6292    0.2616   -7.7545 H.spc      1 <1>        0.000
@<TRIPOS>BOND
     1    6    7 2  
     2   10   11 am 
     3    9   10 1  
     4    8    9 2  
     5    5    6 am 
     6    4    5 1  
     7    1    2 1  
     8    1    8 1  
     9    2    3 1  
    10    3    4 2  
    11   11   12 2  
    12    3   13 1  
    13    4   14 1  
    14    5   15 1  
    15    6   16 1  
    16    8   17 1  
    17    9   18 1  
    18   10   19 1  
    19   11   20 1  
# Name:          frag3-195-6/31924 -- energy: -1.460518
# Creation time: Sat Jun  5 12:52:18 2010


@<TRIPOS>MOLECULE
frag3-195-6/31924 -- energy: -1.460518
   20    19     1     1     1
SMALL
USER_CHARGES


@<TRIPOS>ATOM
      1 S1          2.8055   -2.1451   -7.1396 S.3        1 <1>        0.000
      2 S2          4.2569   -2.6318   -5.8150 S.3        1 <1>        0.000
      3 C1          5.6343   -1.7234   -6.4935 C.2        1 <1>        0.000
      4 C2          6.4709   -1.0862   -5.6632 C.2        1 <1>        0.000
      5 N1          7.5843   -0.3808   -5.9840 N.am       1 <1>        0.000
      6 C9          8.1295   -0.1802   -7.2069 C.2        1 <1>        0.000
      7 O1          7.6628   -0.5690   -8.2653 O.2        1 <1>        0.000
      8 C20         1.5450   -1.5235   -6.0411 C.2        1 <1>        0.000
      9 C21         0.2905   -1.9730   -6.1746 C.2        1 <1>        0.000
     10 N5         -0.7898   -1.6505   -5.4231 N.am       1 <1>        0.000
     11 C28        -2.0673   -2.0863   -5.5368 C.2        1 <1>        0.000
     12 O4         -2.5080   -2.7601   -6.4539 O.2        1 <1>        0.000
     13 H           5.7935   -1.6872   -7.5712 H.spc      1 <1>        0.000
     14 H           6.2275   -1.1413   -4.6022 H.spc      1 <1>        0.000
     15 H           8.0742    0.0549   -5.2026 H.spc      1 <1>        0.000
     16 H           9.0657    0.3764   -7.2498 H.spc      1 <1>        0.000
     17 H           1.7918   -0.7898   -5.2737 H.spc      1 <1>        0.000
     18 H           0.1181   -2.6825   -6.9839 H.spc      1 <1>        0.000
     19 H          -0.6172   -0.9878   -4.6671 H.spc      1 <1>        0.000
     20 H          -2.7605   -1.8119   -4.7417 H.spc      1 <1>        0.000
@<TRIPOS>BOND
     1    6    7 2  
     2   10   11 am 
     3    9   10 1  
     4    8    9 2  
     5    5    6 am 
     6    4    5 1  
     7    1    2 1  
     8    1    8 1  
     9    2    3 1  
    10    3    4 2  
    11   11   12 2  
    12    3   13 1  
    13    4   14 1  
    14    5   15 1  
    15    6   16 1  
    16    8   17 1  
    17    9   18 1  
    18   10   19 1  
    19   11   20 1  
# Name:          frag3-195-6/31924 -- energy: -2.059761
# Creation time: Sat Jun  5 12:52:19 2010


@<TRIPOS>MOLECULE
frag3-195-6/31924 -- energy: -2.059761
   20    19     1     1     1
SMALL
USER_CHARGES


@<TRIPOS>ATOM
      1 S1          4.2185   -3.2893   -5.7182 S.3        1 <1>        0.000
      2 S2          3.0306   -1.8385   -4.9525 S.3        1 <1>        0.000
      3 C1          1.8048   -1.7044   -6.2390 C.2        1 <1>        0.000
      4 C2          0.5086   -1.8269   -5.9243 C.2        1 <1>        0.000
      5 N1         -0.5637   -1.7239   -6.7474 N.am       1 <1>        0.000
      6 C9         -1.8651   -1.9775   -6.4770 C.2        1 <1>        0.000
      7 O1         -2.3108   -2.3297   -5.3968 O.2        1 <1>        0.000
      8 C20         5.6696   -2.3429   -6.1323 C.2        1 <1>        0.000
      9 C21         5.5375   -1.2576   -6.9106 C.2        1 <1>        0.000
     10 N5          6.5044   -0.3986   -7.3034 N.am       1 <1>        0.000
     11 C28         7.8138   -0.3724   -6.9551 C.2        1 <1>        0.000
     12 O4          8.6662    0.3516   -7.4403 O.2        1 <1>        0.000
     13 H           2.1066   -1.5246   -7.2709 H.spc      1 <1>        0.000
     14 H           0.2888   -2.0351   -4.8772 H.spc      1 <1>        0.000
     15 H          -0.3625   -1.4136   -7.6980 H.spc      1 <1>        0.000
     16 H          -2.5764   -1.8569   -7.2941 H.spc      1 <1>        0.000
     17 H           6.6496   -2.6406   -5.7594 H.spc      1 <1>        0.000
     18 H           4.5305   -1.0433   -7.2686 H.spc      1 <1>        0.000
     19 H           6.2074    0.3308   -7.9516 H.spc      1 <1>        0.000
     20 H           8.1332   -1.0596   -6.1716 H.spc      1 <1>        0.000
@<TRIPOS>BOND
     1    6    7 2  
     2   10   11 am 
     3    9   10 1  
     4    8    9 2  
     5    5    6 am 
     6    4    5 1  
     7    1    2 1  
     8    1    8 1  
     9    2    3 1  
    10    3    4 2  
    11   11   12 2  
    12    3   13 1  
    13    4   14 1  
    14    5   15 1  
    15    6   16 1  
    16    8   17 1  
    17    9   18 1  
    18   10   19 1  
    19   11   20 1  
# Name:          frag3-195-6/31924 -- energy: -1.645277
# Creation time: Sat Jun  5 12:52:19 2010


@<TRIPOS>MOLECULE
frag3-195-6/31924 -- energy: -1.645277
   20    19     1     1     1
SMALL
USER_CHARGES


@<TRIPOS>ATOM
      1 S1          3.2043   -3.1850   -5.6258 S.3        1 <1>        0.000
      2 S2          4.3926   -3.3123   -7.2598 S.3        1 <1>        0.000
      3 C1          5.3379   -1.8124   -7.0930 C.2        1 <1>        0.000
      4 C2          6.2423   -1.7167   -6.1056 C.2        1 <1>        0.000
      5 N1          7.0764   -0.6829   -5.8364 N.am       1 <1>        0.000
      6 C9          7.2686    0.4501   -6.5522 C.2        1 <1>        0.000
      7 O1          6.6814    0.7504   -7.5794 O.2        1 <1>        0.000
      8 C20         1.5921   -3.1912   -6.3809 C.2        1 <1>        0.000
      9 C21         0.6979   -2.2620   -6.0224 C.2        1 <1>        0.000
     10 N5         -0.5560   -2.0850   -6.5015 N.am       1 <1>        0.000
     11 C28        -1.5128   -1.2205   -6.0874 C.2        1 <1>        0.000
     12 O4         -1.4099   -0.4423   -5.1526 O.2        1 <1>        0.000
     13 H           5.1842   -0.9831   -7.7834 H.spc      1 <1>        0.000
     14 H           6.3147   -2.5757   -5.4386 H.spc      1 <1>        0.000
     15 H           7.6308   -0.7697   -4.9847 H.spc      1 <1>        0.000
     16 H           8.0117    1.1549   -6.1791 H.spc      1 <1>        0.000
     17 H           1.3360   -3.9434   -7.1270 H.spc      1 <1>        0.000
     18 H           1.0183   -1.5623   -5.2505 H.spc      1 <1>        0.000
     19 H          -0.8163   -2.6865   -7.2831 H.spc      1 <1>        0.000
     20 H          -2.4549   -1.2196   -6.6355 H.spc      1 <1>        0.000
@<TRIPOS>BOND
     1    6    7 2  
     2   10   11 am 
     3    9   10 1  
     4    8    9 2  
     5    5    6 am 
     6    4    5 1  
     7    1    2 1  
     8    1    8 1  
     9    2    3 1  
    10    3    4 2  
    11   11   12 2  
    12    3   13 1  
    13    4   14 1  
    14    5   15 1  
    15    6   16 1  
    16    8   17 1  
    17    9   18 1  
    18   10   19 1  
    19   11   20 1  
# Name:          frag3-195-6/31924 -- energy: -1.847749
# Creation time: Sat Jun  5 12:52:19 2010


@<TRIPOS>MOLECULE
frag3-195-6/31924 -- energy: -1.847749
   20    19     1     1     1
SMALL
USER_CHARGES


@<TRIPOS>ATOM
      1 S1          2.8777   -2.5095   -7.4025 S.3        1 <1>        0.000
      2 S2          3.7470   -2.9558   -5.6260 S.3        1 <1>        0.000
      3 C1          4.8840   -1.5946   -5.4724 C.2        1 <1>        0.000
      4 C2          5.8634   -1.4560   -6.3795 C.2        1 <1>        0.000
      5 N1          6.7944   -0.4781   -6.4606 N.am       1 <1>        0.000
      6 C9          7.7398   -0.2778   -7.4077 C.2        1 <1>        0.000
      7 O1          8.5911    0.5946   -7.3949 O.2        1 <1>        0.000
      8 C20         1.2385   -2.0711   -6.8670 C.2        1 <1>        0.000
      9 C21         0.5465   -2.9428   -6.1162 C.2        1 <1>        0.000
     10 N5         -0.6893   -2.7861   -5.5872 N.am       1 <1>        0.000
     11 C28        -1.4495   -1.6658   -5.5290 C.2        1 <1>        0.000
     12 O4         -1.1291   -0.5669   -5.9538 O.2        1 <1>        0.000
     13 H           4.7860   -0.8831   -4.6525 H.spc      1 <1>        0.000
     14 H           5.9151   -2.2282   -7.1470 H.spc      1 <1>        0.000
     15 H           6.7821    0.2035   -5.7019 H.spc      1 <1>        0.000
     16 H           7.7402   -0.9582   -8.2593 H.spc      1 <1>        0.000
     17 H           0.8034   -1.1108   -7.1439 H.spc      1 <1>        0.000
     18 H           1.0399   -3.8920   -5.9073 H.spc      1 <1>        0.000
     19 H          -1.1039   -3.6232   -5.1775 H.spc      1 <1>        0.000
     20 H          -2.4310   -1.7532   -5.0631 H.spc      1 <1>        0.000
@<TRIPOS>BOND
     1    6    7 2  
     2   10   11 am 
     3    9   10 1  
     4    8    9 2  
     5    5    6 am 
     6    4    5 1  
     7    1    2 1  
     8    1    8 1  
     9    2    3 1  
    10    3    4 2  
    11   11   12 2  
    12    3   13 1  
    13    4   14 1  
    14    5   15 1  
    15    6   16 1  
    16    8   17 1  
    17    9   18 1  
    18   10   19 1  
    19   11   20 1  
# Name:          frag3-195-6/31924 -- energy: -1.823389
# Creation time: Sat Jun  5 12:52:19 2010


@<TRIPOS>MOLECULE
frag3-195-6/31924 -- energy: -1.823389
   20    19     1     1     1
SMALL
USER_CHARGES


@<TRIPOS>ATOM
      1 S1          2.9360   -1.0923   -6.4253 S.3        1 <1>        0.000
      2 S2          3.9922   -2.0377   -4.9760 S.3        1 <1>        0.000
      3 C1          5.5039   -2.3896   -5.8626 C.2        1 <1>        0.000
      4 C2          6.2072   -1.3677   -6.3733 C.2        1 <1>        0.000
      5 N1          7.3875   -1.4255   -7.0409 N.am       1 <1>        0.000
      6 C9          8.1525   -0.4048   -7.4935 C.2        1 <1>        0.000
      7 O1          7.9116    0.7820   -7.3462 O.2        1 <1>        0.000
      8 C20         1.6169   -2.2680   -6.6901 C.2        1 <1>        0.000
      9 C21         0.3801   -1.9492   -6.2848 C.2        1 <1>        0.000
     10 N5         -0.7491   -2.6871   -6.4201 N.am       1 <1>        0.000
     11 C28        -2.0041   -2.4085   -5.9926 C.2        1 <1>        0.000
     12 O4         -2.3203   -1.4615   -5.2915 O.2        1 <1>        0.000
     13 H           5.8482   -3.4164   -5.9861 H.spc      1 <1>        0.000
     14 H           5.7806   -0.3741   -6.2359 H.spc      1 <1>        0.000
     15 H           7.7455   -2.3625   -7.2261 H.spc      1 <1>        0.000
     16 H           9.0613   -0.6654   -8.0359 H.spc      1 <1>        0.000
     17 H           1.8143   -3.2256   -7.1718 H.spc      1 <1>        0.000
     18 H           0.2691   -0.9849   -5.7889 H.spc      1 <1>        0.000
     19 H          -0.6386   -3.5741   -6.9114 H.spc      1 <1>        0.000
     20 H          -2.7986   -3.0880   -6.3012 H.spc      1 <1>        0.000
@<TRIPOS>BOND
     1    6    7 2  
     2   10   11 am 
     3    9   10 1  
     4    8    9 2  
     5    5    6 am 
     6    4    5 1  
     7    1    2 1  
     8    1    8 1  
     9    2    3 1  
    10    3    4 2  
    11   11   12 2  
    12    3   13 1  
    13    4   14 1  
    14    5   15 1  
    15    6   16 1  
    16    8   17 1  
    17    9   18 1  
    18   10   19 1  
    19   11   20 1  
# Name:          frag3-195-6/31924 -- energy: -1.469370
# Creation time: Sat Jun  5 12:52:19 2010


@<TRIPOS>MOLECULE
frag3-195-6/31924 -- energy: -1.469370
   20    19     1     1     1
SMALL
USER_CHARGES


@<TRIPOS>ATOM
      1 S1          3.0974   -2.7755   -5.1626 S.3        1 <1>        0.000
      2 S2          4.3832   -3.2506   -6.6516 S.3        1 <1>        0.000
      3 C1          5.3957   -1.7835   -6.6913 C.2        1 <1>        0.000
      4 C2          6.7196   -1.9065   -6.8589 C.2        1 <1>        0.000
      5 N1          7.6427   -0.9170   -6.9497 N.am       1 <1>        0.000
      6 C9          7.4452    0.4221   -6.9242 C.2        1 <1>        0.000
      7 O1          6.3687    0.9790   -6.7819 O.2        1 <1>        0.000
      8 C20         1.5345   -3.1259   -5.9453 C.2        1 <1>        0.000
      9 C21         0.5595   -2.2098   -5.8908 C.2        1 <1>        0.000
     10 N5         -0.6745   -2.2773   -6.4455 N.am       1 <1>        0.000
     11 C28        -1.7279   -1.4413   -6.2843 C.2        1 <1>        0.000
     12 O4         -1.7295   -0.4236   -5.6108 O.2        1 <1>        0.000
     13 H           4.9432   -0.7981   -6.5805 H.spc      1 <1>        0.000
     14 H           7.1007   -2.9252   -6.9310 H.spc      1 <1>        0.000
     15 H           8.6111   -1.2211   -7.0502 H.spc      1 <1>        0.000
     16 H           8.3232    1.0574   -7.0408 H.spc      1 <1>        0.000
     17 H           1.3748   -4.0728   -6.4611 H.spc      1 <1>        0.000
     18 H           0.7858   -1.3009   -5.3333 H.spc      1 <1>        0.000
     19 H          -0.8322   -3.0672   -7.0713 H.spc      1 <1>        0.000
     20 H          -2.6529   -1.6995   -6.8000 H.spc      1 <1>        0.000
@<TRIPOS>BOND
     1    6    7 2  
     2   10   11 am 
     3    9   10 1  
     4    8    9 2  
     5    5    6 am 
     6    4    5 1  
     7    1    2 1  
     8    1    8 1  
     9    2    3 1  
    10    3    4 2  
    11   11   12 2  
    12    3   13 1  
    13    4   14 1  
    14    5   15 1  
    15    6   16 1  
    16    8   17 1  
    17    9   18 1  
    18   10   19 1  
    19   11   20 1  
# Name:          frag3-195-6/31924 -- energy: -1.794063
# Creation time: Sat Jun  5 12:52:19 2010


@<TRIPOS>MOLECULE
frag3-195-6/31924 -- energy: -1.794063
   20    19     1     1     1
SMALL
USER_CHARGES


@<TRIPOS>ATOM
      1 S1          3.0902   -3.2697   -7.1937 S.3        1 <1>        0.000
      2 S2          4.2674   -3.4953   -5.5581 S.3        1 <1>        0.000
      3 C1          5.7859   -2.7613   -6.1552 C.2        1 <1>        0.000
      4 C2          5.8451   -1.4297   -6.3032 C.2        1 <1>        0.000
      5 N1          6.9088   -0.6885   -6.7048 N.am       1 <1>        0.000
      6 C9          6.9609    0.6354   -6.9816 C.2        1 <1>        0.000
      7 O1          7.9532    1.2486   -7.3364 O.2        1 <1>        0.000
      8 C20         1.4702   -3.2861   -6.4362 C.2        1 <1>        0.000
      9 C21         0.7687   -2.1449   -6.3962 C.2        1 <1>        0.000
     10 N5         -0.4777   -1.9611   -5.8959 N.am       1 <1>        0.000
     11 C28        -1.2024   -0.8194   -5.8114 C.2        1 <1>        0.000
     12 O4         -2.3558   -0.7380   -5.4243 O.2        1 <1>        0.000
     13 H           6.6472   -3.3851   -6.3943 H.spc      1 <1>        0.000
     14 H           4.9329   -0.8786   -6.0744 H.spc      1 <1>        0.000
     15 H           7.7863   -1.1972   -6.8124 H.spc      1 <1>        0.000
     16 H           6.0357    1.2024   -6.8784 H.spc      1 <1>        0.000
     17 H           1.0619   -4.2052   -6.0158 H.spc      1 <1>        0.000
     18 H           1.2561   -1.2638   -6.8137 H.spc      1 <1>        0.000
     19 H          -0.9331   -2.7984   -5.5327 H.spc      1 <1>        0.000
     20 H          -0.7124    0.1055   -6.1155 H.spc      1 <1>        0.000
@<TRIPOS>BOND
     1    6    7 2  
     2   10   11 am 
     3    9   10 1  
     4    8    9 2  
     5    5    6 am 
     6    4    5 1  
     7    1    2 1  
     8    1    8 1  
     9    2    3 1  
    10    3    4 2  
    11   11   12 2  
    12    3   13 1  
    13    4   14 1  
    14    5   15 1  
    15    6   16 1  
    16    8   17 1  
    17    9   18 1  
    18   10   19 1  
    19   11   20 1  
# Name:          frag3-195-6/31924 -- energy: -1.578285
# Creation time: Sat Jun  5 12:52:19 2010


@<TRIPOS>MOLECULE
frag3-195-6/31924 -- energy: -1.578285
   20    19     1     1     1
SMALL
USER_CHARGES


@<TRIPOS>ATOM
      1 S1          3.2113   -2.9115   -6.7439 S.3        1 <1>        0.000
      2 S2          4.6424   -3.0040   -5.3138 S.3        1 <1>        0.000
      3 C1          5.7575   -1.7395   -5.8904 C.2        1 <1>        0.000
      4 C2          6.1706   -1.7683   -7.1679 C.2        1 <1>        0.000
      5 N1          6.9795   -0.8840   -7.8014 N.am       1 <1>        0.000
      6 C9          7.5316    0.2508   -7.3112 C.2        1 <1>        0.000
      7 O1          7.2562    0.7709   -6.2419 O.2        1 <1>        0.000
      8 C20         1.7529   -2.6831   -5.7473 C.2        1 <1>        0.000
      9 C21         0.6473   -2.1840   -6.3128 C.2        1 <1>        0.000
     10 N5         -0.5563   -1.9677   -5.7355 N.am       1 <1>        0.000
     11 C28        -1.6799   -1.4331   -6.2706 C.2        1 <1>        0.000
     12 O4         -2.6984   -1.1564   -5.6600 O.2        1 <1>        0.000
     13 H           6.0993   -0.9542   -5.2162 H.spc      1 <1>        0.000
     14 H           5.8119   -2.6043   -7.7684 H.spc      1 <1>        0.000
     15 H           7.2008   -1.1017   -8.7730 H.spc      1 <1>        0.000
     16 H           8.2871    0.7423   -7.9242 H.spc      1 <1>        0.000
     17 H           1.7607   -2.9466   -4.6897 H.spc      1 <1>        0.000
     18 H           0.7267   -1.9196   -7.3673 H.spc      1 <1>        0.000
     19 H          -0.6283   -2.2471   -4.7572 H.spc      1 <1>        0.000
     20 H          -1.6730   -1.2325   -7.3420 H.spc      1 <1>        0.000
@<TRIPOS>BOND
     1    6    7 2  
     2   10   11 am 
     3    9   10 1  
     4    8    9 2  
     5    5    6 am 
     6    4    5 1  
     7    1    2 1  
     8    1    8 1  
     9    2    3 1  
    10    3    4 2  
    11   11   12 2  
    12    3   13 1  
    13    4   14 1  
    14    5   15 1  
    15    6   16 1  
    16    8   17 1  
    17    9   18 1  
    18   10   19 1  
    19   11   20 1  
# Name:          frag3-195-6/31924 -- energy: -1.763860
# Creation time: Sat Jun  5 12:52:19 2010


@<TRIPOS>MOLECULE
frag3-195-6/31924 -- energy: -1.763860
   20    19     1     1     1
SMALL
USER_CHARGES


@<TRIPOS>ATOM
      1 S1          3.1326   -3.2616   -5.1971 S.3        1 <1>        0.000
      2 S2          4.0342   -3.7624   -6.9389 S.3        1 <1>        0.000
      3 C1          5.6159   -2.9719   -6.7241 C.2        1 <1>        0.000
      4 C2          5.6968   -1.6352   -6.7986 C.2        1 <1>        0.000
      5 N1          6.7907   -0.8542   -6.6237 N.am       1 <1>        0.000
      6 C9          6.9083    0.4846   -6.7811 C.2        1 <1>        0.000
      7 O1          6.0581    1.2219   -7.2534 O.2        1 <1>        0.000
      8 C20         1.7176   -2.3607   -5.7931 C.2        1 <1>        0.000
      9 C21         0.6345   -2.2546   -5.0132 C.2        1 <1>        0.000
     10 N5         -0.5178   -1.5939   -5.2759 N.am       1 <1>        0.000
     11 C28        -0.8761   -0.9312   -6.4024 C.2        1 <1>        0.000
     12 O4         -0.1804   -0.7907   -7.3956 O.2        1 <1>        0.000
     13 H           6.5084   -3.5681   -6.5342 H.spc      1 <1>        0.000
     14 H           4.7683   -1.1124   -7.0281 H.spc      1 <1>        0.000
     15 H           7.6391   -1.3410   -6.3346 H.spc      1 <1>        0.000
     16 H           7.8426    0.9440   -6.4584 H.spc      1 <1>        0.000
     17 H           1.7328   -1.9009   -6.7813 H.spc      1 <1>        0.000
     18 H           0.6867   -2.7617   -4.0498 H.spc      1 <1>        0.000
     19 H          -1.2086   -1.5951   -4.5255 H.spc      1 <1>        0.000
     20 H          -1.8706   -0.4855   -6.4234 H.spc      1 <1>        0.000
@<TRIPOS>BOND
     1    6    7 2  
     2   10   11 am 
     3    9   10 1  
     4    8    9 2  
     5    5    6 am 
     6    4    5 1  
     7    1    2 1  
     8    1    8 1  
     9    2    3 1  
    10    3    4 2  
    11   11   12 2  
    12    3   13 1  
    13    4   14 1  
    14    5   15 1  
    15    6   16 1  
    16    8   17 1  
    17    9   18 1  
    18   10   19 1  
    19   11   20 1  
# Name:          frag3-195-6/31924 -- energy: -1.647996
# Creation time: Sat Jun  5 12:52:19 2010


@<TRIPOS>MOLECULE
frag3-195-6/31924 -- energy: -1.647996
   20    19     1     1     1
SMALL
USER_CHARGES


@<TRIPOS>ATOM
      1 S1          2.9591   -2.3677   -6.7449 S.3        1 <1>        0.000
      2 S2          4.2350   -2.1970   -5.1808 S.3        1 <1>        0.000
      3 C1          5.5843   -1.3297   -5.9599 C.2        1 <1>        0.000
      4 C2          6.3720   -1.9911   -6.8221 C.2        1 <1>        0.000
      5 N1          7.4139   -1.5027   -7.5397 N.am       1 <1>        0.000
      6 C9          7.9863   -0.2782   -7.4644 C.2        1 <1>        0.000
      7 O1          7.7023    0.5903   -6.6554 O.2        1 <1>        0.000
      8 C20         1.5825   -1.3978   -6.1590 C.2        1 <1>        0.000
      9 C21         0.3714   -1.9656   -6.0916 C.2        1 <1>        0.000
     10 N5         -0.7815   -1.4107   -5.6468 N.am       1 <1>        0.000
     11 C28        -2.0452   -1.8914   -5.7279 C.2        1 <1>        0.000
     12 O4         -2.3655   -2.9684   -6.2044 O.2        1 <1>        0.000
     13 H           5.7666   -0.2780   -5.7392 H.spc      1 <1>        0.000
     14 H           6.1471   -3.0484   -6.9625 H.spc      1 <1>        0.000
     15 H           7.8187   -2.1406   -8.2250 H.spc      1 <1>        0.000
     16 H           8.7679   -0.0482   -8.1885 H.spc      1 <1>        0.000
     17 H           1.7244   -0.3591   -5.8604 H.spc      1 <1>        0.000
     18 H           0.3056   -2.9977   -6.4359 H.spc      1 <1>        0.000
     19 H          -0.6845   -0.5054   -5.1871 H.spc      1 <1>        0.000
     20 H          -2.8440   -1.2630   -5.3341 H.spc      1 <1>        0.000
@<TRIPOS>BOND
     1    6    7 2  
     2   10   11 am 
     3    9   10 1  
     4    8    9 2  
     5    5    6 am 
     6    4    5 1  
     7    1    2 1  
     8    1    8 1  
     9    2    3 1  
    10    3    4 2  
    11   11   12 2  
    12    3   13 1  
    13    4   14 1  
    14    5   15 1  
    15    6   16 1  
    16    8   17 1  
    17    9   18 1  
    18   10   19 1  
    19   11   20 1  
# Name:          frag3-195-6/31924 -- energy: -3.003226
# Creation time: Sat Jun  5 12:52:19 2010


@<TRIPOS>MOLECULE
frag3-195-6/31924 -- energy: -3.003226
   20    19     1     1     1
SMALL
USER_CHARGES


@<TRIPOS>ATOM
      1 S1          2.9797   -4.2340   -5.4306 S.3        1 <1>        0.000
      2 S2          4.2487   -4.4095   -6.9996 S.3        1 <1>        0.000
      3 C1          5.3779   -3.0729   -6.6492 C.2        1 <1>        0.000
      4 C2          4.9472   -1.8071   -6.7593 C.2        1 <1>        0.000
      5 N1          5.6343   -0.6676   -6.4994 N.am       1 <1>        0.000
      6 C9          5.1936    0.6114   -6.5309 C.2        1 <1>        0.000
      7 O1          4.0831    0.9717   -6.8861 O.2        1 <1>        0.000
      8 C20         2.0127   -2.8247   -5.9405 C.2        1 <1>        0.000
      9 C21         1.9206   -1.7673   -5.1229 C.2        1 <1>        0.000
     10 N5          1.2662   -0.6023   -5.3439 N.am       1 <1>        0.000
     11 C28         0.6491   -0.1781   -6.4734 C.2        1 <1>        0.000
     12 O4          0.7016   -0.7295   -7.5611 O.2        1 <1>        0.000
     13 H           6.4047   -3.2823   -6.3495 H.spc      1 <1>        0.000
     14 H           3.9195   -1.6792   -7.0992 H.spc      1 <1>        0.000
     15 H           6.6147   -0.7909   -6.2462 H.spc      1 <1>        0.000
     16 H           5.8904    1.3864   -6.2116 H.spc      1 <1>        0.000
     17 H           1.5035   -2.8237   -6.9043 H.spc      1 <1>        0.000
     18 H           2.4337   -1.8552   -4.1653 H.spc      1 <1>        0.000
     19 H           1.2334    0.0424   -4.5541 H.spc      1 <1>        0.000
     20 H           0.0552    0.7333   -6.4047 H.spc      1 <1>        0.000
@<TRIPOS>BOND
     1    6    7 2  
     2   10   11 am 
     3    9   10 1  
     4    8    9 2  
     5    5    6 am 
     6    4    5 1  
     7    1    2 1  
     8    1    8 1  
     9    2    3 1  
    10    3    4 2  
    11   11   12 2  
    12    3   13 1  
    13    4   14 1  
    14    5   15 1  
    15    6   16 1  
    16    8   17 1  
    17    9   18 1  
    18   10   19 1  
    19   11   20 1  
# Name:          frag3-195-6/31924 -- energy: -2.285987
# Creation time: Sat Jun  5 12:52:19 2010


@<TRIPOS>MOLECULE
frag3-195-6/31924 -- energy: -2.285987
   20    19     1     1     1
SMALL
USER_CHARGES


@<TRIPOS>ATOM
      1 S1          4.2945   -3.6113   -6.3114 S.3        1 <1>        0.000
      2 S2          3.0571   -3.5022   -7.9098 S.3        1 <1>        0.000
      3 C1          1.7737   -2.4653   -7.2618 C.2        1 <1>        0.000
      4 C2          1.2145   -2.7666   -6.0766 C.2        1 <1>        0.000
      5 N1          0.2636   -2.0891   -5.4034 N.am       1 <1>        0.000
      6 C9         -0.4637   -1.0211   -5.8071 C.2        1 <1>        0.000
      7 O1         -1.2591   -0.3950   -5.1292 O.2        1 <1>        0.000
      8 C20         5.2984   -2.1739   -6.5639 C.2        1 <1>        0.000
      9 C21         4.8982   -0.9877   -6.0822 C.2        1 <1>        0.000
     10 N5          5.5314    0.2036   -6.1519 N.am       1 <1>        0.000
     11 C28         6.7946    0.4654   -6.5671 C.2        1 <1>        0.000
     12 O4          7.6113   -0.3667   -6.9325 O.2        1 <1>        0.000
     13 H           1.4404   -1.5902   -7.8197 H.spc      1 <1>        0.000
     14 H           1.5772   -3.6765   -5.5985 H.spc      1 <1>        0.000
     15 H           0.0649   -2.4270   -4.4617 H.spc      1 <1>        0.000
     16 H          -0.3245   -0.6899   -6.8362 H.spc      1 <1>        0.000
     17 H           6.2388   -2.2531   -7.1092 H.spc      1 <1>        0.000
     18 H           3.9373   -0.9846   -5.5677 H.spc      1 <1>        0.000
     19 H           4.9870    1.0126   -5.8526 H.spc      1 <1>        0.000
     20 H           7.1094    1.5089   -6.5758 H.spc      1 <1>        0.000
@<TRIPOS>BOND
     1    6    7 2  
     2   10   11 am 
     3    9   10 1  
     4    8    9 2  
     5    5    6 am 
     6    4    5 1  
     7    1    2 1  
     8    1    8 1  
     9    2    3 1  
    10    3    4 2  
    11   11   12 2  
    12    3   13 1  
    13    4   14 1  
    14    5   15 1  
    15    6   16 1  
    16    8   17 1  
    17    9   18 1  
    18   10   19 1  
    19   11   20 1  
# Name:          frag3-195-6/31924 -- energy: -1.851811
# Creation time: Sat Jun  5 12:52:19 2010


@<TRIPOS>MOLECULE
frag3-195-6/31924 -- energy: -1.851811
   20    19     1     1     1
SMALL
USER_CHARGES


@<TRIPOS>ATOM
      1 S1          2.8078   -1.0254   -7.1604 S.3        1 <1>        0.000
      2 S2          3.5755   -1.3139   -5.3052 S.3        1 <1>        0.000
      3 C1          5.1766   -0.5398   -5.5001 C.2        1 <1>        0.000
      4 C2          6.0873   -1.1295   -6.2885 C.2        1 <1>        0.000
      5 N1          7.3326   -0.6825   -6.5913 N.am       1 <1>        0.000
      6 C9          8.2389   -1.2168   -7.4430 C.2        1 <1>        0.000
      7 O1          9.3577   -0.7812   -7.6548 O.2        1 <1>        0.000
      8 C20         1.4266   -2.1611   -7.1226 C.2        1 <1>        0.000
      9 C21         0.3965   -1.8901   -6.3084 C.2        1 <1>        0.000
     10 N5         -0.7456   -2.6049   -6.1594 N.am       1 <1>        0.000
     11 C28        -1.7937   -2.3741   -5.3322 C.2        1 <1>        0.000
     12 O4         -2.8457   -2.9905   -5.3310 O.2        1 <1>        0.000
     13 H           5.4077    0.3940   -4.9875 H.spc      1 <1>        0.000
     14 H           5.7933   -2.0778   -6.7383 H.spc      1 <1>        0.000
     15 H           7.6245    0.1699   -6.1132 H.spc      1 <1>        0.000
     16 H           7.9428   -2.1141   -7.9865 H.spc      1 <1>        0.000
     17 H           1.4224   -3.0540   -7.7478 H.spc      1 <1>        0.000
     18 H           0.4878   -0.9927   -5.6965 H.spc      1 <1>        0.000
     19 H          -0.8273   -3.4310   -6.7521 H.spc      1 <1>        0.000
     20 H          -1.6873   -1.5685   -4.6057 H.spc      1 <1>        0.000
@<TRIPOS>BOND
     1    6    7 2  
     2   10   11 am 
     3    9   10 1  
     4    8    9 2  
     5    5    6 am 
     6    4    5 1  
     7    1    2 1  
     8    1    8 1  
     9    2    3 1  
    10    3    4 2  
    11   11   12 2  
    12    3   13 1  
    13    4   14 1  
    14    5   15 1  
    15    6   16 1  
    16    8   17 1  
    17    9   18 1  
    18   10   19 1  
    19   11   20 1  
# Name:          frag3-195-6/31924 -- energy: -1.782441
# Creation time: Sat Jun  5 12:52:19 2010


@<TRIPOS>MOLECULE
frag3-195-6/31924 -- energy: -1.782441
   20    19     1     1     1
SMALL
USER_CHARGES


@<TRIPOS>ATOM
      1 S1          4.1030   -3.1787   -6.2343 S.3        1 <1>        0.000
      2 S2          2.9840   -2.9838   -7.9086 S.3        1 <1>        0.000
      3 C1          1.5250   -2.2254   -7.2437 C.2        1 <1>        0.000
      4 C2          0.9285   -2.7726   -6.1703 C.2        1 <1>        0.000
      5 N1         -0.1548   -2.3286   -5.4998 N.am       1 <1>        0.000
      6 C9         -0.9407   -1.2602   -5.7715 C.2        1 <1>        0.000
      7 O1         -1.8593   -0.8514   -5.0833 O.2        1 <1>        0.000
      8 C20         5.3798   -1.9868   -6.5335 C.2        1 <1>        0.000
      9 C21         5.6039   -1.0131   -5.6424 C.2        1 <1>        0.000
     10 N5          6.5414   -0.0399   -5.6824 N.am       1 <1>        0.000
     11 C28         7.4281    0.2393   -6.6683 C.2        1 <1>        0.000
     12 O4          7.4757   -0.3085   -7.7591 O.2        1 <1>        0.000
     13 H           1.1160   -1.3244   -7.7009 H.spc      1 <1>        0.000
     14 H           1.3771   -3.6919   -5.7938 H.spc      1 <1>        0.000
     15 H          -0.4172   -2.8712   -4.6769 H.spc      1 <1>        0.000
     16 H          -0.7322   -0.7148   -6.6919 H.spc      1 <1>        0.000
     17 H           5.9811   -2.0463   -7.4407 H.spc      1 <1>        0.000
     18 H           4.9462   -1.0038   -4.7733 H.spc      1 <1>        0.000
     19 H           6.5874    0.5642   -4.8618 H.spc      1 <1>        0.000
     20 H           8.1624    1.0203   -6.4709 H.spc      1 <1>        0.000
@<TRIPOS>BOND
     1    6    7 2  
     2   10   11 am 
     3    9   10 1  
     4    8    9 2  
     5    5    6 am 
     6    4    5 1  
     7    1    2 1  
     8    1    8 1  
     9    2    3 1  
    10    3    4 2  
    11   11   12 2  
    12    3   13 1  
    13    4   14 1  
    14    5   15 1  
    15    6   16 1  
    16    8   17 1  
    17    9   18 1  
    18   10   19 1  
    19   11   20 1  
# Name:          frag3-195-6/31924 -- energy: -1.959937
# Creation time: Sat Jun  5 12:52:19 2010


@<TRIPOS>MOLECULE
frag3-195-6/31924 -- energy: -1.959937
   20    19     1     1     1
SMALL
USER_CHARGES


@<TRIPOS>ATOM
      1 S1          3.2596   -3.0290   -5.4069 S.3        1 <1>        0.000
      2 S2          4.1385   -3.4501   -7.1804 S.3        1 <1>        0.000
      3 C1          5.5503   -2.3738   -7.1084 C.2        1 <1>        0.000
      4 C2          5.3777   -1.0798   -6.7915 C.2        1 <1>        0.000
      5 N1          6.3216   -0.1243   -6.6463 N.am       1 <1>        0.000
      6 C9          7.6459   -0.1940   -6.9185 C.2        1 <1>        0.000
      7 O1          8.4174    0.7481   -6.9667 O.2        1 <1>        0.000
      8 C20         1.6722   -2.4366   -5.9395 C.2        1 <1>        0.000
      9 C21         0.6512   -2.4194   -5.0747 C.2        1 <1>        0.000
     10 N5         -0.6095   -1.9848   -5.2848 N.am       1 <1>        0.000
     11 C28        -1.1368   -1.3964   -6.3858 C.2        1 <1>        0.000
     12 O4         -2.2735   -0.9698   -6.4933 O.2        1 <1>        0.000
     13 H           6.5475   -2.7600   -7.3195 H.spc      1 <1>        0.000
     14 H           4.3477   -0.7611   -6.6316 H.spc      1 <1>        0.000
     15 H           5.9922    0.7699   -6.2827 H.spc      1 <1>        0.000
     16 H           8.0601   -1.1834   -7.1123 H.spc      1 <1>        0.000
     17 H           1.5307   -2.0897   -6.9631 H.spc      1 <1>        0.000
     18 H           0.8638   -2.8039   -4.0772 H.spc      1 <1>        0.000
     19 H          -1.2551   -2.1178   -4.5064 H.spc      1 <1>        0.000
     20 H          -0.4854   -1.2955   -7.2539 H.spc      1 <1>        0.000
@<TRIPOS>BOND
     1    6    7 2  
     2   10   11 am 
     3    9   10 1  
     4    8    9 2  
     5    5    6 am 
     6    4    5 1  
     7    1    2 1  
     8    1    8 1  
     9    2    3 1  
    10    3    4 2  
    11   11   12 2  
    12    3   13 1  
    13    4   14 1  
    14    5   15 1  
    15    6   16 1  
    16    8   17 1  
    17    9   18 1  
    18   10   19 1  
    19   11   20 1  
# Name:          frag3-195-6/31924 -- energy: -1.701017
# Creation time: Sat Jun  5 12:52:19 2010


@<TRIPOS>MOLECULE
frag3-195-6/31924 -- energy: -1.701017
   20    19     1     1     1
SMALL
USER_CHARGES


@<TRIPOS>ATOM
      1 S1          4.3952   -2.8204   -5.4288 S.3        1 <1>        0.000
      2 S2          2.9925   -2.1441   -6.7240 S.3        1 <1>        0.000
      3 C1          1.5116   -2.3850   -5.7624 C.2        1 <1>        0.000
      4 C2          0.3260   -2.0556   -6.2901 C.2        1 <1>        0.000
      5 N1         -0.9016   -2.1980   -5.7359 N.am       1 <1>        0.000
      6 C9         -2.0999   -1.7799   -6.2055 C.2        1 <1>        0.000
      7 O1         -3.1822   -1.9886   -5.6852 O.2        1 <1>        0.000
      8 C20         5.8711   -2.1241   -6.1436 C.2        1 <1>        0.000
      9 C21         5.9054   -0.8082   -6.4043 C.2        1 <1>        0.000
     10 N5          6.9338   -0.0938   -6.9152 N.am       1 <1>        0.000
     11 C28         8.1891   -0.5047   -7.2180 C.2        1 <1>        0.000
     12 O4          9.0737    0.1926   -7.6838 O.2        1 <1>        0.000
     13 H           1.5704   -2.7964   -4.7547 H.spc      1 <1>        0.000
     14 H           0.3519   -1.6191   -7.2886 H.spc      1 <1>        0.000
     15 H          -0.9263   -2.6878   -4.8415 H.spc      1 <1>        0.000
     16 H          -2.0970   -1.2052   -7.1317 H.spc      1 <1>        0.000
     17 H           6.7312   -2.7559   -6.3653 H.spc      1 <1>        0.000
     18 H           4.9975   -0.2493   -6.1776 H.spc      1 <1>        0.000
     19 H           6.7374    0.8903   -7.0979 H.spc      1 <1>        0.000
     20 H           8.4289   -1.5509   -7.0283 H.spc      1 <1>        0.000
@<TRIPOS>BOND
     1    6    7 2  
     2   10   11 am 
     3    9   10 1  
     4    8    9 2  
     5    5    6 am 
     6    4    5 1  
     7    1    2 1  
     8    1    8 1  
     9    2    3 1  
    10    3    4 2  
    11   11   12 2  
    12    3   13 1  
    13    4   14 1  
    14    5   15 1  
    15    6   16 1  
    16    8   17 1  
    17    9   18 1  
    18   10   19 1  
    19   11   20 1  
# Name:          frag3-195-6/31924 -- energy: -1.733852
# Creation time: Sat Jun  5 12:52:19 2010


@<TRIPOS>MOLECULE
frag3-195-6/31924 -- energy: -1.733852
   20    19     1     1     1
SMALL
USER_CHARGES


@<TRIPOS>ATOM
      1 S1          3.1898   -2.5623   -6.9407 S.3        1 <1>        0.000
      2 S2          4.5092   -3.5378   -5.7515 S.3        1 <1>        0.000
      3 C1          5.5972   -2.1934   -5.3093 C.2        1 <1>        0.000
      4 C2          6.0968   -1.4163   -6.2825 C.2        1 <1>        0.000
      5 N1          6.9017   -0.3325   -6.1494 N.am       1 <1>        0.000
      6 C9          7.3812    0.4874   -7.1134 C.2        1 <1>        0.000
      7 O1          7.1606    0.3828   -8.3088 O.2        1 <1>        0.000
      8 C20         1.6462   -3.0238   -6.1744 C.2        1 <1>        0.000
      9 C21         0.6013   -2.1920   -6.2682 C.2        1 <1>        0.000
     10 N5         -0.6507   -2.3770   -5.7838 N.am       1 <1>        0.000
     11 C28        -1.7115   -1.5353   -5.8217 C.2        1 <1>        0.000
     12 O4         -1.7073   -0.4098   -6.2932 O.2        1 <1>        0.000
     13 H           5.8515   -2.0068   -4.2659 H.spc      1 <1>        0.000
     14 H           5.8232   -1.6885   -7.3019 H.spc      1 <1>        0.000
     15 H           7.1830   -0.1053   -5.1957 H.spc      1 <1>        0.000
     16 H           8.0191    1.3118   -6.7946 H.spc      1 <1>        0.000
     17 H           1.5552   -3.9684   -5.6381 H.spc      1 <1>        0.000
     18 H           0.7786   -1.2553   -6.7966 H.spc      1 <1>        0.000
     19 H          -0.8174   -3.2739   -5.3276 H.spc      1 <1>        0.000
     20 H          -2.6482   -1.8938   -5.3948 H.spc      1 <1>        0.000
@<TRIPOS>BOND
     1    6    7 2  
     2   10   11 am 
     3    9   10 1  
     4    8    9 2  
     5    5    6 am 
     6    4    5 1  
     7    1    2 1  
     8    1    8 1  
     9    2    3 1  
    10    3    4 2  
    11   11   12 2  
    12    3   13 1  
    13    4   14 1  
    14    5   15 1  
    15    6   16 1  
    16    8   17 1  
    17    9   18 1  
    18   10   19 1  
    19   11   20 1  
# Name:          frag3-195-6/31924 -- energy: -1.988084
# Creation time: Sat Jun  5 12:52:19 2010


@<TRIPOS>MOLECULE
frag3-195-6/31924 -- energy: -1.988084
   20    19     1     1     1
SMALL
USER_CHARGES


@<TRIPOS>ATOM
      1 S1          4.1779   -3.7943   -7.4515 S.3        1 <1>        0.000
      2 S2          3.0723   -4.0424   -5.7761 S.3        1 <1>        0.000
      3 C1          1.7905   -2.8382   -6.0513 C.2        1 <1>        0.000
      4 C2          1.4243   -2.0192   -5.0566 C.2        1 <1>        0.000
      5 N1          0.5058   -1.0241   -5.0858 N.am       1 <1>        0.000
      6 C9         -0.1828   -0.5482   -6.1499 C.2        1 <1>        0.000
      7 O1         -0.0221   -0.8880   -7.3115 O.2        1 <1>        0.000
      8 C20         4.7773   -2.1361   -7.2106 C.2        1 <1>        0.000
      9 C21         5.8626   -1.9383   -6.4481 C.2        1 <1>        0.000
     10 N5          6.4824   -0.7688   -6.1677 N.am       1 <1>        0.000
     11 C28         6.0741    0.4930   -6.4456 C.2        1 <1>        0.000
     12 O4          5.0522    0.7946   -7.0421 O.2        1 <1>        0.000
     13 H           1.3057   -2.7676   -7.0250 H.spc      1 <1>        0.000
     14 H           1.9294   -2.1730   -4.1030 H.spc      1 <1>        0.000
     15 H           0.3075   -0.5758   -4.1913 H.spc      1 <1>        0.000
     16 H          -0.9470    0.2036   -5.9524 H.spc      1 <1>        0.000
     17 H           4.2689   -1.2921   -7.6768 H.spc      1 <1>        0.000
     18 H           6.2994   -2.8301   -5.9986 H.spc      1 <1>        0.000
     19 H           7.3761   -0.8474   -5.6824 H.spc      1 <1>        0.000
     20 H           6.7128    1.3090   -6.1076 H.spc      1 <1>        0.000
@<TRIPOS>BOND
     1    6    7 2  
     2   10   11 am 
     3    9   10 1  
     4    8    9 2  
     5    5    6 am 
     6    4    5 1  
     7    1    2 1  
     8    1    8 1  
     9    2    3 1  
    10    3    4 2  
    11   11   12 2  
    12    3   13 1  
    13    4   14 1  
    14    5   15 1  
    15    6   16 1  
    16    8   17 1  
    17    9   18 1  
    18   10   19 1  
    19   11   20 1  
# Name:          frag3-195-6/31924 -- energy: -1.697568
# Creation time: Sat Jun  5 12:52:19 2010


@<TRIPOS>MOLECULE
frag3-195-6/31924 -- energy: -1.697568
   20    19     1     1     1
SMALL
USER_CHARGES


@<TRIPOS>ATOM
      1 S1          2.9235   -1.7753   -4.2434 S.3        1 <1>        0.000
      2 S2          4.2115   -3.0655   -5.1155 S.3        1 <1>        0.000
      3 C1          5.3610   -1.9346   -5.8654 C.2        1 <1>        0.000
      4 C2          5.9434   -2.2533   -7.0283 C.2        1 <1>        0.000
      5 N1          6.8076   -1.5126   -7.7627 N.am       1 <1>        0.000
      6 C9          7.0460   -0.1819   -7.6893 C.2        1 <1>        0.000
      7 O1          6.3598    0.6320   -7.0913 O.2        1 <1>        0.000
      8 C20         1.4891   -1.9754   -5.2742 C.2        1 <1>        0.000
      9 C21         0.8734   -0.8922   -5.7644 C.2        1 <1>        0.000
     10 N5         -0.2018   -0.8435   -6.5847 N.am       1 <1>        0.000
     11 C28        -0.9674   -1.8655   -7.0377 C.2        1 <1>        0.000
     12 O4         -0.8315   -3.0420   -6.7400 O.2        1 <1>        0.000
     13 H           5.5906   -0.9858   -5.3804 H.spc      1 <1>        0.000
     14 H           5.6901   -3.2322   -7.4353 H.spc      1 <1>        0.000
     15 H           7.3483   -2.0231   -8.4609 H.spc      1 <1>        0.000
     16 H           7.9267    0.1955   -8.2090 H.spc      1 <1>        0.000
     17 H           1.1137   -2.9723   -5.5054 H.spc      1 <1>        0.000
     18 H           1.2899    0.0698   -5.4657 H.spc      1 <1>        0.000
     19 H          -0.4719    0.0866   -6.9046 H.spc      1 <1>        0.000
     20 H          -1.7740   -1.6161   -7.7271 H.spc      1 <1>        0.000
@<TRIPOS>BOND
     1    6    7 2  
     2   10   11 am 
     3    9   10 1  
     4    8    9 2  
     5    5    6 am 
     6    4    5 1  
     7    1    2 1  
     8    1    8 1  
     9    2    3 1  
    10    3    4 2  
    11   11   12 2  
    12    3   13 1  
    13    4   14 1  
    14    5   15 1  
    15    6   16 1  
    16    8   17 1  
    17    9   18 1  
    18   10   19 1  
    19   11   20 1  
# Name:          frag3-195-6/31924 -- energy: -2.080302
# Creation time: Sat Jun  5 12:52:19 2010


@<TRIPOS>MOLECULE
frag3-195-6/31924 -- energy: -2.080302
   20    19     1     1     1
SMALL
USER_CHARGES


@<TRIPOS>ATOM
      1 S1          3.0611   -3.0479   -7.1160 S.3        1 <1>        0.000
      2 S2          4.4005   -3.5396   -5.6742 S.3        1 <1>        0.000
      3 C1          5.1286   -1.9331   -5.3603 C.2        1 <1>        0.000
      4 C2          5.9578   -1.4120   -6.2765 C.2        1 <1>        0.000
      5 N1          6.5734   -0.2016   -6.2394 N.am       1 <1>        0.000
      6 C9          7.3499    0.3790   -7.1840 C.2        1 <1>        0.000
      7 O1          7.8190   -0.1826   -8.1597 O.2        1 <1>        0.000
      8 C20         2.0360   -1.8828   -6.2220 C.2        1 <1>        0.000
      9 C21         0.7052   -2.0321   -6.2724 C.2        1 <1>        0.000
     10 N5         -0.2312   -1.2782   -5.6435 N.am       1 <1>        0.000
     11 C28        -1.5815   -1.3715   -5.7079 C.2        1 <1>        0.000
     12 O4         -2.2042   -2.2076   -6.3411 O.2        1 <1>        0.000
     13 H           4.9021   -1.3899   -4.4428 H.spc      1 <1>        0.000
     14 H           6.1610   -2.0303   -7.1508 H.spc      1 <1>        0.000
     15 H           6.4319    0.3412   -5.3875 H.spc      1 <1>        0.000
     16 H           7.5751    1.4385   -7.0623 H.spc      1 <1>        0.000
     17 H           2.4844   -1.0706   -5.6498 H.spc      1 <1>        0.000
     18 H           0.3333   -2.8513   -6.8878 H.spc      1 <1>        0.000
     19 H           0.1308   -0.5402   -5.0396 H.spc      1 <1>        0.000
     20 H          -2.1599   -0.6376   -5.1466 H.spc      1 <1>        0.000
@<TRIPOS>BOND
     1    6    7 2  
     2   10   11 am 
     3    9   10 1  
     4    8    9 2  
     5    5    6 am 
     6    4    5 1  
     7    1    2 1  
     8    1    8 1  
     9    2    3 1  
    10    3    4 2  
    11   11   12 2  
    12    3   13 1  
    13    4   14 1  
    14    5   15 1  
    15    6   16 1  
    16    8   17 1  
    17    9   18 1  
    18   10   19 1  
    19   11   20 1  
# Name:          frag3-195-6/31924 -- energy: -2.244183
# Creation time: Sat Jun  5 12:52:19 2010


@<TRIPOS>MOLECULE
frag3-195-6/31924 -- energy: -2.244183
   20    19     1     1     1
SMALL
USER_CHARGES


@<TRIPOS>ATOM
      1 S1          2.9038   -3.4732   -7.8444 S.3        1 <1>        0.000
      2 S2          4.1211   -3.4836   -6.2238 S.3        1 <1>        0.000
      3 C1          4.4477   -1.7350   -6.0596 C.2        1 <1>        0.000
      4 C2          5.6720   -1.2714   -6.3456 C.2        1 <1>        0.000
      5 N1          6.1012    0.0151   -6.3208 N.am       1 <1>        0.000
      6 C9          7.3274    0.5029   -6.6211 C.2        1 <1>        0.000
      7 O1          8.2435   -0.1340   -7.1150 O.2        1 <1>        0.000
      8 C20         1.5520   -2.4827   -7.2282 C.2        1 <1>        0.000
      9 C21         0.9551   -2.8469   -6.0831 C.2        1 <1>        0.000
     10 N5         -0.0552   -2.2154   -5.4417 N.am       1 <1>        0.000
     11 C28        -0.6310   -1.0222   -5.7269 C.2        1 <1>        0.000
     12 O4         -1.6230   -0.5635   -5.1867 O.2        1 <1>        0.000
     13 H           3.6620   -1.0546   -5.7313 H.spc      1 <1>        0.000
     14 H           6.4123   -2.0182   -6.6328 H.spc      1 <1>        0.000
     15 H           5.4073    0.7072   -6.0381 H.spc      1 <1>        0.000
     16 H           7.5124    1.5547   -6.4031 H.spc      1 <1>        0.000
     17 H           1.2181   -1.5990   -7.7720 H.spc      1 <1>        0.000
     18 H           1.3276   -3.7580   -5.6148 H.spc      1 <1>        0.000
     19 H          -0.4359   -2.7049   -4.6319 H.spc      1 <1>        0.000
     20 H          -0.1665   -0.4199   -6.5076 H.spc      1 <1>        0.000
@<TRIPOS>BOND
     1    6    7 2  
     2   10   11 am 
     3    9   10 1  
     4    8    9 2  
     5    5    6 am 
     6    4    5 1  
     7    1    2 1  
     8    1    8 1  
     9    2    3 1  
    10    3    4 2  
    11   11   12 2  
    12    3   13 1  
    13    4   14 1  
    14    5   15 1  
    15    6   16 1  
    16    8   17 1  
    17    9   18 1  
    18   10   19 1  
    19   11   20 1  
# Name:          frag3-195-6/31924 -- energy: -2.112423
# Creation time: Sat Jun  5 12:52:19 2010


@<TRIPOS>MOLECULE
frag3-195-6/31924 -- energy: -2.112423
   20    19     1     1     1
SMALL
USER_CHARGES


@<TRIPOS>ATOM
      1 S1          4.0987   -3.7078   -6.0251 S.3        1 <1>        0.000
      2 S2          3.0250   -3.2043   -7.6686 S.3        1 <1>        0.000
      3 C1          1.7123   -2.2636   -6.9149 C.2        1 <1>        0.000
      4 C2          0.7660   -2.9062   -6.2130 C.2        1 <1>        0.000
      5 N1         -0.2807   -2.3714   -5.5386 N.am       1 <1>        0.000
      6 C9         -0.6942   -1.0826   -5.5142 C.2        1 <1>        0.000
      7 O1         -0.1235   -0.1423   -6.0438 O.2        1 <1>        0.000
      8 C20         4.6395   -2.0984   -5.4835 C.2        1 <1>        0.000
      9 C21         5.4875   -1.4042   -6.2564 C.2        1 <1>        0.000
     10 N5          5.9847   -0.1641   -6.0406 N.am       1 <1>        0.000
     11 C28         6.8796    0.5361   -6.7776 C.2        1 <1>        0.000
     12 O4          7.5197    0.0989   -7.7206 O.2        1 <1>        0.000
     13 H           1.6784   -1.1795   -7.0227 H.spc      1 <1>        0.000
     14 H           0.8497   -3.9925   -6.1815 H.spc      1 <1>        0.000
     15 H          -0.8275   -3.0241   -4.9770 H.spc      1 <1>        0.000
     16 H          -1.6164   -0.8657   -4.9751 H.spc      1 <1>        0.000
     17 H           4.2865   -1.6848   -4.5388 H.spc      1 <1>        0.000
     18 H           5.8165   -1.8992   -7.1701 H.spc      1 <1>        0.000
     19 H           5.6370    0.3092   -5.2066 H.spc      1 <1>        0.000
     20 H           7.0421    1.5790   -6.5055 H.spc      1 <1>        0.000
@<TRIPOS>BOND
     1    6    7 2  
     2   10   11 am 
     3    9   10 1  
     4    8    9 2  
     5    5    6 am 
     6    4    5 1  
     7    1    2 1  
     8    1    8 1  
     9    2    3 1  
    10    3    4 2  
    11   11   12 2  
    12    3   13 1  
    13    4   14 1  
    14    5   15 1  
    15    6   16 1  
    16    8   17 1  
    17    9   18 1  
    18   10   19 1  
    19   11   20 1  
# Name:          frag3-195-6/31924 -- energy: -1.601230
# Creation time: Sat Jun  5 12:52:19 2010


@<TRIPOS>MOLECULE
frag3-195-6/31924 -- energy: -1.601230
   20    19     1     1     1
SMALL
USER_CHARGES


@<TRIPOS>ATOM
      1 S1          3.9492   -2.5350   -5.3552 S.3        1 <1>        0.000
      2 S2          2.8862   -2.1018   -7.0233 S.3        1 <1>        0.000
      3 C1          1.2308   -2.0879   -6.3625 C.2        1 <1>        0.000
      4 C2          0.1951   -1.8959   -7.1898 C.2        1 <1>        0.000
      5 N1         -1.1260   -1.8912   -6.8840 N.am       1 <1>        0.000
      6 C9         -1.7119   -2.1115   -5.6836 C.2        1 <1>        0.000
      7 O1         -1.1349   -2.4482   -4.6622 O.2        1 <1>        0.000
      8 C20         5.0857   -1.1626   -5.3205 C.2        1 <1>        0.000
      9 C21         6.0740   -1.1188   -6.2259 C.2        1 <1>        0.000
     10 N5          7.0108   -0.1538   -6.3851 N.am       1 <1>        0.000
     11 C28         8.0770   -0.1307   -7.2202 C.2        1 <1>        0.000
     12 O4          8.4786   -1.0724   -7.8845 O.2        1 <1>        0.000
     13 H           1.0630   -2.2342   -5.2955 H.spc      1 <1>        0.000
     14 H           0.4446   -1.7222   -8.2366 H.spc      1 <1>        0.000
     15 H          -1.7604   -1.6965   -7.6586 H.spc      1 <1>        0.000
     16 H          -2.7919   -1.9766   -5.6242 H.spc      1 <1>        0.000
     17 H           4.9794   -0.3730   -4.5767 H.spc      1 <1>        0.000
     18 H           6.1300   -1.9605   -6.9162 H.spc      1 <1>        0.000
     19 H           6.8978    0.6699   -5.7942 H.spc      1 <1>        0.000
     20 H           8.6227    0.8089   -7.3062 H.spc      1 <1>        0.000
@<TRIPOS>BOND
     1    6    7 2  
     2   10   11 am 
     3    9   10 1  
     4    8    9 2  
     5    5    6 am 
     6    4    5 1  
     7    1    2 1  
     8    1    8 1  
     9    2    3 1  
    10    3    4 2  
    11   11   12 2  
    12    3   13 1  
    13    4   14 1  
    14    5   15 1  
    15    6   16 1  
    16    8   17 1  
    17    9   18 1  
    18   10   19 1  
    19   11   20 1  
# Name:          frag3-195-6/31924 -- energy: -1.814703
# Creation time: Sat Jun  5 12:52:19 2010


@<TRIPOS>MOLECULE
frag3-195-6/31924 -- energy: -1.814703
   20    19     1     1     1
SMALL
USER_CHARGES


@<TRIPOS>ATOM
      1 S1          3.1820   -3.7021   -7.1885 S.3        1 <1>        0.000
      2 S2          4.6119   -3.6908   -5.7553 S.3        1 <1>        0.000
      3 C1          5.3038   -2.0725   -5.9962 C.2        1 <1>        0.000
      4 C2          5.6710   -1.6923   -7.2319 C.2        1 <1>        0.000
      5 N1          6.1761   -0.4999   -7.6259 N.am       1 <1>        0.000
      6 C9          6.4045    0.6037   -6.8757 C.2        1 <1>        0.000
      7 O1          6.1029    0.7407   -5.7003 O.2        1 <1>        0.000
      8 C20         1.7173   -3.4897   -6.2072 C.2        1 <1>        0.000
      9 C21         1.0539   -2.3278   -6.2531 C.2        1 <1>        0.000
     10 N5         -0.0846   -1.9885   -5.6064 N.am       1 <1>        0.000
     11 C28        -0.7584   -0.8141   -5.6232 C.2        1 <1>        0.000
     12 O4         -0.3657    0.2234   -6.1333 O.2        1 <1>        0.000
     13 H           5.4291   -1.3954   -5.1513 H.spc      1 <1>        0.000
     14 H           5.5462   -2.4388   -8.0163 H.spc      1 <1>        0.000
     15 H           6.4152   -0.4230   -8.6145 H.spc      1 <1>        0.000
     16 H           6.9007    1.4429   -7.3632 H.spc      1 <1>        0.000
     17 H           1.3607   -4.3002   -5.5716 H.spc      1 <1>        0.000
     18 H           1.4858   -1.5579   -6.8924 H.spc      1 <1>        0.000
     19 H          -0.4929   -2.7199   -5.0244 H.spc      1 <1>        0.000
     20 H          -1.7352   -0.7931   -5.1399 H.spc      1 <1>        0.000
@<TRIPOS>BOND
     1    6    7 2  
     2   10   11 am 
     3    9   10 1  
     4    8    9 2  
     5    5    6 am 
     6    4    5 1  
     7    1    2 1  
     8    1    8 1  
     9    2    3 1  
    10    3    4 2  
    11   11   12 2  
    12    3   13 1  
    13    4   14 1  
    14    5   15 1  
    15    6   16 1  
    16    8   17 1  
    17    9   18 1  
    18   10   19 1  
    19   11   20 1  
# Name:          frag3-195-6/31924 -- energy: -2.115659
# Creation time: Sat Jun  5 12:52:19 2010


@<TRIPOS>MOLECULE
frag3-195-6/31924 -- energy: -2.115659
   20    19     1     1     1
SMALL
USER_CHARGES


@<TRIPOS>ATOM
      1 S1          3.8691   -3.1909   -7.2686 S.3        1 <1>        0.000
      2 S2          3.2336   -3.2386   -5.3438 S.3        1 <1>        0.000
      3 C1          2.0857   -1.8656   -5.3561 C.2        1 <1>        0.000
      4 C2          0.7915   -2.1072   -5.6098 C.2        1 <1>        0.000
      5 N1         -0.2297   -1.2126   -5.6275 N.am       1 <1>        0.000
      6 C9         -1.5161   -1.4074   -6.0007 C.2        1 <1>        0.000
      7 O1         -2.0015   -2.4723   -6.3447 O.2        1 <1>        0.000
      8 C20         4.4687   -1.5083   -7.3705 C.2        1 <1>        0.000
      9 C21         5.7493   -1.2636   -7.0599 C.2        1 <1>        0.000
     10 N5          6.3946   -0.0717   -7.1025 N.am       1 <1>        0.000
     11 C28         7.6757    0.2146   -6.7670 C.2        1 <1>        0.000
     12 O4          8.4938   -0.5863   -6.3458 O.2        1 <1>        0.000
     13 H           2.4326   -0.8509   -5.1608 H.spc      1 <1>        0.000
     14 H           0.5285   -3.1424   -5.8272 H.spc      1 <1>        0.000
     15 H           0.0034   -0.2688   -5.3187 H.spc      1 <1>        0.000
     16 H          -2.1744   -0.5387   -5.9932 H.spc      1 <1>        0.000
     17 H           3.8065   -0.6993   -7.6787 H.spc      1 <1>        0.000
     18 H           6.3396   -2.1207   -6.7360 H.spc      1 <1>        0.000
     19 H           5.8393    0.7177   -7.4324 H.spc      1 <1>        0.000
     20 H           8.0030    1.2478   -6.8833 H.spc      1 <1>        0.000
@<TRIPOS>BOND
     1    6    7 2  
     2   10   11 am 
     3    9   10 1  
     4    8    9 2  
     5    5    6 am 
     6    4    5 1  
     7    1    2 1  
     8    1    8 1  
     9    2    3 1  
    10    3    4 2  
    11   11   12 2  
    12    3   13 1  
    13    4   14 1  
    14    5   15 1  
    15    6   16 1  
    16    8   17 1  
    17    9   18 1  
    18   10   19 1  
    19   11   20 1  
# Name:          frag3-195-6/31924 -- energy: -1.818314
# Creation time: Sat Jun  5 12:52:19 2010


@<TRIPOS>MOLECULE
frag3-195-6/31924 -- energy: -1.818314
   20    19     1     1     1
SMALL
USER_CHARGES


@<TRIPOS>ATOM
      1 S1          4.1953   -3.3707   -5.6813 S.3        1 <1>        0.000
      2 S2          2.9877   -3.3123   -7.3045 S.3        1 <1>        0.000
      3 C1          1.6592   -2.3100   -6.6865 C.2        1 <1>        0.000
      4 C2          0.6034   -2.8974   -6.1030 C.2        1 <1>        0.000
      5 N1         -0.4777   -2.3117   -5.5375 N.am       1 <1>        0.000
      6 C9         -0.8230   -1.0027   -5.5460 C.2        1 <1>        0.000
      7 O1         -0.2134   -0.1088   -6.1126 O.2        1 <1>        0.000
      8 C20         5.1716   -1.9116   -5.9416 C.2        1 <1>        0.000
      9 C21         6.0926   -1.9048   -6.9181 C.2        1 <1>        0.000
     10 N5          6.9046   -0.8920   -7.2952 N.am       1 <1>        0.000
     11 C28         6.8682    0.4075   -6.9126 C.2        1 <1>        0.000
     12 O4          6.0462    0.9047   -6.1582 O.2        1 <1>        0.000
     13 H           1.7009   -1.2249   -6.7804 H.spc      1 <1>        0.000
     14 H           0.6183   -3.9871   -6.0817 H.spc      1 <1>        0.000
     15 H          -1.1136   -2.9363   -5.0415 H.spc      1 <1>        0.000
     16 H          -1.7235   -0.7221   -4.9996 H.spc      1 <1>        0.000
     17 H           5.0250   -1.0313   -5.3158 H.spc      1 <1>        0.000
     18 H           6.1993   -2.8339   -7.4780 H.spc      1 <1>        0.000
     19 H           7.6423   -1.1385   -7.9550 H.spc      1 <1>        0.000
     20 H           7.6391    1.0660   -7.3127 H.spc      1 <1>        0.000
@<TRIPOS>BOND
     1    6    7 2  
     2   10   11 am 
     3    9   10 1  
     4    8    9 2  
     5    5    6 am 
     6    4    5 1  
     7    1    2 1  
     8    1    8 1  
     9    2    3 1  
    10    3    4 2  
    11   11   12 2  
    12    3   13 1  
    13    4   14 1  
    14    5   15 1  
    15    6   16 1  
    16    8   17 1  
    17    9   18 1  
    18   10   19 1  
    19   11   20 1  
# Name:          frag3-195-6/31924 -- energy: -1.565483
# Creation time: Sat Jun  5 12:52:19 2010


@<TRIPOS>MOLECULE
frag3-195-6/31924 -- energy: -1.565483
   20    19     1     1     1
SMALL
USER_CHARGES


@<TRIPOS>ATOM
      1 S1          2.8242   -3.1417   -7.2009 S.3        1 <1>        0.000
      2 S2          4.0340   -2.9045   -5.5998 S.3        1 <1>        0.000
      3 C1          5.1884   -1.7072   -6.2198 C.2        1 <1>        0.000
      4 C2          6.4271   -1.6527   -5.7150 C.2        1 <1>        0.000
      5 N1          7.4496   -0.8452   -6.0832 N.am       1 <1>        0.000
      6 C9          7.4759    0.0763   -7.0747 C.2        1 <1>        0.000
      7 O1          6.5830    0.2783   -7.8831 O.2        1 <1>        0.000
      8 C20         1.2616   -2.6460   -6.5224 C.2        1 <1>        0.000
      9 C21         0.8956   -1.3573   -6.5800 C.2        1 <1>        0.000
     10 N5         -0.2549   -0.7952   -6.1451 N.am       1 <1>        0.000
     11 C28        -1.3574   -1.4044   -5.6454 C.2        1 <1>        0.000
     12 O4         -1.5125   -2.6102   -5.5277 O.2        1 <1>        0.000
     13 H           4.8895   -1.0180   -7.0096 H.spc      1 <1>        0.000
     14 H           6.6399   -2.3480   -4.9030 H.spc      1 <1>        0.000
     15 H           8.3102   -0.9437   -5.5447 H.spc      1 <1>        0.000
     16 H           8.3718    0.6914   -7.1588 H.spc      1 <1>        0.000
     17 H           0.6040   -3.3835   -6.0622 H.spc      1 <1>        0.000
     18 H           1.6160   -0.6773   -7.0345 H.spc      1 <1>        0.000
     19 H          -0.2986    0.2224   -6.2006 H.spc      1 <1>        0.000
     20 H          -2.1766   -0.7629   -5.3204 H.spc      1 <1>        0.000
@<TRIPOS>BOND
     1    6    7 2  
     2   10   11 am 
     3    9   10 1  
     4    8    9 2  
     5    5    6 am 
     6    4    5 1  
     7    1    2 1  
     8    1    8 1  
     9    2    3 1  
    10    3    4 2  
    11   11   12 2  
    12    3   13 1  
    13    4   14 1  
    14    5   15 1  
    15    6   16 1  
    16    8   17 1  
    17    9   18 1  
    18   10   19 1  
    19   11   20 1  
# Name:          frag3-195-6/31924 -- energy: -1.922108
# Creation time: Sat Jun  5 12:52:19 2010


@<TRIPOS>MOLECULE
frag3-195-6/31924 -- energy: -1.922108
   20    19     1     1     1
SMALL
USER_CHARGES


@<TRIPOS>ATOM
      1 S1          4.0875   -3.4704   -5.8615 S.3        1 <1>        0.000
      2 S2          3.0794   -2.6463   -4.3141 S.3        1 <1>        0.000
      3 C1          1.5292   -2.2711   -5.0926 C.2        1 <1>        0.000
      4 C2          1.4562   -1.2641   -5.9775 C.2        1 <1>        0.000
      5 N1          0.3864   -0.8572   -6.6997 N.am       1 <1>        0.000
      6 C9         -0.8364   -1.4322   -6.7842 C.2        1 <1>        0.000
      7 O1         -1.1971   -2.4311   -6.1811 O.2        1 <1>        0.000
      8 C20         5.2284   -2.1721   -6.2622 C.2        1 <1>        0.000
      9 C21         5.3571   -1.7691   -7.5322 C.2        1 <1>        0.000
     10 N5          6.1416   -0.7830   -8.0226 N.am       1 <1>        0.000
     11 C28         6.8484    0.1520   -7.3424 C.2        1 <1>        0.000
     12 O4          6.9340    0.2346   -6.1269 O.2        1 <1>        0.000
     13 H           0.6407   -2.8554   -4.8534 H.spc      1 <1>        0.000
     14 H           2.3768   -0.7020   -6.1344 H.spc      1 <1>        0.000
     15 H           0.5182   -0.0090   -7.2507 H.spc      1 <1>        0.000
     16 H          -1.5621   -0.9628   -7.4483 H.spc      1 <1>        0.000
     17 H           5.8224   -1.7043   -5.4771 H.spc      1 <1>        0.000
     18 H           4.7524   -2.3041   -8.2644 H.spc      1 <1>        0.000
     19 H           6.2105   -0.7368   -9.0392 H.spc      1 <1>        0.000
     20 H           7.3871    0.8946   -7.9310 H.spc      1 <1>        0.000
@<TRIPOS>BOND
     1    6    7 2  
     2   10   11 am 
     3    9   10 1  
     4    8    9 2  
     5    5    6 am 
     6    4    5 1  
     7    1    2 1  
     8    1    8 1  
     9    2    3 1  
    10    3    4 2  
    11   11   12 2  
    12    3   13 1  
    13    4   14 1  
    14    5   15 1  
    15    6   16 1  
    16    8   17 1  
    17    9   18 1  
    18   10   19 1  
    19   11   20 1  
# Name:          frag3-195-6/31924 -- energy: -2.040053
# Creation time: Sat Jun  5 12:52:19 2010


@<TRIPOS>MOLECULE
frag3-195-6/31924 -- energy: -2.040053
   20    19     1     1     1
SMALL
USER_CHARGES


@<TRIPOS>ATOM
      1 S1          4.3311   -3.8330   -6.2489 S.3        1 <1>        0.000
      2 S2          2.8785   -3.7171   -7.6516 S.3        1 <1>        0.000
      3 C1          1.8399   -2.4558   -6.9404 C.2        1 <1>        0.000
      4 C2          0.5889   -2.7650   -6.5721 C.2        1 <1>        0.000
      5 N1         -0.3306   -1.9632   -5.9819 N.am       1 <1>        0.000
      6 C9         -0.1736   -0.6976   -5.5276 C.2        1 <1>        0.000
      7 O1          0.8787   -0.0797   -5.4930 O.2        1 <1>        0.000
      8 C20         5.1886   -2.2973   -6.5309 C.2        1 <1>        0.000
      9 C21         5.4318   -1.4827   -5.4959 C.2        1 <1>        0.000
     10 N5          6.0884   -0.2989   -5.5054 N.am       1 <1>        0.000
     11 C28         6.3636    0.5085   -6.5582 C.2        1 <1>        0.000
     12 O4          5.9291    0.3718   -7.6909 O.2        1 <1>        0.000
     13 H           2.2184   -1.4425   -6.8062 H.spc      1 <1>        0.000
     14 H           0.2716   -3.7884   -6.7721 H.spc      1 <1>        0.000
     15 H          -1.2608   -2.3651   -5.8649 H.spc      1 <1>        0.000
     16 H          -1.0636   -0.1861   -5.1611 H.spc      1 <1>        0.000
     17 H           5.5120   -2.0234   -7.5352 H.spc      1 <1>        0.000
     18 H           5.0551   -1.8132   -4.5279 H.spc      1 <1>        0.000
     19 H           6.4205    0.0292   -4.5985 H.spc      1 <1>        0.000
     20 H           7.0299    1.3522   -6.3784 H.spc      1 <1>        0.000
@<TRIPOS>BOND
     1    6    7 2  
     2   10   11 am 
     3    9   10 1  
     4    8    9 2  
     5    5    6 am 
     6    4    5 1  
     7    1    2 1  
     8    1    8 1  
     9    2    3 1  
    10    3    4 2  
    11   11   12 2  
    12    3   13 1  
    13    4   14 1  
    14    5   15 1  
    15    6   16 1  
    16    8   17 1  
    17    9   18 1  
    18   10   19 1  
    19   11   20 1  
# Name:          frag3-195-6/31924 -- energy: -2.320779
# Creation time: Sat Jun  5 12:52:19 2010


@<TRIPOS>MOLECULE
frag3-195-6/31924 -- energy: -2.320779
   20    19     1     1     1
SMALL
USER_CHARGES


@<TRIPOS>ATOM
      1 S1          4.3538   -3.7830   -5.9083 S.3        1 <1>        0.000
      2 S2          2.9124   -3.7969   -7.3256 S.3        1 <1>        0.000
      3 C1          1.6586   -2.8201   -6.5353 C.2        1 <1>        0.000
      4 C2          1.5256   -1.5229   -6.8487 C.2        1 <1>        0.000
      5 N1          0.6191   -0.6339   -6.3808 N.am       1 <1>        0.000
      6 C9         -0.4346   -0.8628   -5.5618 C.2        1 <1>        0.000
      7 O1         -0.8350   -1.9603   -5.2058 O.2        1 <1>        0.000
      8 C20         5.2450   -2.3118   -6.3446 C.2        1 <1>        0.000
      9 C21         4.8763   -1.1337   -5.8205 C.2        1 <1>        0.000
     10 N5          5.4400    0.0802   -6.0105 N.am       1 <1>        0.000
     11 C28         6.4964    0.4080   -6.7934 C.2        1 <1>        0.000
     12 O4          7.1569   -0.3726   -7.4614 O.2        1 <1>        0.000
     13 H           0.9979   -3.2738   -5.7966 H.spc      1 <1>        0.000
     14 H           2.2403   -1.1344   -7.5743 H.spc      1 <1>        0.000
     15 H           0.7457    0.3318   -6.6837 H.spc      1 <1>        0.000
     16 H          -0.9723    0.0084   -5.1876 H.spc      1 <1>        0.000
     17 H           6.0872   -2.3653   -7.0345 H.spc      1 <1>        0.000
     18 H           4.0120   -1.1581   -5.1568 H.spc      1 <1>        0.000
     19 H           5.0138    0.8514   -5.4966 H.spc      1 <1>        0.000
     20 H           6.7814    1.4594   -6.8302 H.spc      1 <1>        0.000
@<TRIPOS>BOND
     1    6    7 2  
     2   10   11 am 
     3    9   10 1  
     4    8    9 2  
     5    5    6 am 
     6    4    5 1  
     7    1    2 1  
     8    1    8 1  
     9    2    3 1  
    10    3    4 2  
    11   11   12 2  
    12    3   13 1  
    13    4   14 1  
    14    5   15 1  
    15    6   16 1  
    16    8   17 1  
    17    9   18 1  
    18   10   19 1  
    19   11   20 1  
# Name:          frag3-195-6/31924 -- energy: -1.832119
# Creation time: Sat Jun  5 12:52:19 2010


@<TRIPOS>MOLECULE
frag3-195-6/31924 -- energy: -1.832119
   20    19     1     1     1
SMALL
USER_CHARGES


@<TRIPOS>ATOM
      1 S1          2.8436   -0.7618   -5.5329 S.3        1 <1>        0.000
      2 S2          4.1213   -2.2165   -4.9445 S.3        1 <1>        0.000
      3 C1          5.6507   -1.5978   -5.6097 C.2        1 <1>        0.000
      4 C2          5.8642   -1.6591   -6.9332 C.2        1 <1>        0.000
      5 N1          6.9352   -1.2073   -7.6249 N.am       1 <1>        0.000
      6 C9          8.0290   -0.5577   -7.1617 C.2        1 <1>        0.000
      7 O1          8.9416   -0.1204   -7.8409 O.2        1 <1>        0.000
      8 C20         1.3603   -1.7011   -5.8156 C.2        1 <1>        0.000
      9 C21         0.1823   -1.0673   -5.8645 C.2        1 <1>        0.000
     10 N5         -1.0377   -1.6005   -6.0949 N.am       1 <1>        0.000
     11 C28        -1.3712   -2.8899   -6.3453 C.2        1 <1>        0.000
     12 O4         -2.5047   -3.3306   -6.4288 O.2        1 <1>        0.000
     13 H           6.4067   -1.1733   -4.9491 H.spc      1 <1>        0.000
     14 H           5.0782   -2.1308   -7.5230 H.spc      1 <1>        0.000
     15 H           6.9162   -1.3790   -8.6302 H.spc      1 <1>        0.000
     16 H           8.0999   -0.4127   -6.0837 H.spc      1 <1>        0.000
     17 H           1.4099   -2.7819   -5.9477 H.spc      1 <1>        0.000
     18 H           0.2106    0.0096   -5.6983 H.spc      1 <1>        0.000
     19 H          -1.8156   -0.9410   -6.0780 H.spc      1 <1>        0.000
     20 H          -0.5527   -3.5961   -6.4845 H.spc      1 <1>        0.000
@<TRIPOS>BOND
     1    6    7 2  
     2   10   11 am 
     3    9   10 1  
     4    8    9 2  
     5    5    6 am 
     6    4    5 1  
     7    1    2 1  
     8    1    8 1  
     9    2    3 1  
    10    3    4 2  
    11   11   12 2  
    12    3   13 1  
    13    4   14 1  
    14    5   15 1  
    15    6   16 1  
    16    8   17 1  
    17    9   18 1  
    18   10   19 1  
    19   11   20 1  
# Name:          frag3-195-6/31924 -- energy: -1.822790
# Creation time: Sat Jun  5 12:52:19 2010


@<TRIPOS>MOLECULE
frag3-195-6/31924 -- energy: -1.822790
   20    19     1     1     1
SMALL
USER_CHARGES


@<TRIPOS>ATOM
      1 S1          3.2142   -2.0948   -5.1470 S.3        1 <1>        0.000
      2 S2          4.4452   -3.6241   -5.6496 S.3        1 <1>        0.000
      3 C1          6.0080   -2.7648   -5.7277 C.2        1 <1>        0.000
      4 C2          6.0932   -1.6343   -6.4453 C.2        1 <1>        0.000
      5 N1          7.1707   -0.8236   -6.5934 N.am       1 <1>        0.000
      6 C9          7.2648    0.3402   -7.2777 C.2        1 <1>        0.000
      7 O1          6.3849    0.8331   -7.9645 O.2        1 <1>        0.000
      8 C20         1.9316   -2.2814   -6.3737 C.2        1 <1>        0.000
      9 C21         0.6922   -1.8667   -6.0824 C.2        1 <1>        0.000
     10 N5         -0.4005   -1.8964   -6.8833 N.am       1 <1>        0.000
     11 C28        -1.6896   -1.6156   -6.5759 C.2        1 <1>        0.000
     12 O4         -2.0998   -1.2816   -5.4763 O.2        1 <1>        0.000
     13 H           6.8797   -3.1526   -5.2005 H.spc      1 <1>        0.000
     14 H           5.1885   -1.3311   -6.9722 H.spc      1 <1>        0.000
     15 H           8.0236   -1.1323   -6.1269 H.spc      1 <1>        0.000
     16 H           8.2072    0.8837   -7.2095 H.spc      1 <1>        0.000
     17 H           2.1534   -2.7256   -7.3440 H.spc      1 <1>        0.000
     18 H           0.5448   -1.4569   -5.0832 H.spc      1 <1>        0.000
     19 H          -0.2286   -2.1677   -7.8514 H.spc      1 <1>        0.000
     20 H          -2.4225   -1.6947   -7.3788 H.spc      1 <1>        0.000
@<TRIPOS>BOND
     1    6    7 2  
     2   10   11 am 
     3    9   10 1  
     4    8    9 2  
     5    5    6 am 
     6    4    5 1  
     7    1    2 1  
     8    1    8 1  
     9    2    3 1  
    10    3    4 2  
    11   11   12 2  
    12    3   13 1  
    13    4   14 1  
    14    5   15 1  
    15    6   16 1  
    16    8   17 1  
    17    9   18 1  
    18   10   19 1  
    19   11   20 1  
