#      Rotatable Fragment
#      Build by yxyuan
#
# Name:          frag5-674-24/41815
# Creation time: Sat Jun  5 12:53:03 2010


@<TRIPOS>MOLECULE
frag5-674-24/41815
   32    34     1     1     1
SMALL
USER_CHARGES


@<TRIPOS>ATOM
      1 F1         -2.0236   -0.0492    1.6202 F          1 <1>        0.000
      2 C1         -0.7834    0.2092    1.1240 C.ar       1 <1>        0.000
      3 C2          0.3173   -0.1742    1.8570 C.ar       1 <1>        0.000
      4 C3          1.6261    0.0648    1.4022 C.ar       1 <1>        0.000
      5 C4          1.7259    0.7189    0.1593 C.ar       1 <1>        0.000
      6 C5          0.6139    1.1105   -0.5642 C.ar       1 <1>        0.000
      7 C6         -0.6941    0.8669   -0.1193 C.ar       1 <1>        0.000
      8 N1         -1.7536    1.2128   -0.8219 N.pl3      1 <1>        0.000
      9 C15         1.1434   -1.1985    3.7964 C.ar       1 <1>        0.000
     10 C7         -2.7576    0.2979   -1.2220 C.3        1 <1>        0.000
     11 C8         -4.0357    1.0126   -0.9283 C.3        1 <1>        0.000
     12 C9         -3.6608    2.4764   -1.1142 C.3        1 <1>        0.000
     13 C10        -2.1567    2.5243   -1.1834 C.3        1 <1>        0.000
     14 F2          0.7548    1.7317   -1.7568 F          1 <1>        0.000
     15 C13         2.7742   -0.3762    2.2429 C.ar       1 <1>        0.000
     16 C14         2.5335   -0.9879    3.4035 C.ar       1 <1>        0.000
     17 N3          0.1482   -0.8166    3.0757 N.ar       1 <1>        0.000
     18 C18         3.5821   -1.4851    4.3348 C.2        1 <1>        0.000
     19 O1          3.3354   -2.3033    5.2163 O.2        1 <1>        0.000
     20 O2          4.8170   -1.0239    4.2106 O.3        1 <1>        0.000
     21 O3          3.8534   -0.1625    1.8260 O.2        1 <1>        0.000
     22 H           2.7160    0.9242   -0.2478 H.spc      1 <1>        0.000
     23 H           0.9396   -1.7013    4.7418 H.spc      1 <1>        0.000
     24 H          -2.6704    0.0225   -2.2730 H.spc      1 <1>        0.000
     25 H          -2.6848   -0.6525   -0.6933 H.spc      1 <1>        0.000
     26 H          -4.4196    0.7985    0.0692 H.spc      1 <1>        0.000
     27 H          -4.8530    0.7003   -1.5783 H.spc      1 <1>        0.000
     28 H          -4.0341    3.0837   -0.2896 H.spc      1 <1>        0.000
     29 H          -4.1074    2.8825   -2.0218 H.spc      1 <1>        0.000
     30 H          -1.7978    2.8085   -2.1726 H.spc      1 <1>        0.000
     31 H          -1.7370    3.2822   -0.5220 H.spc      1 <1>        0.000
     32 H           4.8520   -0.3978    3.4837 H.spc      1 <1>        0.000
@<TRIPOS>BOND
     1    3    4 ar 
     2   10   11 1  
     3    3   17 ar 
     4    4    5 ar 
     5    8   10 1  
     6   11   12 1  
     7    2    3 ar 
     8    4   15 ar 
     9    5    6 ar 
    10    7    8 1  
    11    8   13 1  
    12    2    7 ar 
    13    6   14 1  
    14   12   13 1  
    15    6    7 ar 
    16    1    2 1  
    17   18   19 2  
    18   18   20 1  
    19    9   17 ar 
    20   16   18 1  
    21   15   21 2  
    22   16    9 ar 
    23   15   16 ar 
    24    5   22 1  
    25    9   23 1  
    26   10   24 1  
    27   10   25 1  
    28   11   26 1  
    29   11   27 1  
    30   12   28 1  
    31   12   29 1  
    32   13   30 1  
    33   13   31 1  
    34   20   32 1  
# Name:          frag5-674-24/41815
# Creation time: Sat Jun  5 12:53:03 2010


@<TRIPOS>MOLECULE
frag5-674-24/41815
   32    34     1     1     1
SMALL
USER_CHARGES


@<TRIPOS>ATOM
      1 F1         -2.0763   -0.1025    1.9603 F          1 <1>        0.000
      2 C1         -0.8826    0.1366    1.3550 C.ar       1 <1>        0.000
      3 C2          0.2774   -0.2163    2.0070 C.ar       1 <1>        0.000
      4 C3          1.5436    0.0014    1.4361 C.ar       1 <1>        0.000
      5 C4          1.5347    0.5963    0.1599 C.ar       1 <1>        0.000
      6 C5          0.3602    0.9432   -0.4912 C.ar       1 <1>        0.000
      7 C6         -0.9088    0.7207    0.0830 C.ar       1 <1>        0.000
      8 N1         -2.0518    1.0376   -0.4911 N.pl3      1 <1>        0.000
      9 C15         1.2652   -1.1484    3.9156 C.ar       1 <1>        0.000
     10 C7         -2.6186    0.4499   -1.6486 C.3        1 <1>        0.000
     11 C8         -3.2061    1.6052   -2.4074 C.3        1 <1>        0.000
     12 C9         -3.1399    2.8060   -1.4761 C.3        1 <1>        0.000
     13 C10        -2.7940    2.1964   -0.1537 C.3        1 <1>        0.000
     14 F2          0.4032    1.5182   -1.7145 F          1 <1>        0.000
     15 C13         2.7575   -0.3981    2.1979 C.ar       1 <1>        0.000
     16 C14         2.6179   -0.9549    3.4005 C.ar       1 <1>        0.000
     17 N3          0.2112   -0.8008    3.2637 N.ar       1 <1>        0.000
     18 C18         3.7423   -1.4087    4.2610 C.2        1 <1>        0.000
     19 O1          3.5889   -2.2612    5.1305 O.2        1 <1>        0.000
     20 O2          4.9384   -0.8674    4.0885 O.3        1 <1>        0.000
     21 O3          3.7972   -0.2047    1.6824 O.2        1 <1>        0.000
     22 H           2.4862    0.7915   -0.3347 H.spc      1 <1>        0.000
     23 H           1.1426   -1.6079    4.8964 H.spc      1 <1>        0.000
     24 H          -1.8774   -0.0909   -2.2370 H.spc      1 <1>        0.000
     25 H          -3.3696   -0.3000   -1.4002 H.spc      1 <1>        0.000
     26 H          -4.2336    1.3965   -2.7053 H.spc      1 <1>        0.000
     27 H          -2.6524    1.7919   -3.3276 H.spc      1 <1>        0.000
     28 H          -4.0736    3.3677   -1.4482 H.spc      1 <1>        0.000
     29 H          -2.4107    3.5487   -1.7997 H.spc      1 <1>        0.000
     30 H          -2.2271    2.8792    0.4792 H.spc      1 <1>        0.000
     31 H          -3.6800    1.9612    0.4361 H.spc      1 <1>        0.000
     32 H           4.8975   -0.2235    3.3776 H.spc      1 <1>        0.000
@<TRIPOS>BOND
     1    3    4 ar 
     2   10   11 1  
     3    3   17 ar 
     4    4    5 ar 
     5    8   10 1  
     6   11   12 1  
     7    2    3 ar 
     8    4   15 ar 
     9    5    6 ar 
    10    7    8 1  
    11    8   13 1  
    12    2    7 ar 
    13    6   14 1  
    14   12   13 1  
    15    6    7 ar 
    16    1    2 1  
    17   18   19 2  
    18   18   20 1  
    19    9   17 ar 
    20   16   18 1  
    21   15   21 2  
    22   16    9 ar 
    23   15   16 ar 
    24    5   22 1  
    25    9   23 1  
    26   10   24 1  
    27   10   25 1  
    28   11   26 1  
    29   11   27 1  
    30   12   28 1  
    31   12   29 1  
    32   13   30 1  
    33   13   31 1  
    34   20   32 1  
# Name:          frag5-674-24/41815
# Creation time: Sat Jun  5 12:53:03 2010


@<TRIPOS>MOLECULE
frag5-674-24/41815
   32    34     1     1     1
SMALL
USER_CHARGES


@<TRIPOS>ATOM
      1 F1         -2.0447    0.0472    1.9843 F          1 <1>        0.000
      2 C1         -0.8584    0.1898    1.3349 C.ar       1 <1>        0.000
      3 C2          0.2993   -0.1735    1.9956 C.ar       1 <1>        0.000
      4 C3          1.5638   -0.0669    1.3975 C.ar       1 <1>        0.000
      5 C4          1.5490    0.4300    0.0836 C.ar       1 <1>        0.000
      6 C5          0.3755    0.7816   -0.5785 C.ar       1 <1>        0.000
      7 C6         -0.8927    0.6640    0.0198 C.ar       1 <1>        0.000
      8 N1         -2.0336    0.9784   -0.5640 N.pl3      1 <1>        0.000
      9 C15         1.2767   -0.9946    3.9559 C.ar       1 <1>        0.000
     10 C7         -2.4061    0.7114   -1.9021 C.3        1 <1>        0.000
     11 C8         -3.1624    1.9275   -2.3443 C.3        1 <1>        0.000
     12 C9         -3.3405    2.7858   -1.1082 C.3        1 <1>        0.000
     13 C10        -2.9876    1.8549    0.0061 C.3        1 <1>        0.000
     14 F2          0.4339    1.2645   -1.8412 F          1 <1>        0.000
     15 C13         2.7636   -0.4661    2.1647 C.ar       1 <1>        0.000
     16 C14         2.6255   -0.9036    3.4121 C.ar       1 <1>        0.000
     17 N3          0.2216   -0.6542    3.2929 N.ar       1 <1>        0.000
     18 C18         3.7535   -1.3360    4.2629 C.2        1 <1>        0.000
     19 O1          4.4310   -2.2921    3.9243 O.2        1 <1>        0.000
     20 O2          3.9923   -0.7465    5.4444 O.3        1 <1>        0.000
     21 O3          3.7999   -0.3529    1.6183 O.2        1 <1>        0.000
     22 H           2.4977    0.5454   -0.4406 H.spc      1 <1>        0.000
     23 H           1.1519   -1.3683    4.9722 H.spc      1 <1>        0.000
     24 H          -1.5375    0.5241   -2.5335 H.spc      1 <1>        0.000
     25 H          -3.0117   -0.1915   -1.9803 H.spc      1 <1>        0.000
     26 H          -4.1254    1.6561   -2.7769 H.spc      1 <1>        0.000
     27 H          -2.6213    2.4659   -3.1224 H.spc      1 <1>        0.000
     28 H          -4.3494    3.1882   -1.0170 H.spc      1 <1>        0.000
     29 H          -2.7171    3.6798   -1.1232 H.spc      1 <1>        0.000
     30 H          -2.5942    2.3830    0.8747 H.spc      1 <1>        0.000
     31 H          -3.8583    1.3228    0.3894 H.spc      1 <1>        0.000
     32 H           3.3815   -0.0158    5.5654 H.spc      1 <1>        0.000
@<TRIPOS>BOND
     1    3    4 ar 
     2   10   11 1  
     3    3   17 ar 
     4    4    5 ar 
     5    8   10 1  
     6   11   12 1  
     7    2    3 ar 
     8    4   15 ar 
     9    5    6 ar 
    10    7    8 1  
    11    8   13 1  
    12    2    7 ar 
    13    6   14 1  
    14   12   13 1  
    15    6    7 ar 
    16    1    2 1  
    17   18   19 2  
    18   18   20 1  
    19    9   17 ar 
    20   16   18 1  
    21   15   21 2  
    22   16    9 ar 
    23   15   16 ar 
    24    5   22 1  
    25    9   23 1  
    26   10   24 1  
    27   10   25 1  
    28   11   26 1  
    29   11   27 1  
    30   12   28 1  
    31   12   29 1  
    32   13   30 1  
    33   13   31 1  
    34   20   32 1  
# Name:          frag5-674-24/41815
# Creation time: Sat Jun  5 12:53:03 2010


@<TRIPOS>MOLECULE
frag5-674-24/41815
   32    34     1     1     1
SMALL
USER_CHARGES


@<TRIPOS>ATOM
      1 F1         -1.9193   -0.6329    1.4937 F          1 <1>        0.000
      2 C1         -0.7712   -0.0536    1.0688 C.ar       1 <1>        0.000
      3 C2          0.3458   -0.3486    1.8222 C.ar       1 <1>        0.000
      4 C3          1.6064    0.1440    1.5086 C.ar       1 <1>        0.000
      5 C4          1.6186    0.9563    0.3779 C.ar       1 <1>        0.000
      6 C5          0.4819    1.2504   -0.3718 C.ar       1 <1>        0.000
      7 C6         -0.7961    0.7400   -0.0887 C.ar       1 <1>        0.000
      8 N1         -1.8972    0.9773   -0.7781 N.pl3      1 <1>        0.000
      9 C15         1.2277   -1.4926    3.6451 C.ar       1 <1>        0.000
     10 C7         -3.2162    0.7849   -0.2936 C.3        1 <1>        0.000
     11 C8         -3.9548    2.0161   -0.6693 C.3        1 <1>        0.000
     12 C9         -3.2680    2.4598   -1.9327 C.3        1 <1>        0.000
     13 C10        -2.0096    1.6589   -2.0173 C.3        1 <1>        0.000
     14 F2          0.6359    2.0623   -1.4367 F          1 <1>        0.000
     15 C13         2.7608   -0.2150    2.3403 C.ar       1 <1>        0.000
     16 C14         2.5800   -1.0193    3.3801 C.ar       1 <1>        0.000
     17 N3          0.2147   -1.1763    2.9257 N.ar       1 <1>        0.000
     18 C18         3.6827   -1.4169    4.2653 C.2        1 <1>        0.000
     19 O1          4.4870   -0.5958    4.6691 O.2        1 <1>        0.000
     20 O2          3.7671   -2.6953    4.6566 O.3        1 <1>        0.000
     21 O3          3.7833    0.2448    1.9936 O.2        1 <1>        0.000
     22 H           2.5694    1.3855    0.0621 H.spc      1 <1>        0.000
     23 H           1.0689   -2.1501    4.4998 H.spc      1 <1>        0.000
     24 H          -3.6755   -0.1054   -0.7232 H.spc      1 <1>        0.000
     25 H          -3.2281    0.6230    0.7843 H.spc      1 <1>        0.000
     26 H          -3.9286    2.7760    0.1117 H.spc      1 <1>        0.000
     27 H          -5.0209    1.8391   -0.8112 H.spc      1 <1>        0.000
     28 H          -3.0562    3.5288   -1.9135 H.spc      1 <1>        0.000
     29 H          -3.9005    2.2964   -2.8053 H.spc      1 <1>        0.000
     30 H          -2.0421    0.9587   -2.8520 H.spc      1 <1>        0.000
     31 H          -1.1453    2.2985   -2.1964 H.spc      1 <1>        0.000
     32 H           3.0613   -3.2013    4.2474 H.spc      1 <1>        0.000
@<TRIPOS>BOND
     1    3    4 ar 
     2   10   11 1  
     3    3   17 ar 
     4    4    5 ar 
     5    8   10 1  
     6   11   12 1  
     7    2    3 ar 
     8    4   15 ar 
     9    5    6 ar 
    10    7    8 1  
    11    8   13 1  
    12    2    7 ar 
    13    6   14 1  
    14   12   13 1  
    15    6    7 ar 
    16    1    2 1  
    17   18   19 2  
    18   18   20 1  
    19    9   17 ar 
    20   16   18 1  
    21   15   21 2  
    22   16    9 ar 
    23   15   16 ar 
    24    5   22 1  
    25    9   23 1  
    26   10   24 1  
    27   10   25 1  
    28   11   26 1  
    29   11   27 1  
    30   12   28 1  
    31   12   29 1  
    32   13   30 1  
    33   13   31 1  
    34   20   32 1  
# Name:          frag5-674-24/41815 -- energy: -0.673881
# Creation time: Sat Jun  5 12:53:03 2010


@<TRIPOS>MOLECULE
frag5-674-24/41815 -- energy: -0.673881
   32    34     1     1     1
SMALL
USER_CHARGES


@<TRIPOS>ATOM
      1 F1         -2.0236   -0.0492    1.6202 F          1 <1>        0.000
      2 C1         -0.7834    0.2092    1.1240 C.ar       1 <1>        0.000
      3 C2          0.3173   -0.1742    1.8570 C.ar       1 <1>        0.000
      4 C3          1.6261    0.0648    1.4022 C.ar       1 <1>        0.000
      5 C4          1.7259    0.7189    0.1593 C.ar       1 <1>        0.000
      6 C5          0.6139    1.1105   -0.5642 C.ar       1 <1>        0.000
      7 C6         -0.6941    0.8669   -0.1193 C.ar       1 <1>        0.000
      8 N1         -1.7536    1.2128   -0.8219 N.pl3      1 <1>        0.000
      9 C15         1.1434   -1.1985    3.7964 C.ar       1 <1>        0.000
     10 C7         -2.7576    0.2979   -1.2220 C.3        1 <1>        0.000
     11 C8         -4.0357    1.0126   -0.9283 C.3        1 <1>        0.000
     12 C9         -3.6608    2.4764   -1.1142 C.3        1 <1>        0.000
     13 C10        -2.1567    2.5243   -1.1834 C.3        1 <1>        0.000
     14 F2          0.7548    1.7317   -1.7568 F          1 <1>        0.000
     15 C13         2.7742   -0.3762    2.2429 C.ar       1 <1>        0.000
     16 C14         2.5335   -0.9879    3.4035 C.ar       1 <1>        0.000
     17 N3          0.1482   -0.8166    3.0757 N.ar       1 <1>        0.000
     18 C18         3.5821   -1.4851    4.3348 C.2        1 <1>        0.000
     19 O1          3.3354   -2.3033    5.2163 O.2        1 <1>        0.000
     20 O2          4.8170   -1.0239    4.2106 O.3        1 <1>        0.000
     21 O3          3.8534   -0.1625    1.8260 O.2        1 <1>        0.000
     22 H           2.7160    0.9242   -0.2478 H.spc      1 <1>        0.000
     23 H           0.9396   -1.7013    4.7418 H.spc      1 <1>        0.000
     24 H          -2.6704    0.0225   -2.2730 H.spc      1 <1>        0.000
     25 H          -2.6848   -0.6525   -0.6933 H.spc      1 <1>        0.000
     26 H          -4.4196    0.7985    0.0692 H.spc      1 <1>        0.000
     27 H          -4.8530    0.7003   -1.5783 H.spc      1 <1>        0.000
     28 H          -4.0341    3.0837   -0.2896 H.spc      1 <1>        0.000
     29 H          -4.1074    2.8825   -2.0218 H.spc      1 <1>        0.000
     30 H          -1.7978    2.8085   -2.1726 H.spc      1 <1>        0.000
     31 H          -1.7370    3.2822   -0.5220 H.spc      1 <1>        0.000
     32 H           4.8520   -0.3978    3.4837 H.spc      1 <1>        0.000
@<TRIPOS>BOND
     1    3    4 ar 
     2   10   11 1  
     3    3   17 ar 
     4    4    5 ar 
     5    8   10 1  
     6   11   12 1  
     7    2    3 ar 
     8    4   15 ar 
     9    5    6 ar 
    10    7    8 1  
    11    8   13 1  
    12    2    7 ar 
    13    6   14 1  
    14   12   13 1  
    15    6    7 ar 
    16    1    2 1  
    17   18   19 2  
    18   18   20 1  
    19    9   17 ar 
    20   16   18 1  
    21   15   21 2  
    22   16    9 ar 
    23   15   16 ar 
    24    5   22 1  
    25    9   23 1  
    26   10   24 1  
    27   10   25 1  
    28   11   26 1  
    29   11   27 1  
    30   12   28 1  
    31   12   29 1  
    32   13   30 1  
    33   13   31 1  
    34   20   32 1  
# Name:          frag5-674-24/41815 -- energy: -1.978335
# Creation time: Sat Jun  5 12:53:03 2010


@<TRIPOS>MOLECULE
frag5-674-24/41815 -- energy: -1.978335
   32    34     1     1     1
SMALL
USER_CHARGES


@<TRIPOS>ATOM
      1 F1         -2.0763   -0.1025    1.9603 F          1 <1>        0.000
      2 C1         -0.8826    0.1366    1.3550 C.ar       1 <1>        0.000
      3 C2          0.2774   -0.2163    2.0070 C.ar       1 <1>        0.000
      4 C3          1.5436    0.0014    1.4361 C.ar       1 <1>        0.000
      5 C4          1.5347    0.5963    0.1599 C.ar       1 <1>        0.000
      6 C5          0.3602    0.9432   -0.4912 C.ar       1 <1>        0.000
      7 C6         -0.9088    0.7207    0.0830 C.ar       1 <1>        0.000
      8 N1         -2.0518    1.0376   -0.4911 N.pl3      1 <1>        0.000
      9 C15         1.2652   -1.1484    3.9156 C.ar       1 <1>        0.000
     10 C7         -2.6186    0.4499   -1.6486 C.3        1 <1>        0.000
     11 C8         -3.2061    1.6052   -2.4074 C.3        1 <1>        0.000
     12 C9         -3.1399    2.8060   -1.4761 C.3        1 <1>        0.000
     13 C10        -2.7940    2.1964   -0.1537 C.3        1 <1>        0.000
     14 F2          0.4032    1.5182   -1.7145 F          1 <1>        0.000
     15 C13         2.7575   -0.3981    2.1979 C.ar       1 <1>        0.000
     16 C14         2.6179   -0.9549    3.4005 C.ar       1 <1>        0.000
     17 N3          0.2112   -0.8008    3.2637 N.ar       1 <1>        0.000
     18 C18         3.7423   -1.4087    4.2610 C.2        1 <1>        0.000
     19 O1          3.5889   -2.2612    5.1305 O.2        1 <1>        0.000
     20 O2          4.9384   -0.8674    4.0885 O.3        1 <1>        0.000
     21 O3          3.7972   -0.2047    1.6824 O.2        1 <1>        0.000
     22 H           2.4862    0.7915   -0.3347 H.spc      1 <1>        0.000
     23 H           1.1426   -1.6079    4.8964 H.spc      1 <1>        0.000
     24 H          -1.8774   -0.0909   -2.2370 H.spc      1 <1>        0.000
     25 H          -3.3696   -0.3000   -1.4002 H.spc      1 <1>        0.000
     26 H          -4.2336    1.3965   -2.7053 H.spc      1 <1>        0.000
     27 H          -2.6524    1.7919   -3.3276 H.spc      1 <1>        0.000
     28 H          -4.0736    3.3677   -1.4482 H.spc      1 <1>        0.000
     29 H          -2.4107    3.5487   -1.7997 H.spc      1 <1>        0.000
     30 H          -2.2271    2.8792    0.4792 H.spc      1 <1>        0.000
     31 H          -3.6800    1.9612    0.4361 H.spc      1 <1>        0.000
     32 H           4.8975   -0.2235    3.3776 H.spc      1 <1>        0.000
@<TRIPOS>BOND
     1    3    4 ar 
     2   10   11 1  
     3    3   17 ar 
     4    4    5 ar 
     5    8   10 1  
     6   11   12 1  
     7    2    3 ar 
     8    4   15 ar 
     9    5    6 ar 
    10    7    8 1  
    11    8   13 1  
    12    2    7 ar 
    13    6   14 1  
    14   12   13 1  
    15    6    7 ar 
    16    1    2 1  
    17   18   19 2  
    18   18   20 1  
    19    9   17 ar 
    20   16   18 1  
    21   15   21 2  
    22   16    9 ar 
    23   15   16 ar 
    24    5   22 1  
    25    9   23 1  
    26   10   24 1  
    27   10   25 1  
    28   11   26 1  
    29   11   27 1  
    30   12   28 1  
    31   12   29 1  
    32   13   30 1  
    33   13   31 1  
    34   20   32 1  
# Name:          frag5-674-24/41815 -- energy: -3.493122
# Creation time: Sat Jun  5 12:53:03 2010


@<TRIPOS>MOLECULE
frag5-674-24/41815 -- energy: -3.493122
   32    34     1     1     1
SMALL
USER_CHARGES


@<TRIPOS>ATOM
      1 F1         -2.0447    0.0472    1.9843 F          1 <1>        0.000
      2 C1         -0.8584    0.1898    1.3349 C.ar       1 <1>        0.000
      3 C2          0.2993   -0.1735    1.9956 C.ar       1 <1>        0.000
      4 C3          1.5638   -0.0669    1.3975 C.ar       1 <1>        0.000
      5 C4          1.5490    0.4300    0.0836 C.ar       1 <1>        0.000
      6 C5          0.3755    0.7816   -0.5785 C.ar       1 <1>        0.000
      7 C6         -0.8927    0.6640    0.0198 C.ar       1 <1>        0.000
      8 N1         -2.0336    0.9784   -0.5640 N.pl3      1 <1>        0.000
      9 C15         1.2767   -0.9946    3.9559 C.ar       1 <1>        0.000
     10 C7         -2.4061    0.7114   -1.9021 C.3        1 <1>        0.000
     11 C8         -3.1624    1.9275   -2.3443 C.3        1 <1>        0.000
     12 C9         -3.3405    2.7858   -1.1082 C.3        1 <1>        0.000
     13 C10        -2.9876    1.8549    0.0061 C.3        1 <1>        0.000
     14 F2          0.4339    1.2645   -1.8412 F          1 <1>        0.000
     15 C13         2.7636   -0.4661    2.1647 C.ar       1 <1>        0.000
     16 C14         2.6255   -0.9036    3.4121 C.ar       1 <1>        0.000
     17 N3          0.2216   -0.6542    3.2929 N.ar       1 <1>        0.000
     18 C18         3.7535   -1.3360    4.2629 C.2        1 <1>        0.000
     19 O1          4.4310   -2.2921    3.9243 O.2        1 <1>        0.000
     20 O2          3.9923   -0.7465    5.4444 O.3        1 <1>        0.000
     21 O3          3.7999   -0.3529    1.6183 O.2        1 <1>        0.000
     22 H           2.4977    0.5454   -0.4406 H.spc      1 <1>        0.000
     23 H           1.1519   -1.3683    4.9722 H.spc      1 <1>        0.000
     24 H          -1.5375    0.5241   -2.5335 H.spc      1 <1>        0.000
     25 H          -3.0117   -0.1915   -1.9803 H.spc      1 <1>        0.000
     26 H          -4.1254    1.6561   -2.7769 H.spc      1 <1>        0.000
     27 H          -2.6213    2.4659   -3.1224 H.spc      1 <1>        0.000
     28 H          -4.3494    3.1882   -1.0170 H.spc      1 <1>        0.000
     29 H          -2.7171    3.6798   -1.1232 H.spc      1 <1>        0.000
     30 H          -2.5942    2.3830    0.8747 H.spc      1 <1>        0.000
     31 H          -3.8583    1.3228    0.3894 H.spc      1 <1>        0.000
     32 H           3.3815   -0.0158    5.5654 H.spc      1 <1>        0.000
@<TRIPOS>BOND
     1    3    4 ar 
     2   10   11 1  
     3    3   17 ar 
     4    4    5 ar 
     5    8   10 1  
     6   11   12 1  
     7    2    3 ar 
     8    4   15 ar 
     9    5    6 ar 
    10    7    8 1  
    11    8   13 1  
    12    2    7 ar 
    13    6   14 1  
    14   12   13 1  
    15    6    7 ar 
    16    1    2 1  
    17   18   19 2  
    18   18   20 1  
    19    9   17 ar 
    20   16   18 1  
    21   15   21 2  
    22   16    9 ar 
    23   15   16 ar 
    24    5   22 1  
    25    9   23 1  
    26   10   24 1  
    27   10   25 1  
    28   11   26 1  
    29   11   27 1  
    30   12   28 1  
    31   12   29 1  
    32   13   30 1  
    33   13   31 1  
    34   20   32 1  
# Name:          frag5-674-24/41815 -- energy: 1.691035
# Creation time: Sat Jun  5 12:53:03 2010


@<TRIPOS>MOLECULE
frag5-674-24/41815 -- energy: 1.691035
   32    34     1     1     1
SMALL
USER_CHARGES


@<TRIPOS>ATOM
      1 F1         -1.9193   -0.6329    1.4937 F          1 <1>        0.000
      2 C1         -0.7712   -0.0536    1.0688 C.ar       1 <1>        0.000
      3 C2          0.3458   -0.3486    1.8222 C.ar       1 <1>        0.000
      4 C3          1.6064    0.1440    1.5086 C.ar       1 <1>        0.000
      5 C4          1.6186    0.9563    0.3779 C.ar       1 <1>        0.000
      6 C5          0.4819    1.2504   -0.3718 C.ar       1 <1>        0.000
      7 C6         -0.7961    0.7400   -0.0887 C.ar       1 <1>        0.000
      8 N1         -1.8972    0.9773   -0.7781 N.pl3      1 <1>        0.000
      9 C15         1.2277   -1.4926    3.6451 C.ar       1 <1>        0.000
     10 C7         -3.2162    0.7849   -0.2936 C.3        1 <1>        0.000
     11 C8         -3.9548    2.0161   -0.6693 C.3        1 <1>        0.000
     12 C9         -3.2680    2.4598   -1.9327 C.3        1 <1>        0.000
     13 C10        -2.0096    1.6589   -2.0173 C.3        1 <1>        0.000
     14 F2          0.6359    2.0623   -1.4367 F          1 <1>        0.000
     15 C13         2.7608   -0.2150    2.3403 C.ar       1 <1>        0.000
     16 C14         2.5800   -1.0193    3.3801 C.ar       1 <1>        0.000
     17 N3          0.2147   -1.1763    2.9257 N.ar       1 <1>        0.000
     18 C18         3.6827   -1.4169    4.2653 C.2        1 <1>        0.000
     19 O1          4.4870   -0.5958    4.6691 O.2        1 <1>        0.000
     20 O2          3.7671   -2.6953    4.6566 O.3        1 <1>        0.000
     21 O3          3.7833    0.2448    1.9936 O.2        1 <1>        0.000
     22 H           2.5694    1.3855    0.0621 H.spc      1 <1>        0.000
     23 H           1.0689   -2.1501    4.4998 H.spc      1 <1>        0.000
     24 H          -3.6755   -0.1054   -0.7232 H.spc      1 <1>        0.000
     25 H          -3.2281    0.6230    0.7843 H.spc      1 <1>        0.000
     26 H          -3.9286    2.7760    0.1117 H.spc      1 <1>        0.000
     27 H          -5.0209    1.8391   -0.8112 H.spc      1 <1>        0.000
     28 H          -3.0562    3.5288   -1.9135 H.spc      1 <1>        0.000
     29 H          -3.9005    2.2964   -2.8053 H.spc      1 <1>        0.000
     30 H          -2.0421    0.9587   -2.8520 H.spc      1 <1>        0.000
     31 H          -1.1453    2.2985   -2.1964 H.spc      1 <1>        0.000
     32 H           3.0613   -3.2013    4.2474 H.spc      1 <1>        0.000
@<TRIPOS>BOND
     1    3    4 ar 
     2   10   11 1  
     3    3   17 ar 
     4    4    5 ar 
     5    8   10 1  
     6   11   12 1  
     7    2    3 ar 
     8    4   15 ar 
     9    5    6 ar 
    10    7    8 1  
    11    8   13 1  
    12    2    7 ar 
    13    6   14 1  
    14   12   13 1  
    15    6    7 ar 
    16    1    2 1  
    17   18   19 2  
    18   18   20 1  
    19    9   17 ar 
    20   16   18 1  
    21   15   21 2  
    22   16    9 ar 
    23   15   16 ar 
    24    5   22 1  
    25    9   23 1  
    26   10   24 1  
    27   10   25 1  
    28   11   26 1  
    29   11   27 1  
    30   12   28 1  
    31   12   29 1  
    32   13   30 1  
    33   13   31 1  
    34   20   32 1  
