#      Rotatable Fragment
#      Build by yxyuan
#
# Name:          frag2-029-677/92655
# Creation time: Sat Jun  5 12:51:56 2010


@<TRIPOS>MOLECULE
frag2-029-677/92655
   18    19     1     1     1
SMALL
USER_CHARGES


@<TRIPOS>ATOM
      1 C4          2.5030    0.2691    0.1930 C.ar       1 <1>        0.000
      2 C5          1.4244    1.1415    0.3016 C.ar       1 <1>        0.000
      3 C6          0.1110    0.6784    0.1378 C.ar       1 <1>        0.000
      4 C7         -0.1105   -0.6795   -0.1368 C.ar       1 <1>        0.000
      5 C8          0.9827   -1.5493   -0.2435 C.ar       1 <1>        0.000
      6 C9          2.2837   -1.0765   -0.0802 C.ar       1 <1>        0.000
      7 C10        -1.4238   -1.1429   -0.3002 C.ar       1 <1>        0.000
      8 C11        -2.5037   -0.2676   -0.1930 C.ar       1 <1>        0.000
      9 C12        -2.2821    1.0754    0.0784 C.ar       1 <1>        0.000
     10 C13        -0.9831    1.5485    0.2438 C.ar       1 <1>        0.000
     11 H           3.5196    0.6405    0.3221 H.spc      1 <1>        0.000
     12 H           1.6022    2.1953    0.5161 H.spc      1 <1>        0.000
     13 H           0.8143   -2.6050   -0.4561 H.spc      1 <1>        0.000
     14 H           3.1279   -1.7606   -0.1665 H.spc      1 <1>        0.000
     15 H          -1.6020   -2.1970   -0.5130 H.spc      1 <1>        0.000
     16 H          -3.5208   -0.6376   -0.3222 H.spc      1 <1>        0.000
     17 H          -3.1258    1.7604    0.1621 H.spc      1 <1>        0.000
     18 H          -0.8154    2.6041    0.4575 H.spc      1 <1>        0.000
@<TRIPOS>BOND
     1    5    6 ar 
     2    7    8 ar 
     3    8    9 ar 
     4    9   10 ar 
     5    4    7 ar 
     6    1    6 ar 
     7    1    2 ar 
     8    2    3 ar 
     9    3    4 ar 
    10    3   10 ar 
    11    4    5 ar 
    12    1   11 1  
    13    2   12 1  
    14    5   13 1  
    15    6   14 1  
    16    7   15 1  
    17    8   16 1  
    18    9   17 1  
    19   10   18 1  
# Name:          frag2-029-677/92655 -- energy: -0.253275
# Creation time: Sat Jun  5 12:51:56 2010


@<TRIPOS>MOLECULE
frag2-029-677/92655 -- energy: -0.253275
   18    19     1     1     1
SMALL
USER_CHARGES


@<TRIPOS>ATOM
      1 C4          2.5030    0.2691    0.1930 C.ar       1 <1>        0.000
      2 C5          1.4244    1.1415    0.3016 C.ar       1 <1>        0.000
      3 C6          0.1110    0.6784    0.1378 C.ar       1 <1>        0.000
      4 C7         -0.1105   -0.6795   -0.1368 C.ar       1 <1>        0.000
      5 C8          0.9827   -1.5493   -0.2435 C.ar       1 <1>        0.000
      6 C9          2.2837   -1.0765   -0.0802 C.ar       1 <1>        0.000
      7 C10        -1.4238   -1.1429   -0.3002 C.ar       1 <1>        0.000
      8 C11        -2.5037   -0.2676   -0.1930 C.ar       1 <1>        0.000
      9 C12        -2.2821    1.0754    0.0784 C.ar       1 <1>        0.000
     10 C13        -0.9831    1.5485    0.2438 C.ar       1 <1>        0.000
     11 H           3.5196    0.6405    0.3221 H.spc      1 <1>        0.000
     12 H           1.6022    2.1953    0.5161 H.spc      1 <1>        0.000
     13 H           0.8143   -2.6050   -0.4561 H.spc      1 <1>        0.000
     14 H           3.1279   -1.7606   -0.1665 H.spc      1 <1>        0.000
     15 H          -1.6020   -2.1970   -0.5130 H.spc      1 <1>        0.000
     16 H          -3.5208   -0.6376   -0.3222 H.spc      1 <1>        0.000
     17 H          -3.1258    1.7604    0.1621 H.spc      1 <1>        0.000
     18 H          -0.8154    2.6041    0.4575 H.spc      1 <1>        0.000
@<TRIPOS>BOND
     1    5    6 ar 
     2    7    8 ar 
     3    8    9 ar 
     4    9   10 ar 
     5    4    7 ar 
     6    1    6 ar 
     7    1    2 ar 
     8    2    3 ar 
     9    3    4 ar 
    10    3   10 ar 
    11    4    5 ar 
    12    1   11 1  
    13    2   12 1  
    14    5   13 1  
    15    6   14 1  
    16    7   15 1  
    17    8   16 1  
    18    9   17 1  
    19   10   18 1  
