#      Rotatable Fragment
#      Build by yxyuan
#
# Name:          frag4-388-71/48856
# Creation time: Sat Jun  5 12:53:40 2010


@<TRIPOS>MOLECULE
frag4-388-71/48856
   16    17     1     1     1
SMALL
USER_CHARGES


@<TRIPOS>ATOM
      1 C2          2.2738    1.2199    0.0681 C.ar       1 <1>        0.000
      2 N1          1.0716    1.6408    0.3142 N.ar       1 <1>        0.000
      3 C3         -0.0306    0.8005    0.2450 C.ar       1 <1>        0.000
      4 C4          0.1713   -0.5998    0.0915 C.ar       1 <1>        0.000
      5 C5         -0.9573   -1.3436   -0.2420 C.ar       1 <1>        0.000
      6 C6         -2.2367   -0.7931   -0.3083 C.ar       1 <1>        0.000
      7 C7         -2.4125    0.5471   -0.0541 C.ar       1 <1>        0.000
      8 C8         -1.3253    1.3039    0.3063 C.ar       1 <1>        0.000
      9 C9          1.5411   -1.0774    0.1134 C.ar       1 <1>        0.000
     10 N3          2.5366   -0.3096    0.1181 N.ar       1 <1>        0.000
     11 H           3.0759    1.9195   -0.1669 H.spc      1 <1>        0.000
     12 H          -0.8353   -2.4043   -0.4612 H.spc      1 <1>        0.000
     13 H          -3.0917   -1.4206   -0.5599 H.spc      1 <1>        0.000
     14 H          -3.3998    1.0013   -0.1375 H.spc      1 <1>        0.000
     15 H          -1.4811    2.3266    0.6496 H.spc      1 <1>        0.000
     16 H           1.7154   -2.1533    0.1264 H.spc      1 <1>        0.000
@<TRIPOS>BOND
     1    6    7 ar 
     2    9   10 ar 
     3    7    8 ar 
     4    1    2 ar 
     5    1   10 ar 
     6    2    3 ar 
     7    3    4 ar 
     8    3    8 ar 
     9    4    5 ar 
    10    4    9 ar 
    11    5    6 ar 
    12    1   11 1  
    13    5   12 1  
    14    6   13 1  
    15    7   14 1  
    16    8   15 1  
    17    9   16 1  
# Name:          frag4-388-71/48856 -- energy: -0.084235
# Creation time: Sat Jun  5 12:53:40 2010


@<TRIPOS>MOLECULE
frag4-388-71/48856 -- energy: -0.084235
   16    17     1     1     1
SMALL
USER_CHARGES


@<TRIPOS>ATOM
      1 C2          2.2738    1.2199    0.0681 C.ar       1 <1>        0.000
      2 N1          1.0716    1.6408    0.3142 N.ar       1 <1>        0.000
      3 C3         -0.0306    0.8005    0.2450 C.ar       1 <1>        0.000
      4 C4          0.1713   -0.5998    0.0915 C.ar       1 <1>        0.000
      5 C5         -0.9573   -1.3436   -0.2420 C.ar       1 <1>        0.000
      6 C6         -2.2367   -0.7931   -0.3083 C.ar       1 <1>        0.000
      7 C7         -2.4125    0.5471   -0.0541 C.ar       1 <1>        0.000
      8 C8         -1.3253    1.3039    0.3063 C.ar       1 <1>        0.000
      9 C9          1.5411   -1.0774    0.1134 C.ar       1 <1>        0.000
     10 N3          2.5366   -0.3096    0.1181 N.ar       1 <1>        0.000
     11 H           3.0759    1.9195   -0.1669 H.spc      1 <1>        0.000
     12 H          -0.8353   -2.4043   -0.4612 H.spc      1 <1>        0.000
     13 H          -3.0917   -1.4206   -0.5599 H.spc      1 <1>        0.000
     14 H          -3.3998    1.0013   -0.1375 H.spc      1 <1>        0.000
     15 H          -1.4811    2.3266    0.6496 H.spc      1 <1>        0.000
     16 H           1.7154   -2.1533    0.1264 H.spc      1 <1>        0.000
@<TRIPOS>BOND
     1    6    7 ar 
     2    9   10 ar 
     3    7    8 ar 
     4    1    2 ar 
     5    1   10 ar 
     6    2    3 ar 
     7    3    4 ar 
     8    3    8 ar 
     9    4    5 ar 
    10    4    9 ar 
    11    5    6 ar 
    12    1   11 1  
    13    5   12 1  
    14    6   13 1  
    15    7   14 1  
    16    8   15 1  
    17    9   16 1  
