#      Rotatable Fragment
#      Build by yxyuan
#
# Name:          frag4-398-209/150395
# Creation time: Sat Jun  5 12:53:34 2010


@<TRIPOS>MOLECULE
frag4-398-209/150395
    7     7     1     1     1
SMALL
USER_CHARGES


@<TRIPOS>ATOM
      1 N6         -0.9246   -0.1675    0.1699 N.ar       1 <1>        0.000
      2 C30         0.2237   -0.9220   -0.0338 C.ar       1 <1>        0.000
      3 C31        -0.5634    1.1371    0.0947 C.ar       1 <1>        0.000
      4 N7          1.2301   -0.1748   -0.2296 N.ar       1 <1>        0.000
      5 N8          0.7575    1.1174   -0.1576 N.ar       1 <1>        0.000
      6 H           0.2559   -2.0115   -0.0264 H.spc      1 <1>        0.000
      7 H          -1.2038    2.0112    0.2129 H.spc      1 <1>        0.000
@<TRIPOS>BOND
     1    1    2 ar 
     2    1    3 ar 
     3    2    4 ar 
     4    3    5 ar 
     5    4    5 ar 
     6    2    6 1  
     7    3    7 1  
# Name:          frag4-398-209/150395 -- energy: -0.091028
# Creation time: Sat Jun  5 12:53:34 2010


@<TRIPOS>MOLECULE
frag4-398-209/150395 -- energy: -0.091028
    7     7     1     1     1
SMALL
USER_CHARGES


@<TRIPOS>ATOM
      1 N6         -0.9246   -0.1675    0.1699 N.ar       1 <1>        0.000
      2 C30         0.2237   -0.9220   -0.0338 C.ar       1 <1>        0.000
      3 C31        -0.5634    1.1371    0.0947 C.ar       1 <1>        0.000
      4 N7          1.2301   -0.1748   -0.2296 N.ar       1 <1>        0.000
      5 N8          0.7575    1.1174   -0.1576 N.ar       1 <1>        0.000
      6 H           0.2559   -2.0115   -0.0264 H.spc      1 <1>        0.000
      7 H          -1.2038    2.0112    0.2129 H.spc      1 <1>        0.000
@<TRIPOS>BOND
     1    1    2 ar 
     2    1    3 ar 
     3    2    4 ar 
     4    3    5 ar 
     5    4    5 ar 
     6    2    6 1  
     7    3    7 1  
