#      Rotatable Fragment
#      Build by yxyuan
#
# Name:          frag3-283-2/31924
# Creation time: Sat Jun  5 12:52:45 2010


@<TRIPOS>MOLECULE
frag3-283-2/31924
   10     9     1     1     1
SMALL
USER_CHARGES


@<TRIPOS>ATOM
      1 C2          7.4613    0.6201   -0.4371 C.2        1 <1>        0.000
      2 C3          6.7706   -0.5210   -0.4253 C.2        1 <1>        0.000
      3 C4          5.3358   -0.6998   -0.4364 C.2        1 <1>        0.000
      4 C5          4.6268   -1.6736   -1.0156 C.2        1 <1>        0.000
      5 F4          6.8818    1.8288   -0.4808 F          1 <1>        0.000
      6 H           8.5497    0.5676   -0.4099 H.spc      1 <1>        0.000
      7 H           7.3635   -1.4354   -0.4047 H.spc      1 <1>        0.000
      8 H           4.7585    0.0563    0.0957 H.spc      1 <1>        0.000
      9 H           5.1358   -2.4651   -1.5656 H.spc      1 <1>        0.000
     10 H           3.5396   -1.6762   -0.9379 H.spc      1 <1>        0.000
@<TRIPOS>BOND
     1    1    2 2  
     2    1    5 1  
     3    2    3 1  
     4    3    4 2  
     5    1    6 1  
     6    2    7 1  
     7    3    8 1  
     8    4    9 1  
     9    4   10 1  
# Name:          frag3-283-2/31924
# Creation time: Sat Jun  5 12:52:45 2010


@<TRIPOS>MOLECULE
frag3-283-2/31924
   10     9     1     1     1
SMALL
USER_CHARGES


@<TRIPOS>ATOM
      1 C2          7.3261    0.6283   -0.3736 C.2        1 <1>        0.000
      2 C3          6.9842   -0.6513   -0.2288 C.2        1 <1>        0.000
      3 C4          5.6867   -1.2585   -0.4091 C.2        1 <1>        0.000
      4 C5          4.6195   -0.7497   -1.0390 C.2        1 <1>        0.000
      5 F4          6.4597    1.5857   -0.7448 F          1 <1>        0.000
      6 H           8.3606    0.9127   -0.1813 H.spc      1 <1>        0.000
      7 H           7.7879   -1.3271    0.0636 H.spc      1 <1>        0.000
      8 H           5.5600   -2.2525    0.0198 H.spc      1 <1>        0.000
      9 H           4.6746    0.2402   -1.4919 H.spc      1 <1>        0.000
     10 H           3.6960   -1.3256   -1.0987 H.spc      1 <1>        0.000
@<TRIPOS>BOND
     1    1    2 2  
     2    1    5 1  
     3    2    3 1  
     4    3    4 2  
     5    1    6 1  
     6    2    7 1  
     7    3    8 1  
     8    4    9 1  
     9    4   10 1  
# Name:          frag3-283-2/31924 -- energy: -0.477161
# Creation time: Sat Jun  5 12:52:45 2010


@<TRIPOS>MOLECULE
frag3-283-2/31924 -- energy: -0.477161
   10     9     1     1     1
SMALL
USER_CHARGES


@<TRIPOS>ATOM
      1 C2          7.4613    0.6201   -0.4371 C.2        1 <1>        0.000
      2 C3          6.7706   -0.5210   -0.4253 C.2        1 <1>        0.000
      3 C4          5.3358   -0.6998   -0.4364 C.2        1 <1>        0.000
      4 C5          4.6268   -1.6736   -1.0156 C.2        1 <1>        0.000
      5 F4          6.8818    1.8288   -0.4808 F          1 <1>        0.000
      6 H           8.5497    0.5676   -0.4099 H.spc      1 <1>        0.000
      7 H           7.3635   -1.4354   -0.4047 H.spc      1 <1>        0.000
      8 H           4.7585    0.0563    0.0957 H.spc      1 <1>        0.000
      9 H           5.1358   -2.4651   -1.5656 H.spc      1 <1>        0.000
     10 H           3.5396   -1.6762   -0.9379 H.spc      1 <1>        0.000
@<TRIPOS>BOND
     1    1    2 2  
     2    1    5 1  
     3    2    3 1  
     4    3    4 2  
     5    1    6 1  
     6    2    7 1  
     7    3    8 1  
     8    4    9 1  
     9    4   10 1  
# Name:          frag3-283-2/31924 -- energy: -0.469832
# Creation time: Sat Jun  5 12:52:45 2010


@<TRIPOS>MOLECULE
frag3-283-2/31924 -- energy: -0.469832
   10     9     1     1     1
SMALL
USER_CHARGES


@<TRIPOS>ATOM
      1 C2          7.3261    0.6283   -0.3736 C.2        1 <1>        0.000
      2 C3          6.9842   -0.6513   -0.2288 C.2        1 <1>        0.000
      3 C4          5.6867   -1.2585   -0.4091 C.2        1 <1>        0.000
      4 C5          4.6195   -0.7497   -1.0390 C.2        1 <1>        0.000
      5 F4          6.4597    1.5857   -0.7448 F          1 <1>        0.000
      6 H           8.3606    0.9127   -0.1813 H.spc      1 <1>        0.000
      7 H           7.7879   -1.3271    0.0636 H.spc      1 <1>        0.000
      8 H           5.5600   -2.2525    0.0198 H.spc      1 <1>        0.000
      9 H           4.6746    0.2402   -1.4919 H.spc      1 <1>        0.000
     10 H           3.6960   -1.3256   -1.0987 H.spc      1 <1>        0.000
@<TRIPOS>BOND
     1    1    2 2  
     2    1    5 1  
     3    2    3 1  
     4    3    4 2  
     5    1    6 1  
     6    2    7 1  
     7    3    8 1  
     8    4    9 1  
     9    4   10 1  
