#      Rotatable Fragment
#      Build by yxyuan
#
# Name:          frag3-169-14/96164
# Creation time: Sat Jun  5 12:53:07 2010


@<TRIPOS>MOLECULE
frag3-169-14/96164
    8     7     1     1     1
SMALL
USER_CHARGES


@<TRIPOS>ATOM
      1 N1         -1.5786    0.1202   -0.1001 N.pl3      1 <1>        0.000
      2 C9         -0.2546   -0.2026    0.0114 C.2        1 <1>        0.000
      3 N2          0.4638   -0.6455    0.9594 N.2        1 <1>        0.000
      4 C14         1.7573   -0.9793    1.0364 C.1        1 <1>        0.000
      5 N3          2.8474   -1.3205    1.2375 N.1        1 <1>        0.000
      6 H          -2.1989    0.0135    0.7026 H.spc      1 <1>        0.000
      7 H          -1.9460    0.4677   -0.9859 H.spc      1 <1>        0.000
      8 H           0.3035   -0.0460   -0.9117 H.spc      1 <1>        0.000
@<TRIPOS>BOND
     1    1    2 1  
     2    2    3 2  
     3    3    4 1  
     4    4    5 3  
     5    1    6 1  
     6    1    7 1  
     7    2    8 1  
# Name:          frag3-169-14/96164 -- energy: -0.230381
# Creation time: Sat Jun  5 12:53:07 2010


@<TRIPOS>MOLECULE
frag3-169-14/96164 -- energy: -0.230381
    8     7     1     1     1
SMALL
USER_CHARGES


@<TRIPOS>ATOM
      1 N1         -1.5786    0.1202   -0.1001 N.pl3      1 <1>        0.000
      2 C9         -0.2546   -0.2026    0.0114 C.2        1 <1>        0.000
      3 N2          0.4638   -0.6455    0.9594 N.2        1 <1>        0.000
      4 C14         1.7573   -0.9793    1.0364 C.1        1 <1>        0.000
      5 N3          2.8474   -1.3205    1.2375 N.1        1 <1>        0.000
      6 H          -2.1989    0.0135    0.7026 H.spc      1 <1>        0.000
      7 H          -1.9460    0.4677   -0.9859 H.spc      1 <1>        0.000
      8 H           0.3035   -0.0460   -0.9117 H.spc      1 <1>        0.000
@<TRIPOS>BOND
     1    1    2 1  
     2    2    3 2  
     3    3    4 1  
     4    4    5 3  
     5    1    6 1  
     6    1    7 1  
     7    2    8 1  
