#      Rotatable Fragment
#      Build by yxyuan
#
# Name:          frag5-568-45/41815
# Creation time: Sat Jun  5 12:52:54 2010


@<TRIPOS>MOLECULE
frag5-568-45/41815
   18    19     1     1     1
SMALL
USER_CHARGES


@<TRIPOS>ATOM
      1 C3          2.8838   -0.0565    0.0353 C.ar       1 <1>        0.000
      2 N2          1.8378    0.8054    0.0051 N.ar       1 <1>        0.000
      3 C4          0.5644    0.3317   -0.0007 C.ar       1 <1>        0.000
      4 C5          0.3339   -1.0164    0.0228 C.ar       1 <1>        0.000
      5 N3         -0.9362   -1.4774    0.0149 N.ar       1 <1>        0.000
      6 C6         -1.9905   -0.6228   -0.0139 C.ar       1 <1>        0.000
      7 N4         -1.7622    0.7055   -0.0415 N.ar       1 <1>        0.000
      8 C7         -0.5124    1.2200   -0.0322 C.ar       1 <1>        0.000
      9 N5         -0.3218    2.6525   -0.0561 N.pl3      1 <1>        0.000
     10 N6         -3.3482   -1.1285   -0.0143 N.pl3      1 <1>        0.000
     11 N7          1.3724   -1.8837    0.0545 N.ar       1 <1>        0.000
     12 C8          2.6470   -1.4256    0.0593 C.ar       1 <1>        0.000
     13 H           3.9057    0.3226    0.0407 H.spc      1 <1>        0.000
     14 H          -1.1301    3.2742   -0.0800 H.spc      1 <1>        0.000
     15 H           0.6210    3.0417   -0.0491 H.spc      1 <1>        0.000
     16 H          -4.1344   -0.4790   -0.0355 H.spc      1 <1>        0.000
     17 H          -3.5179   -2.1341    0.0066 H.spc      1 <1>        0.000
     18 H           3.4816   -2.1263    0.0818 H.spc      1 <1>        0.000
@<TRIPOS>BOND
     1    6   10 1  
     2    8    9 1  
     3    6    7 ar 
     4   11   12 ar 
     5    7    8 ar 
     6    5    6 ar 
     7    1    2 ar 
     8    1   12 ar 
     9    2    3 ar 
    10    3    4 ar 
    11    3    8 ar 
    12    4    5 ar 
    13    4   11 ar 
    14    1   13 1  
    15    9   14 1  
    16    9   15 1  
    17   10   16 1  
    18   10   17 1  
    19   12   18 1  
# Name:          frag5-568-45/41815 -- energy: -0.114769
# Creation time: Sat Jun  5 12:52:54 2010


@<TRIPOS>MOLECULE
frag5-568-45/41815 -- energy: -0.114769
   18    19     1     1     1
SMALL
USER_CHARGES


@<TRIPOS>ATOM
      1 C3          2.8838   -0.0565    0.0353 C.ar       1 <1>        0.000
      2 N2          1.8378    0.8054    0.0051 N.ar       1 <1>        0.000
      3 C4          0.5644    0.3317   -0.0007 C.ar       1 <1>        0.000
      4 C5          0.3339   -1.0164    0.0228 C.ar       1 <1>        0.000
      5 N3         -0.9362   -1.4774    0.0149 N.ar       1 <1>        0.000
      6 C6         -1.9905   -0.6228   -0.0139 C.ar       1 <1>        0.000
      7 N4         -1.7622    0.7055   -0.0415 N.ar       1 <1>        0.000
      8 C7         -0.5124    1.2200   -0.0322 C.ar       1 <1>        0.000
      9 N5         -0.3218    2.6525   -0.0561 N.pl3      1 <1>        0.000
     10 N6         -3.3482   -1.1285   -0.0143 N.pl3      1 <1>        0.000
     11 N7          1.3724   -1.8837    0.0545 N.ar       1 <1>        0.000
     12 C8          2.6470   -1.4256    0.0593 C.ar       1 <1>        0.000
     13 H           3.9057    0.3226    0.0407 H.spc      1 <1>        0.000
     14 H          -1.1301    3.2742   -0.0800 H.spc      1 <1>        0.000
     15 H           0.6210    3.0417   -0.0491 H.spc      1 <1>        0.000
     16 H          -4.1344   -0.4790   -0.0355 H.spc      1 <1>        0.000
     17 H          -3.5179   -2.1341    0.0066 H.spc      1 <1>        0.000
     18 H           3.4816   -2.1263    0.0818 H.spc      1 <1>        0.000
@<TRIPOS>BOND
     1    6   10 1  
     2    8    9 1  
     3    6    7 ar 
     4   11   12 ar 
     5    7    8 ar 
     6    5    6 ar 
     7    1    2 ar 
     8    1   12 ar 
     9    2    3 ar 
    10    3    4 ar 
    11    3    8 ar 
    12    4    5 ar 
    13    4   11 ar 
    14    1   13 1  
    15    9   14 1  
    16    9   15 1  
    17   10   16 1  
    18   10   17 1  
    19   12   18 1  
