#      Rotatable Fragment
#      Build by yxyuan
#
# Name:          frag4-493-31/48856
# Creation time: Sat Jun  5 12:52:50 2010


@<TRIPOS>MOLECULE
frag4-493-31/48856
   21    22     1     1     1
SMALL
USER_CHARGES


@<TRIPOS>ATOM
      1 C15         4.4114   -0.5880    1.3248 C.ar       1 <1>        0.000
      2 C16         5.4755   -1.1440    2.0047 C.ar       1 <1>        0.000
      3 C17         6.8044   -0.8481    1.7074 C.ar       1 <1>        0.000
      4 C18         7.0531    0.0779    0.6437 C.ar       1 <1>        0.000
      5 C19         5.9598    0.6294   -0.0320 C.ar       1 <1>        0.000
      6 C20         4.6561    0.3072    0.2966 C.ar       1 <1>        0.000
      7 C21         8.4505    0.4498    0.2608 C.3        1 <1>        0.000
      8 C22         9.5651   -0.2171    1.0708 C.3        1 <1>        0.000
      9 C23         9.1173   -1.1758    2.1655 C.3        1 <1>        0.000
     10 N3          7.8317   -1.4171    2.4011 N.pl3      1 <1>        0.000
     11 H           3.3884   -0.8506    1.5941 H.spc      1 <1>        0.000
     12 H           5.2671   -1.8469    2.8113 H.spc      1 <1>        0.000
     13 H           6.1412    1.3350   -0.8427 H.spc      1 <1>        0.000
     14 H           3.8261    0.7548   -0.2500 H.spc      1 <1>        0.000
     15 H           8.5834    0.1239   -0.7708 H.spc      1 <1>        0.000
     16 H           8.5422    1.5216    0.4366 H.spc      1 <1>        0.000
     17 H          10.1017    0.5886    1.5719 H.spc      1 <1>        0.000
     18 H          10.1428   -0.8113    0.3628 H.spc      1 <1>        0.000
     19 H           9.4630   -0.6996    3.0830 H.spc      1 <1>        0.000
     20 H           9.5054   -2.1405    1.8385 H.spc      1 <1>        0.000
     21 H           7.5982   -2.0701    3.1491 H.spc      1 <1>        0.000
@<TRIPOS>BOND
     1    3   10 1  
     2    7    8 1  
     3    5    6 ar 
     4    4    5 ar 
     5    8    9 1  
     6    3    4 ar 
     7    4    7 1  
     8    1    2 ar 
     9    1    6 ar 
    10    2    3 ar 
    11    9   10 1  
    12    1   11 1  
    13    2   12 1  
    14    5   13 1  
    15    6   14 1  
    16    7   15 1  
    17    7   16 1  
    18    8   17 1  
    19    8   18 1  
    20    9   19 1  
    21    9   20 1  
    22   10   21 1  
# Name:          frag4-493-31/48856 -- energy: -1.098364
# Creation time: Sat Jun  5 12:52:50 2010


@<TRIPOS>MOLECULE
frag4-493-31/48856 -- energy: -1.098364
   21    22     1     1     1
SMALL
USER_CHARGES


@<TRIPOS>ATOM
      1 C15         4.4114   -0.5880    1.3248 C.ar       1 <1>        0.000
      2 C16         5.4755   -1.1440    2.0047 C.ar       1 <1>        0.000
      3 C17         6.8044   -0.8481    1.7074 C.ar       1 <1>        0.000
      4 C18         7.0531    0.0779    0.6437 C.ar       1 <1>        0.000
      5 C19         5.9598    0.6294   -0.0320 C.ar       1 <1>        0.000
      6 C20         4.6561    0.3072    0.2966 C.ar       1 <1>        0.000
      7 C21         8.4505    0.4498    0.2608 C.3        1 <1>        0.000
      8 C22         9.5651   -0.2171    1.0708 C.3        1 <1>        0.000
      9 C23         9.1173   -1.1758    2.1655 C.3        1 <1>        0.000
     10 N3          7.8317   -1.4171    2.4011 N.pl3      1 <1>        0.000
     11 H           3.3884   -0.8506    1.5941 H.spc      1 <1>        0.000
     12 H           5.2671   -1.8469    2.8113 H.spc      1 <1>        0.000
     13 H           6.1412    1.3350   -0.8427 H.spc      1 <1>        0.000
     14 H           3.8261    0.7548   -0.2500 H.spc      1 <1>        0.000
     15 H           8.5834    0.1239   -0.7708 H.spc      1 <1>        0.000
     16 H           8.5422    1.5216    0.4366 H.spc      1 <1>        0.000
     17 H          10.1017    0.5886    1.5719 H.spc      1 <1>        0.000
     18 H          10.1428   -0.8113    0.3628 H.spc      1 <1>        0.000
     19 H           9.4630   -0.6996    3.0830 H.spc      1 <1>        0.000
     20 H           9.5054   -2.1405    1.8385 H.spc      1 <1>        0.000
     21 H           7.5982   -2.0701    3.1491 H.spc      1 <1>        0.000
@<TRIPOS>BOND
     1    3   10 1  
     2    7    8 1  
     3    5    6 ar 
     4    4    5 ar 
     5    8    9 1  
     6    3    4 ar 
     7    4    7 1  
     8    1    2 ar 
     9    1    6 ar 
    10    2    3 ar 
    11    9   10 1  
    12    1   11 1  
    13    2   12 1  
    14    5   13 1  
    15    6   14 1  
    16    7   15 1  
    17    7   16 1  
    18    8   17 1  
    19    8   18 1  
    20    9   19 1  
    21    9   20 1  
    22   10   21 1  
