#      Rotatable Fragment
#      Build by yxyuan
#
# Name:          frag3-101-257/31924
# Creation time: Sat Jun  5 12:51:59 2010


@<TRIPOS>MOLECULE
frag3-101-257/31924
    9     8     1     1     1
SMALL
USER_CHARGES


@<TRIPOS>ATOM
      1 C29        -1.5738    0.0451    0.1207 C.2        1 <1>        0.000
      2 C30        -0.4034    0.0035   -0.5352 C.2        1 <1>        0.000
      3 C31         0.8749    0.0554    0.1680 C.2        1 <1>        0.000
      4 O8          1.0901   -0.4939    1.2313 O.2        1 <1>        0.000
      5 O9          1.8029    0.7524   -0.4835 O.3        1 <1>        0.000
      6 H          -1.5868    0.1196    1.2081 H.spc      1 <1>        0.000
      7 H          -2.5112    0.0044   -0.4341 H.spc      1 <1>        0.000
      8 H          -0.4075   -0.0711   -1.6226 H.spc      1 <1>        0.000
      9 H           1.4283    1.1006   -1.2959 H.spc      1 <1>        0.000
@<TRIPOS>BOND
     1    1    2 2  
     2    2    3 1  
     3    3    4 2  
     4    3    5 1  
     5    1    6 1  
     6    1    7 1  
     7    2    8 1  
     8    5    9 1  
# Name:          frag3-101-257/31924
# Creation time: Sat Jun  5 12:51:59 2010


@<TRIPOS>MOLECULE
frag3-101-257/31924
    9     8     1     1     1
SMALL
USER_CHARGES


@<TRIPOS>ATOM
      1 C29        -1.3856    0.3109   -0.6927 C.2        1 <1>        0.000
      2 C30        -0.6005   -0.1262    0.2997 C.2        1 <1>        0.000
      3 C31         0.8511    0.0029    0.3266 C.2        1 <1>        0.000
      4 O8          1.4979   -0.6137    1.1606 O.2        1 <1>        0.000
      5 O9          1.4278    0.7886   -0.5929 O.3        1 <1>        0.000
      6 H          -0.9450    0.8036   -1.5594 H.spc      1 <1>        0.000
      7 H          -2.4654    0.1740   -0.6340 H.spc      1 <1>        0.000
      8 H          -1.0811   -0.6134    1.1481 H.spc      1 <1>        0.000
      9 H           0.7498    1.1794   -1.1489 H.spc      1 <1>        0.000
@<TRIPOS>BOND
     1    1    2 2  
     2    2    3 1  
     3    3    4 2  
     4    3    5 1  
     5    1    6 1  
     6    1    7 1  
     7    2    8 1  
     8    5    9 1  
# Name:          frag3-101-257/31924 -- energy: -0.044465
# Creation time: Sat Jun  5 12:51:59 2010


@<TRIPOS>MOLECULE
frag3-101-257/31924 -- energy: -0.044465
    9     8     1     1     1
SMALL
USER_CHARGES


@<TRIPOS>ATOM
      1 C29        -1.5738    0.0451    0.1207 C.2        1 <1>        0.000
      2 C30        -0.4034    0.0035   -0.5352 C.2        1 <1>        0.000
      3 C31         0.8749    0.0554    0.1680 C.2        1 <1>        0.000
      4 O8          1.0901   -0.4939    1.2313 O.2        1 <1>        0.000
      5 O9          1.8029    0.7524   -0.4835 O.3        1 <1>        0.000
      6 H          -1.5868    0.1196    1.2081 H.spc      1 <1>        0.000
      7 H          -2.5112    0.0044   -0.4341 H.spc      1 <1>        0.000
      8 H          -0.4075   -0.0711   -1.6226 H.spc      1 <1>        0.000
      9 H           1.4283    1.1006   -1.2959 H.spc      1 <1>        0.000
@<TRIPOS>BOND
     1    1    2 2  
     2    2    3 1  
     3    3    4 2  
     4    3    5 1  
     5    1    6 1  
     6    1    7 1  
     7    2    8 1  
     8    5    9 1  
# Name:          frag3-101-257/31924 -- energy: 1.192054
# Creation time: Sat Jun  5 12:51:59 2010


@<TRIPOS>MOLECULE
frag3-101-257/31924 -- energy: 1.192054
    9     8     1     1     1
SMALL
USER_CHARGES


@<TRIPOS>ATOM
      1 C29        -1.3856    0.3109   -0.6927 C.2        1 <1>        0.000
      2 C30        -0.6005   -0.1262    0.2997 C.2        1 <1>        0.000
      3 C31         0.8511    0.0029    0.3266 C.2        1 <1>        0.000
      4 O8          1.4979   -0.6137    1.1606 O.2        1 <1>        0.000
      5 O9          1.4278    0.7886   -0.5929 O.3        1 <1>        0.000
      6 H          -0.9450    0.8036   -1.5594 H.spc      1 <1>        0.000
      7 H          -2.4654    0.1740   -0.6340 H.spc      1 <1>        0.000
      8 H          -1.0811   -0.6134    1.1481 H.spc      1 <1>        0.000
      9 H           0.7498    1.1794   -1.1489 H.spc      1 <1>        0.000
@<TRIPOS>BOND
     1    1    2 2  
     2    2    3 1  
     3    3    4 2  
     4    3    5 1  
     5    1    6 1  
     6    1    7 1  
     7    2    8 1  
     8    5    9 1  
