#      Rotatable Fragment
#      Build by yxyuan
#
# Name:          frag5-624-88/138278
# Creation time: Sat Jun  5 12:53:48 2010


@<TRIPOS>MOLECULE
frag5-624-88/138278
   14    14     1     1     1
SMALL
USER_CHARGES


@<TRIPOS>ATOM
      1 C5          1.1255   -1.0246    0.0560 C.ar       1 <1>        0.000
      2 C8          1.0158    0.3688    0.0232 C.ar       1 <1>        0.000
      3 C9         -0.0044   -1.8020    0.0356 C.ar       1 <1>        0.000
      4 N1         -0.2296    0.9006   -0.0329 N.ar       1 <1>        0.000
      5 N2          2.1577    1.2281    0.0438 N.pl3      1 <1>        0.000
      6 N3         -1.2053   -1.2054   -0.0196 N.ar       1 <1>        0.000
      7 C12        -1.3460    0.1442   -0.0489 C.ar       1 <1>        0.000
      8 N4         -2.6425    0.7534   -0.0971 N.pl3      1 <1>        0.000
      9 H           2.1088   -1.4931    0.0978 H.spc      1 <1>        0.000
     10 H           0.0720   -2.8890    0.0638 H.spc      1 <1>        0.000
     11 H           3.0956    0.8291    0.0838 H.spc      1 <1>        0.000
     12 H           2.0348    2.2403    0.0185 H.spc      1 <1>        0.000
     13 H          -2.7280    1.7696   -0.1197 H.spc      1 <1>        0.000
     14 H          -3.4796    0.1708   -0.1088 H.spc      1 <1>        0.000
@<TRIPOS>BOND
     1    1    2 ar 
     2    1    3 ar 
     3    2    4 ar 
     4    2    5 1  
     5    3    6 ar 
     6    4    7 ar 
     7    6    7 ar 
     8    7    8 1  
     9    1    9 1  
    10    3   10 1  
    11    5   11 1  
    12    5   12 1  
    13    8   13 1  
    14    8   14 1  
# Name:          frag5-624-88/138278 -- energy: -0.183693
# Creation time: Sat Jun  5 12:53:48 2010


@<TRIPOS>MOLECULE
frag5-624-88/138278 -- energy: -0.183693
   14    14     1     1     1
SMALL
USER_CHARGES


@<TRIPOS>ATOM
      1 C5          1.1255   -1.0246    0.0560 C.ar       1 <1>        0.000
      2 C8          1.0158    0.3688    0.0232 C.ar       1 <1>        0.000
      3 C9         -0.0044   -1.8020    0.0356 C.ar       1 <1>        0.000
      4 N1         -0.2296    0.9006   -0.0329 N.ar       1 <1>        0.000
      5 N2          2.1577    1.2281    0.0438 N.pl3      1 <1>        0.000
      6 N3         -1.2053   -1.2054   -0.0196 N.ar       1 <1>        0.000
      7 C12        -1.3460    0.1442   -0.0489 C.ar       1 <1>        0.000
      8 N4         -2.6425    0.7534   -0.0971 N.pl3      1 <1>        0.000
      9 H           2.1088   -1.4931    0.0978 H.spc      1 <1>        0.000
     10 H           0.0720   -2.8890    0.0638 H.spc      1 <1>        0.000
     11 H           3.0956    0.8291    0.0838 H.spc      1 <1>        0.000
     12 H           2.0348    2.2403    0.0185 H.spc      1 <1>        0.000
     13 H          -2.7280    1.7696   -0.1197 H.spc      1 <1>        0.000
     14 H          -3.4796    0.1708   -0.1088 H.spc      1 <1>        0.000
@<TRIPOS>BOND
     1    1    2 ar 
     2    1    3 ar 
     3    2    4 ar 
     4    2    5 1  
     5    3    6 ar 
     6    4    7 ar 
     7    6    7 ar 
     8    7    8 1  
     9    1    9 1  
    10    3   10 1  
    11    5   11 1  
    12    5   12 1  
    13    8   13 1  
    14    8   14 1  
