#      Rotatable Fragment
#      Build by yxyuan
#
# Name:          frag3-275-3/96164
# Creation time: Sat Jun  5 12:53:23 2010


@<TRIPOS>MOLECULE
frag3-275-3/96164
    6     5     1     1     1
SMALL
USER_CHARGES


@<TRIPOS>ATOM
      1 C30        -0.2717   -0.6599   -0.2678 C.2        1 <1>        0.000
      2 C34         0.2055    0.4964    0.2024 C.2        1 <1>        0.000
      3 Cl1        -0.8952    1.7883    0.4953 Cl         1 <1>        0.000
      4 Cl2         1.8973    0.6433    0.4918 Cl         1 <1>        0.000
      5 H           0.4066   -1.4908   -0.4619 H.spc      1 <1>        0.000
      6 H          -1.3392   -0.7722   -0.4572 H.spc      1 <1>        0.000
@<TRIPOS>BOND
     1    1    2 2  
     2    2    3 1  
     3    2    4 1  
     4    1    5 1  
     5    1    6 1  
# Name:          frag3-275-3/96164 -- energy: -0.145253
# Creation time: Sat Jun  5 12:53:23 2010


@<TRIPOS>MOLECULE
frag3-275-3/96164 -- energy: -0.145253
    6     5     1     1     1
SMALL
USER_CHARGES


@<TRIPOS>ATOM
      1 C30        -0.2717   -0.6599   -0.2678 C.2        1 <1>        0.000
      2 C34         0.2055    0.4964    0.2024 C.2        1 <1>        0.000
      3 Cl1        -0.8952    1.7883    0.4953 Cl         1 <1>        0.000
      4 Cl2         1.8973    0.6433    0.4918 Cl         1 <1>        0.000
      5 H           0.4066   -1.4908   -0.4619 H.spc      1 <1>        0.000
      6 H          -1.3392   -0.7722   -0.4572 H.spc      1 <1>        0.000
@<TRIPOS>BOND
     1    1    2 2  
     2    2    3 1  
     3    2    4 1  
     4    1    5 1  
     5    1    6 1  
