#      Rotatable Fragment
#      Build by yxyuan
#
# Name:          frag3-210-7/96164
# Creation time: Sat Jun  5 12:53:11 2010


@<TRIPOS>MOLECULE
frag3-210-7/96164
   12    11     1     1     1
SMALL
USER_CHARGES


@<TRIPOS>ATOM
      1 C1         -0.0560    0.2845   -0.4177 C.2        1 <1>        0.000
      2 N1          0.9114    1.0337   -0.9644 N.pl3      1 <1>        0.000
      3 N2         -0.9302    0.8835    0.3823 N.2        1 <1>        0.000
      4 N3         -0.2128   -1.0098   -0.6598 N.am       1 <1>        0.000
      5 C4         -1.1643   -1.9085   -0.1826 C.2        1 <1>        0.000
      6 O1         -1.3880   -2.9093   -1.0093 O.3        1 <1>        0.000
      7 O2         -1.7173   -1.6537    0.8594 O.2        1 <1>        0.000
      8 H           0.9596    2.0321   -0.7612 H.spc      1 <1>        0.000
      9 H           1.5995    0.6055   -1.5837 H.spc      1 <1>        0.000
     10 H          -1.6963    0.3489    0.7919 H.spc      1 <1>        0.000
     11 H           0.4736   -1.4121   -1.2981 H.spc      1 <1>        0.000
     12 H          -0.7880   -2.8463   -1.7560 H.spc      1 <1>        0.000
@<TRIPOS>BOND
     1    1    2 1  
     2    1    3 2  
     3    1    4 1  
     4    4    5 am 
     5    5    6 1  
     6    5    7 2  
     7    2    8 1  
     8    2    9 1  
     9    3   10 1  
    10    4   11 1  
    11    6   12 1  
# Name:          frag3-210-7/96164
# Creation time: Sat Jun  5 12:53:11 2010


@<TRIPOS>MOLECULE
frag3-210-7/96164
   12    11     1     1     1
SMALL
USER_CHARGES


@<TRIPOS>ATOM
      1 C1         -0.1023    0.2927   -0.5193 C.2        1 <1>        0.000
      2 N1          0.9537    1.0614   -0.3061 N.pl3      1 <1>        0.000
      3 N2         -1.1919    0.8363   -1.0643 N.2        1 <1>        0.000
      4 N3         -0.0884   -0.9689   -0.1509 N.am       1 <1>        0.000
      5 C4         -1.0753   -1.9473   -0.0069 C.2        1 <1>        0.000
      6 O1         -2.2959   -1.4887   -0.2928 O.3        1 <1>        0.000
      7 O2         -0.7570   -3.0652    0.3482 O.2        1 <1>        0.000
      8 H           0.9243    2.0495   -0.5575 H.spc      1 <1>        0.000
      9 H           1.7969    0.6657    0.1096 H.spc      1 <1>        0.000
     10 H          -2.0302    0.2713   -1.2003 H.spc      1 <1>        0.000
     11 H           0.8458   -1.3071    0.0800 H.spc      1 <1>        0.000
     12 H          -2.2382   -0.5643   -0.5452 H.spc      1 <1>        0.000
@<TRIPOS>BOND
     1    1    2 1  
     2    1    3 2  
     3    1    4 1  
     4    4    5 am 
     5    5    6 1  
     6    5    7 2  
     7    2    8 1  
     8    2    9 1  
     9    3   10 1  
    10    4   11 1  
    11    6   12 1  
# Name:          frag3-210-7/96164
# Creation time: Sat Jun  5 12:53:11 2010


@<TRIPOS>MOLECULE
frag3-210-7/96164
   12    11     1     1     1
SMALL
USER_CHARGES


@<TRIPOS>ATOM
      1 C1         -0.1790    0.3589   -0.3305 C.2        1 <1>        0.000
      2 N1          0.6636    0.2209   -1.3482 N.pl3      1 <1>        0.000
      3 N2         -0.4579    1.5873    0.1147 N.2        1 <1>        0.000
      4 N3         -0.7711   -0.6673    0.2260 N.am       1 <1>        0.000
      5 C4         -1.1753   -1.9460   -0.0867 C.2        1 <1>        0.000
      6 O1         -0.8349   -2.2786   -1.3176 O.3        1 <1>        0.000
      7 O2         -1.8026   -2.5547    0.7501 O.2        1 <1>        0.000
      8 H           1.0857    1.0450   -1.7762 H.spc      1 <1>        0.000
      9 H           0.8885   -0.7091   -1.7016 H.spc      1 <1>        0.000
     10 H          -1.1234    1.7146    0.8771 H.spc      1 <1>        0.000
     11 H          -1.0070   -0.4525    1.1948 H.spc      1 <1>        0.000
     12 H          -0.3344   -1.5621   -1.7147 H.spc      1 <1>        0.000
@<TRIPOS>BOND
     1    1    2 1  
     2    1    3 2  
     3    1    4 1  
     4    4    5 am 
     5    5    6 1  
     6    5    7 2  
     7    2    8 1  
     8    2    9 1  
     9    3   10 1  
    10    4   11 1  
    11    6   12 1  
# Name:          frag3-210-7/96164 -- energy: 1.807980
# Creation time: Sat Jun  5 12:53:11 2010


@<TRIPOS>MOLECULE
frag3-210-7/96164 -- energy: 1.807980
   12    11     1     1     1
SMALL
USER_CHARGES


@<TRIPOS>ATOM
      1 C1         -0.0560    0.2845   -0.4177 C.2        1 <1>        0.000
      2 N1          0.9114    1.0337   -0.9644 N.pl3      1 <1>        0.000
      3 N2         -0.9302    0.8835    0.3823 N.2        1 <1>        0.000
      4 N3         -0.2128   -1.0098   -0.6598 N.am       1 <1>        0.000
      5 C4         -1.1643   -1.9085   -0.1826 C.2        1 <1>        0.000
      6 O1         -1.3880   -2.9093   -1.0093 O.3        1 <1>        0.000
      7 O2         -1.7173   -1.6537    0.8594 O.2        1 <1>        0.000
      8 H           0.9596    2.0321   -0.7612 H.spc      1 <1>        0.000
      9 H           1.5995    0.6055   -1.5837 H.spc      1 <1>        0.000
     10 H          -1.6963    0.3489    0.7919 H.spc      1 <1>        0.000
     11 H           0.4736   -1.4121   -1.2981 H.spc      1 <1>        0.000
     12 H          -0.7880   -2.8463   -1.7560 H.spc      1 <1>        0.000
@<TRIPOS>BOND
     1    1    2 1  
     2    1    3 2  
     3    1    4 1  
     4    4    5 am 
     5    5    6 1  
     6    5    7 2  
     7    2    8 1  
     8    2    9 1  
     9    3   10 1  
    10    4   11 1  
    11    6   12 1  
