#      Rotatable Fragment
#      Build by yxyuan
#
# Name:          frag4-313-991/150395
# Creation time: Sat Jun  5 12:53:30 2010


@<TRIPOS>MOLECULE
frag4-313-991/150395
   17    18     1     1     1
SMALL
USER_CHARGES


@<TRIPOS>ATOM
      1 C1         -0.0699    0.6838   -0.1199 C.ar       1 <1>        0.000
      2 N1         -1.3849    1.2026   -0.2639 N.ar       1 <1>        0.000
      3 C2          0.0553   -0.7350    0.1297 C.ar       1 <1>        0.000
      4 C3          1.0823    1.4895   -0.2119 C.ar       1 <1>        0.000
      5 C5         -2.4405    0.4776   -0.1826 C.ar       1 <1>        0.000
      6 C6         -1.1646   -1.5427    0.2165 C.ar       1 <1>        0.000
      7 C7          1.3697   -1.2280    0.2717 C.ar       1 <1>        0.000
      8 C8          2.3678    0.9531   -0.0650 C.ar       1 <1>        0.000
      9 C11        -2.3404   -0.9786    0.0662 C.ar       1 <1>        0.000
     10 C12         2.5087   -0.4060    0.1760 C.ar       1 <1>        0.000
     11 H           0.9705    2.5569   -0.4021 H.spc      1 <1>        0.000
     12 H          -3.4214    0.9387   -0.2979 H.spc      1 <1>        0.000
     13 H          -1.0954   -2.6138    0.4062 H.spc      1 <1>        0.000
     14 H           1.5094   -2.2918    0.4639 H.spc      1 <1>        0.000
     15 H           3.2458    1.5948   -0.1390 H.spc      1 <1>        0.000
     16 H          -3.2452   -1.5836    0.1247 H.spc      1 <1>        0.000
     17 H           3.5028   -0.8380    0.2914 H.spc      1 <1>        0.000
@<TRIPOS>BOND
     1    5    9 ar 
     2    6    9 ar 
     3    7   10 ar 
     4    8   10 ar 
     5    1    2 ar 
     6    1    4 ar 
     7    1    3 ar 
     8    2    5 ar 
     9    3    6 ar 
    10    3    7 ar 
    11    4    8 ar 
    12    4   11 1  
    13    5   12 1  
    14    6   13 1  
    15    7   14 1  
    16    8   15 1  
    17    9   16 1  
    18   10   17 1  
# Name:          frag4-313-991/150395 -- energy: -0.310964
# Creation time: Sat Jun  5 12:53:30 2010


@<TRIPOS>MOLECULE
frag4-313-991/150395 -- energy: -0.310964
   17    18     1     1     1
SMALL
USER_CHARGES


@<TRIPOS>ATOM
      1 C1         -0.0699    0.6838   -0.1199 C.ar       1 <1>        0.000
      2 N1         -1.3849    1.2026   -0.2639 N.ar       1 <1>        0.000
      3 C2          0.0553   -0.7350    0.1297 C.ar       1 <1>        0.000
      4 C3          1.0823    1.4895   -0.2119 C.ar       1 <1>        0.000
      5 C5         -2.4405    0.4776   -0.1826 C.ar       1 <1>        0.000
      6 C6         -1.1646   -1.5427    0.2165 C.ar       1 <1>        0.000
      7 C7          1.3697   -1.2280    0.2717 C.ar       1 <1>        0.000
      8 C8          2.3678    0.9531   -0.0650 C.ar       1 <1>        0.000
      9 C11        -2.3404   -0.9786    0.0662 C.ar       1 <1>        0.000
     10 C12         2.5087   -0.4060    0.1760 C.ar       1 <1>        0.000
     11 H           0.9705    2.5569   -0.4021 H.spc      1 <1>        0.000
     12 H          -3.4214    0.9387   -0.2979 H.spc      1 <1>        0.000
     13 H          -1.0954   -2.6138    0.4062 H.spc      1 <1>        0.000
     14 H           1.5094   -2.2918    0.4639 H.spc      1 <1>        0.000
     15 H           3.2458    1.5948   -0.1390 H.spc      1 <1>        0.000
     16 H          -3.2452   -1.5836    0.1247 H.spc      1 <1>        0.000
     17 H           3.5028   -0.8380    0.2914 H.spc      1 <1>        0.000
@<TRIPOS>BOND
     1    5    9 ar 
     2    6    9 ar 
     3    7   10 ar 
     4    8   10 ar 
     5    1    2 ar 
     6    1    4 ar 
     7    1    3 ar 
     8    2    5 ar 
     9    3    6 ar 
    10    3    7 ar 
    11    4    8 ar 
    12    4   11 1  
    13    5   12 1  
    14    6   13 1  
    15    7   14 1  
    16    8   15 1  
    17    9   16 1  
    18   10   17 1  
