#      Rotatable Fragment
#      Build by yxyuan
#
# Name:          frag4-409-179/150395
# Creation time: Sat Jun  5 12:53:34 2010


@<TRIPOS>MOLECULE
frag4-409-179/150395
   13    13     1     1     1
SMALL
USER_CHARGES


@<TRIPOS>ATOM
      1 C1          0.7308   -1.3261    0.4677 C.3        1 <1>        0.000
      2 O1         -0.4287   -0.7868   -0.1209 O.3        1 <1>        0.000
      3 C2          0.7551   -2.8138    0.1697 C.3        1 <1>        0.000
      4 C5         -1.1741   -1.8716   -0.1052 C.3        1 <1>        0.000
      5 C6         -0.6858   -3.1683    0.3135 C.3        1 <1>        0.000
      6 H           0.7219   -1.1565    1.5444 H.spc      1 <1>        0.000
      7 H           1.6200   -0.8446    0.0608 H.spc      1 <1>        0.000
      8 H           1.4122   -3.3806    0.8293 H.spc      1 <1>        0.000
      9 H           1.1689   -3.0564   -0.8091 H.spc      1 <1>        0.000
     10 H          -1.4048   -2.0255   -1.1593 H.spc      1 <1>        0.000
     11 H          -1.9284   -1.6395    0.6466 H.spc      1 <1>        0.000
     12 H          -1.0145   -3.5346    1.2861 H.spc      1 <1>        0.000
     13 H          -1.0429   -4.0376   -0.2386 H.spc      1 <1>        0.000
@<TRIPOS>BOND
     1    1    2 1  
     2    1    3 1  
     3    2    4 1  
     4    3    5 1  
     5    4    5 1  
     6    1    6 1  
     7    1    7 1  
     8    3    8 1  
     9    3    9 1  
    10    4   10 1  
    11    4   11 1  
    12    5   12 1  
    13    5   13 1  
# Name:          frag4-409-179/150395 -- energy: -0.708111
# Creation time: Sat Jun  5 12:53:34 2010


@<TRIPOS>MOLECULE
frag4-409-179/150395 -- energy: -0.708111
   13    13     1     1     1
SMALL
USER_CHARGES


@<TRIPOS>ATOM
      1 C1          0.7308   -1.3261    0.4677 C.3        1 <1>        0.000
      2 O1         -0.4287   -0.7868   -0.1209 O.3        1 <1>        0.000
      3 C2          0.7551   -2.8138    0.1697 C.3        1 <1>        0.000
      4 C5         -1.1741   -1.8716   -0.1052 C.3        1 <1>        0.000
      5 C6         -0.6858   -3.1683    0.3135 C.3        1 <1>        0.000
      6 H           0.7219   -1.1565    1.5444 H.spc      1 <1>        0.000
      7 H           1.6200   -0.8446    0.0608 H.spc      1 <1>        0.000
      8 H           1.4122   -3.3806    0.8293 H.spc      1 <1>        0.000
      9 H           1.1689   -3.0564   -0.8091 H.spc      1 <1>        0.000
     10 H          -1.4048   -2.0255   -1.1593 H.spc      1 <1>        0.000
     11 H          -1.9284   -1.6395    0.6466 H.spc      1 <1>        0.000
     12 H          -1.0145   -3.5346    1.2861 H.spc      1 <1>        0.000
     13 H          -1.0429   -4.0376   -0.2386 H.spc      1 <1>        0.000
@<TRIPOS>BOND
     1    1    2 1  
     2    1    3 1  
     3    2    4 1  
     4    3    5 1  
     5    4    5 1  
     6    1    6 1  
     7    1    7 1  
     8    3    8 1  
     9    3    9 1  
    10    4   10 1  
    11    4   11 1  
    12    5   12 1  
    13    5   13 1  
