#      Rotatable Fragment
#      Build by yxyuan
#
# Name:          frag5-598-36/41815
# Creation time: Sat Jun  5 12:52:57 2010


@<TRIPOS>MOLECULE
frag5-598-36/41815
   12    12     1     1     1
SMALL
USER_CHARGES


@<TRIPOS>ATOM
      1 C1         -0.6550    0.9716   -0.2428 C.3        1 <1>        0.000
      2 C2         -0.2648    2.3548   -0.8414 C.3        1 <1>        0.000
      3 C3         -1.2084    2.4631   -2.0024 C.2        1 <1>        0.000
      4 C4         -2.0924    1.3045   -2.1119 C.2        1 <1>        0.000
      5 C5         -1.7756    0.4720   -1.1198 C.2        1 <1>        0.000
      6 O2         -1.2365    3.4111   -2.7703 O.2        1 <1>        0.000
      7 H          -0.9625    1.0537    0.7997 H.spc      1 <1>        0.000
      8 H           0.1892    0.2822   -0.2324 H.spc      1 <1>        0.000
      9 H           0.7847    2.4231   -1.1276 H.spc      1 <1>        0.000
     10 H          -0.3555    3.1762   -0.1306 H.spc      1 <1>        0.000
     11 H          -2.8661    1.1499   -2.8640 H.spc      1 <1>        0.000
     12 H          -2.2795   -0.4808   -0.9577 H.spc      1 <1>        0.000
@<TRIPOS>BOND
     1    1    2 1  
     2    1    5 1  
     3    2    3 1  
     4    3    4 1  
     5    3    6 2  
     6    4    5 2  
     7    1    7 1  
     8    1    8 1  
     9    2    9 1  
    10    2   10 1  
    11    4   11 1  
    12    5   12 1  
# Name:          frag5-598-36/41815 -- energy: -0.653755
# Creation time: Sat Jun  5 12:52:57 2010


@<TRIPOS>MOLECULE
frag5-598-36/41815 -- energy: -0.653755
   12    12     1     1     1
SMALL
USER_CHARGES


@<TRIPOS>ATOM
      1 C1         -0.6550    0.9716   -0.2428 C.3        1 <1>        0.000
      2 C2         -0.2648    2.3548   -0.8414 C.3        1 <1>        0.000
      3 C3         -1.2084    2.4631   -2.0024 C.2        1 <1>        0.000
      4 C4         -2.0924    1.3045   -2.1119 C.2        1 <1>        0.000
      5 C5         -1.7756    0.4720   -1.1198 C.2        1 <1>        0.000
      6 O2         -1.2365    3.4111   -2.7703 O.2        1 <1>        0.000
      7 H          -0.9625    1.0537    0.7997 H.spc      1 <1>        0.000
      8 H           0.1892    0.2822   -0.2324 H.spc      1 <1>        0.000
      9 H           0.7847    2.4231   -1.1276 H.spc      1 <1>        0.000
     10 H          -0.3555    3.1762   -0.1306 H.spc      1 <1>        0.000
     11 H          -2.8661    1.1499   -2.8640 H.spc      1 <1>        0.000
     12 H          -2.2795   -0.4808   -0.9577 H.spc      1 <1>        0.000
@<TRIPOS>BOND
     1    1    2 1  
     2    1    5 1  
     3    2    3 1  
     4    3    4 1  
     5    3    6 2  
     6    4    5 2  
     7    1    7 1  
     8    1    8 1  
     9    2    9 1  
    10    2   10 1  
    11    4   11 1  
    12    5   12 1  
