#      Rotatable Fragment
#      Build by yxyuan
#
# Name:          frag4-432-131/150395
# Creation time: Sat Jun  5 12:53:35 2010


@<TRIPOS>MOLECULE
frag4-432-131/150395
   21    22     1     1     1
SMALL
USER_CHARGES


@<TRIPOS>ATOM
      1 C1         -0.5881    0.4010   -0.2269 C.ar       1 <1>        0.000
      2 C2         -1.7544   -0.3440    0.0290 C.ar       1 <1>        0.000
      3 C3          0.6158   -0.2850   -0.4322 C.ar       1 <1>        0.000
      4 N1         -0.6177    1.7574   -0.2816 N.pl3      1 <1>        0.000
      5 C4         -3.0826    0.3699    0.2773 C.3        1 <1>        0.000
      6 C5         -1.7013   -1.7415    0.0531 C.ar       1 <1>        0.000
      7 C7          0.6630   -1.6789   -0.4244 C.ar       1 <1>        0.000
      8 C8         -1.8955    2.3358   -0.6747 C.3        1 <1>        0.000
      9 C10        -3.0332    1.9101    0.2753 C.3        1 <1>        0.000
     10 C11        -0.5018   -2.4116   -0.1877 C.ar       1 <1>        0.000
     11 H           1.5321    0.2807   -0.6011 H.spc      1 <1>        0.000
     12 H           0.1971    2.3307   -0.0629 H.spc      1 <1>        0.000
     13 H          -3.7415    0.0840   -0.5426 H.spc      1 <1>        0.000
     14 H          -3.4060    0.0756    1.2757 H.spc      1 <1>        0.000
     15 H          -2.6060   -2.3125    0.2621 H.spc      1 <1>        0.000
     16 H           1.6065   -2.1948   -0.6026 H.spc      1 <1>        0.000
     17 H          -2.1369    1.9838   -1.6777 H.spc      1 <1>        0.000
     18 H          -1.8061    3.4215   -0.6374 H.spc      1 <1>        0.000
     19 H          -2.8508    2.2871    1.2816 H.spc      1 <1>        0.000
     20 H          -3.9848    2.3217   -0.0610 H.spc      1 <1>        0.000
     21 H          -0.4739   -3.5012   -0.1911 H.spc      1 <1>        0.000
@<TRIPOS>BOND
     1    7   10 ar 
     2    6   10 ar 
     3    2    6 ar 
     4    4    8 1  
     5    5    9 1  
     6    8    9 1  
     7    3    7 ar 
     8    1    3 ar 
     9    1    2 ar 
    10    1    4 1  
    11    2    5 1  
    12    3   11 1  
    13    4   12 1  
    14    5   13 1  
    15    5   14 1  
    16    6   15 1  
    17    7   16 1  
    18    8   17 1  
    19    8   18 1  
    20    9   19 1  
    21    9   20 1  
    22   10   21 1  
# Name:          frag4-432-131/150395 -- energy: -1.195982
# Creation time: Sat Jun  5 12:53:35 2010


@<TRIPOS>MOLECULE
frag4-432-131/150395 -- energy: -1.195982
   21    22     1     1     1
SMALL
USER_CHARGES


@<TRIPOS>ATOM
      1 C1         -0.5881    0.4010   -0.2269 C.ar       1 <1>        0.000
      2 C2         -1.7544   -0.3440    0.0290 C.ar       1 <1>        0.000
      3 C3          0.6158   -0.2850   -0.4322 C.ar       1 <1>        0.000
      4 N1         -0.6177    1.7574   -0.2816 N.pl3      1 <1>        0.000
      5 C4         -3.0826    0.3699    0.2773 C.3        1 <1>        0.000
      6 C5         -1.7013   -1.7415    0.0531 C.ar       1 <1>        0.000
      7 C7          0.6630   -1.6789   -0.4244 C.ar       1 <1>        0.000
      8 C8         -1.8955    2.3358   -0.6747 C.3        1 <1>        0.000
      9 C10        -3.0332    1.9101    0.2753 C.3        1 <1>        0.000
     10 C11        -0.5018   -2.4116   -0.1877 C.ar       1 <1>        0.000
     11 H           1.5321    0.2807   -0.6011 H.spc      1 <1>        0.000
     12 H           0.1971    2.3307   -0.0629 H.spc      1 <1>        0.000
     13 H          -3.7415    0.0840   -0.5426 H.spc      1 <1>        0.000
     14 H          -3.4060    0.0756    1.2757 H.spc      1 <1>        0.000
     15 H          -2.6060   -2.3125    0.2621 H.spc      1 <1>        0.000
     16 H           1.6065   -2.1948   -0.6026 H.spc      1 <1>        0.000
     17 H          -2.1369    1.9838   -1.6777 H.spc      1 <1>        0.000
     18 H          -1.8061    3.4215   -0.6374 H.spc      1 <1>        0.000
     19 H          -2.8508    2.2871    1.2816 H.spc      1 <1>        0.000
     20 H          -3.9848    2.3217   -0.0610 H.spc      1 <1>        0.000
     21 H          -0.4739   -3.5012   -0.1911 H.spc      1 <1>        0.000
@<TRIPOS>BOND
     1    7   10 ar 
     2    6   10 ar 
     3    2    6 ar 
     4    4    8 1  
     5    5    9 1  
     6    8    9 1  
     7    3    7 ar 
     8    1    3 ar 
     9    1    2 ar 
    10    1    4 1  
    11    2    5 1  
    12    3   11 1  
    13    4   12 1  
    14    5   13 1  
    15    5   14 1  
    16    6   15 1  
    17    7   16 1  
    18    8   17 1  
    19    8   18 1  
    20    9   19 1  
    21    9   20 1  
    22   10   21 1  
