#      Rotatable Fragment
#      Build by yxyuan
#
# Name:          frag3-246-3/31924
# Creation time: Sat Jun  5 12:52:38 2010


@<TRIPOS>MOLECULE
frag3-246-3/31924
   12    11     1     1     1
SMALL
USER_CHARGES


@<TRIPOS>ATOM
      1 N8         -2.7579    2.4318    0.1414 N.pl3      1 <1>        0.000
      2 C28        -3.6393    3.4721    0.0991 C.2        1 <1>        0.000
      3 N9         -4.8950    3.2835    0.1904 N.2        1 <1>        0.000
      4 N10        -3.1074    4.7869    0.0240 N.am       1 <1>        0.000
      5 C29        -3.9799    5.7948   -0.3705 C.2        1 <1>        0.000
      6 O6         -5.1593    5.7297   -0.6582 O.2        1 <1>        0.000
      7 O7         -3.3284    6.9938   -0.4408 O.3        1 <1>        0.000
      8 H          -3.1006    1.4770    0.2483 H.spc      1 <1>        0.000
      9 H          -1.7562    2.6087    0.0662 H.spc      1 <1>        0.000
     10 H          -5.5304    4.0812    0.2103 H.spc      1 <1>        0.000
     11 H          -2.1319    4.9823    0.2488 H.spc      1 <1>        0.000
     12 H          -2.4113    6.8740   -0.1835 H.spc      1 <1>        0.000
@<TRIPOS>BOND
     1    1    2 1  
     2    2    3 2  
     3    2    4 1  
     4    4    5 am 
     5    5    7 1  
     6    5    6 2  
     7    1    8 1  
     8    1    9 1  
     9    3   10 1  
    10    4   11 1  
    11    7   12 1  
# Name:          frag3-246-3/31924
# Creation time: Sat Jun  5 12:52:38 2010


@<TRIPOS>MOLECULE
frag3-246-3/31924
   12    11     1     1     1
SMALL
USER_CHARGES


@<TRIPOS>ATOM
      1 N8         -2.9043    2.4085   -0.0334 N.pl3      1 <1>        0.000
      2 C28        -3.5647    3.5684    0.1828 C.2        1 <1>        0.000
      3 N9         -4.3723    3.7233    1.1501 N.2        1 <1>        0.000
      4 N10        -3.2914    4.5743   -0.7261 N.am       1 <1>        0.000
      5 C29        -4.0499    5.7285   -0.6442 C.2        1 <1>        0.000
      6 O6         -4.5570    6.3140   -1.5759 O.2        1 <1>        0.000
      7 O7         -4.1277    6.1757    0.6322 O.3        1 <1>        0.000
      8 H          -3.0466    1.6162    0.5930 H.spc      1 <1>        0.000
      9 H          -2.2638    2.3258   -0.8229 H.spc      1 <1>        0.000
     10 H          -4.8480    4.6163    1.2793 H.spc      1 <1>        0.000
     11 H          -2.5597    4.4694   -1.4289 H.spc      1 <1>        0.000
     12 H          -3.6620    5.5684    1.2118 H.spc      1 <1>        0.000
@<TRIPOS>BOND
     1    1    2 1  
     2    2    3 2  
     3    2    4 1  
     4    4    5 am 
     5    5    7 1  
     6    5    6 2  
     7    1    8 1  
     8    1    9 1  
     9    3   10 1  
    10    4   11 1  
    11    7   12 1  
# Name:          frag3-246-3/31924
# Creation time: Sat Jun  5 12:52:38 2010


@<TRIPOS>MOLECULE
frag3-246-3/31924
   12    11     1     1     1
SMALL
USER_CHARGES


@<TRIPOS>ATOM
      1 N8         -2.5639    3.6338    0.6127 N.pl3      1 <1>        0.000
      2 C28        -3.7699    3.4546   -0.0063 C.2        1 <1>        0.000
      3 N9         -4.2517    2.2839   -0.2328 N.2        1 <1>        0.000
      4 N10        -4.6205    4.5513   -0.3452 N.am       1 <1>        0.000
      5 C29        -4.1103    5.8336   -0.3178 C.2        1 <1>        0.000
      6 O6         -4.7172    6.8523    0.0020 O.2        1 <1>        0.000
      7 O7         -2.8337    5.8831   -0.7271 O.3        1 <1>        0.000
      8 H          -2.0180    2.8250    0.9098 H.spc      1 <1>        0.000
      9 H          -2.2102    4.5762    0.7774 H.spc      1 <1>        0.000
     10 H          -5.1859    2.1850   -0.6301 H.spc      1 <1>        0.000
     11 H          -5.5935    4.3886   -0.6044 H.spc      1 <1>        0.000
     12 H          -2.5300    4.9958   -0.9325 H.spc      1 <1>        0.000
@<TRIPOS>BOND
     1    1    2 1  
     2    2    3 2  
     3    2    4 1  
     4    4    5 am 
     5    5    7 1  
     6    5    6 2  
     7    1    8 1  
     8    1    9 1  
     9    3   10 1  
    10    4   11 1  
    11    7   12 1  
# Name:          frag3-246-3/31924
# Creation time: Sat Jun  5 12:52:38 2010


@<TRIPOS>MOLECULE
frag3-246-3/31924
   12    11     1     1     1
SMALL
USER_CHARGES


@<TRIPOS>ATOM
      1 N8         -2.7402    2.5379    0.5636 N.pl3      1 <1>        0.000
      2 C28        -3.5507    3.4888    0.0032 C.2        1 <1>        0.000
      3 N9         -4.3829    3.2072   -0.9235 N.2        1 <1>        0.000
      4 N10        -3.5097    4.7965    0.5466 N.am       1 <1>        0.000
      5 C29        -4.1036    5.8583   -0.1276 C.2        1 <1>        0.000
      6 O6         -4.7183    6.7947    0.3704 O.2        1 <1>        0.000
      7 O7         -3.8618    5.8092   -1.4471 O.3        1 <1>        0.000
      8 H          -2.7906    1.5711    0.2423 H.spc      1 <1>        0.000
      9 H          -2.0861    2.7964    1.3023 H.spc      1 <1>        0.000
     10 H          -5.0188    3.9240   -1.2730 H.spc      1 <1>        0.000
     11 H          -3.0417    4.9604    1.4379 H.spc      1 <1>        0.000
     12 H          -3.3724    5.0092   -1.6520 H.spc      1 <1>        0.000
@<TRIPOS>BOND
     1    1    2 1  
     2    2    3 2  
     3    2    4 1  
     4    4    5 am 
     5    5    7 1  
     6    5    6 2  
     7    1    8 1  
     8    1    9 1  
     9    3   10 1  
    10    4   11 1  
    11    7   12 1  
# Name:          frag3-246-3/31924
# Creation time: Sat Jun  5 12:52:38 2010


@<TRIPOS>MOLECULE
frag3-246-3/31924
   12    11     1     1     1
SMALL
USER_CHARGES


@<TRIPOS>ATOM
      1 N8         -3.5964    3.1127   -0.9507 N.pl3      1 <1>        0.000
      2 C28        -3.7920    3.6013    0.2940 C.2        1 <1>        0.000
      3 N9         -3.5841    2.9237    1.3501 N.2        1 <1>        0.000
      4 N10        -4.2547    4.8771    0.5472 N.am       1 <1>        0.000
      5 C29        -4.0104    5.6868   -0.5140 C.2        1 <1>        0.000
      6 O6         -4.4429    5.6423   -1.6725 O.2        1 <1>        0.000
      7 O7         -3.1866    6.6488   -0.0687 O.3        1 <1>        0.000
      8 H          -3.2660    2.1560   -1.0769 H.spc      1 <1>        0.000
      9 H          -3.7791    3.7006   -1.7639 H.spc      1 <1>        0.000
     10 H          -3.7609    3.3383    2.2651 H.spc      1 <1>        0.000
     11 H          -4.7148    5.1695    1.4093 H.spc      1 <1>        0.000
     12 H          -2.9784    6.4881    0.8546 H.spc      1 <1>        0.000
@<TRIPOS>BOND
     1    1    2 1  
     2    2    3 2  
     3    2    4 1  
     4    4    5 am 
     5    5    7 1  
     6    5    6 2  
     7    1    8 1  
     8    1    9 1  
     9    3   10 1  
    10    4   11 1  
    11    7   12 1  
# Name:          frag3-246-3/31924
# Creation time: Sat Jun  5 12:52:38 2010


@<TRIPOS>MOLECULE
frag3-246-3/31924
   12    11     1     1     1
SMALL
USER_CHARGES


@<TRIPOS>ATOM
      1 N8         -2.5406    3.4515   -0.3468 N.pl3      1 <1>        0.000
      2 C28        -3.7849    3.4980    0.2013 C.2        1 <1>        0.000
      3 N9         -4.2844    2.5054    0.8431 N.2        1 <1>        0.000
      4 N10        -4.5914    4.6696    0.1650 N.am       1 <1>        0.000
      5 C29        -4.1078    5.7928   -0.4815 C.2        1 <1>        0.000
      6 O6         -4.7633    6.5952   -1.1376 O.2        1 <1>        0.000
      7 O7         -2.7948    5.9802   -0.2579 O.3        1 <1>        0.000
      8 H          -1.9736    2.6087   -0.2539 H.spc      1 <1>        0.000
      9 H          -2.1747    4.2594   -0.8506 H.spc      1 <1>        0.000
     10 H          -5.2006    2.5916    1.2831 H.spc      1 <1>        0.000
     11 H          -5.5101    4.6811    0.6080 H.spc      1 <1>        0.000
     12 H          -2.4546    5.2545    0.2705 H.spc      1 <1>        0.000
@<TRIPOS>BOND
     1    1    2 1  
     2    2    3 2  
     3    2    4 1  
     4    4    5 am 
     5    5    7 1  
     6    5    6 2  
     7    1    8 1  
     8    1    9 1  
     9    3   10 1  
    10    4   11 1  
    11    7   12 1  
# Name:          frag3-246-3/31924
# Creation time: Sat Jun  5 12:52:38 2010


@<TRIPOS>MOLECULE
frag3-246-3/31924
   12    11     1     1     1
SMALL
USER_CHARGES


@<TRIPOS>ATOM
      1 N8         -3.4198    2.5594   -0.5632 N.pl3      1 <1>        0.000
      2 C28        -3.6260    3.6319    0.2420 C.2        1 <1>        0.000
      3 N9         -4.3484    3.5839    1.2943 N.2        1 <1>        0.000
      4 N10        -2.9609    4.8030   -0.0494 N.am       1 <1>        0.000
      5 C29        -3.8528    5.7176   -0.5490 C.2        1 <1>        0.000
      6 O6         -3.7407    6.2379   -1.6474 O.2        1 <1>        0.000
      7 O7         -4.9185    5.9589    0.2582 O.3        1 <1>        0.000
      8 H          -3.8509    1.6627   -0.3386 H.spc      1 <1>        0.000
      9 H          -2.8337    2.6499   -1.3931 H.spc      1 <1>        0.000
     10 H          -4.4238    4.4019    1.8989 H.spc      1 <1>        0.000
     11 H          -1.9628    4.9643    0.0852 H.spc      1 <1>        0.000
     12 H          -4.8216    5.4592    1.0722 H.spc      1 <1>        0.000
@<TRIPOS>BOND
     1    1    2 1  
     2    2    3 2  
     3    2    4 1  
     4    4    5 am 
     5    5    7 1  
     6    5    6 2  
     7    1    8 1  
     8    1    9 1  
     9    3   10 1  
    10    4   11 1  
    11    7   12 1  
# Name:          frag3-246-3/31924 -- energy: 1.592051
# Creation time: Sat Jun  5 12:52:38 2010


@<TRIPOS>MOLECULE
frag3-246-3/31924 -- energy: 1.592051
   12    11     1     1     1
SMALL
USER_CHARGES


@<TRIPOS>ATOM
      1 N8         -2.7402    2.5379    0.5636 N.pl3      1 <1>        0.000
      2 C28        -3.5507    3.4888    0.0032 C.2        1 <1>        0.000
      3 N9         -4.3829    3.2072   -0.9235 N.2        1 <1>        0.000
      4 N10        -3.5097    4.7965    0.5466 N.am       1 <1>        0.000
      5 C29        -4.1036    5.8583   -0.1276 C.2        1 <1>        0.000
      6 O6         -4.7183    6.7947    0.3704 O.2        1 <1>        0.000
      7 O7         -3.8618    5.8092   -1.4471 O.3        1 <1>        0.000
      8 H          -2.7906    1.5711    0.2423 H.spc      1 <1>        0.000
      9 H          -2.0861    2.7964    1.3023 H.spc      1 <1>        0.000
     10 H          -5.0188    3.9240   -1.2730 H.spc      1 <1>        0.000
     11 H          -3.0417    4.9604    1.4379 H.spc      1 <1>        0.000
     12 H          -3.3724    5.0092   -1.6520 H.spc      1 <1>        0.000
@<TRIPOS>BOND
     1    1    2 1  
     2    2    3 2  
     3    2    4 1  
     4    4    5 am 
     5    5    7 1  
     6    5    6 2  
     7    1    8 1  
     8    1    9 1  
     9    3   10 1  
    10    4   11 1  
    11    7   12 1  
# Name:          frag3-246-3/31924 -- energy: 1.659464
# Creation time: Sat Jun  5 12:52:38 2010


@<TRIPOS>MOLECULE
frag3-246-3/31924 -- energy: 1.659464
   12    11     1     1     1
SMALL
USER_CHARGES


@<TRIPOS>ATOM
      1 N8         -3.5964    3.1127   -0.9507 N.pl3      1 <1>        0.000
      2 C28        -3.7920    3.6013    0.2940 C.2        1 <1>        0.000
      3 N9         -3.5841    2.9237    1.3501 N.2        1 <1>        0.000
      4 N10        -4.2547    4.8771    0.5472 N.am       1 <1>        0.000
      5 C29        -4.0104    5.6868   -0.5140 C.2        1 <1>        0.000
      6 O6         -4.4429    5.6423   -1.6725 O.2        1 <1>        0.000
      7 O7         -3.1866    6.6488   -0.0687 O.3        1 <1>        0.000
      8 H          -3.2660    2.1560   -1.0769 H.spc      1 <1>        0.000
      9 H          -3.7791    3.7006   -1.7639 H.spc      1 <1>        0.000
     10 H          -3.7609    3.3383    2.2651 H.spc      1 <1>        0.000
     11 H          -4.7148    5.1695    1.4093 H.spc      1 <1>        0.000
     12 H          -2.9784    6.4881    0.8546 H.spc      1 <1>        0.000
@<TRIPOS>BOND
     1    1    2 1  
     2    2    3 2  
     3    2    4 1  
     4    4    5 am 
     5    5    7 1  
     6    5    6 2  
     7    1    8 1  
     8    1    9 1  
     9    3   10 1  
    10    4   11 1  
    11    7   12 1  
