#      Rotatable Fragment
#      Build by yxyuan
#
# Name:          frag5-550-62/41815
# Creation time: Sat Jun  5 12:52:53 2010


@<TRIPOS>MOLECULE
frag5-550-62/41815
   16    16     1     1     1
SMALL
USER_CHARGES


@<TRIPOS>ATOM
      1 O4          3.1293   -0.6855    0.1180 O.3        1 <1>        0.000
      2 C17         1.7942   -0.3363    0.0615 C.ar       1 <1>        0.000
      3 C18         0.7827   -1.2993    0.2005 C.ar       1 <1>        0.000
      4 C19        -0.6144   -0.9761    0.1465 C.ar       1 <1>        0.000
      5 C20        -0.9933    0.3753   -0.0530 C.ar       1 <1>        0.000
      6 C21         0.0248    1.3480   -0.1936 C.ar       1 <1>        0.000
      7 C22         1.3950    0.9920   -0.1361 C.ar       1 <1>        0.000
      8 C23        -2.3979    0.7752   -0.1159 C.2        1 <1>        0.000
      9 O5         -3.2246    0.3372    0.6619 O.2        1 <1>        0.000
     10 O6         -1.5225   -1.9918    0.2880 O.3        1 <1>        0.000
     11 H           3.2056   -1.6322    0.2581 H.spc      1 <1>        0.000
     12 H           1.0711   -2.3388    0.3564 H.spc      1 <1>        0.000
     13 H          -0.2504    2.3912   -0.3491 H.spc      1 <1>        0.000
     14 H           2.1535    1.7668   -0.2478 H.spc      1 <1>        0.000
     15 H          -2.7132    1.4852   -0.8805 H.spc      1 <1>        0.000
     16 H          -2.4118   -1.6346    0.2318 H.spc      1 <1>        0.000
@<TRIPOS>BOND
     1    8    9 2  
     2    1    2 1  
     3    2    7 ar 
     4    2    3 ar 
     5    3    4 ar 
     6    4    5 ar 
     7    4   10 1  
     8    5    6 ar 
     9    5    8 1  
    10    6    7 ar 
    11    1   11 1  
    12    3   12 1  
    13    6   13 1  
    14    7   14 1  
    15    8   15 1  
    16   10   16 1  
# Name:          frag5-550-62/41815
# Creation time: Sat Jun  5 12:52:53 2010


@<TRIPOS>MOLECULE
frag5-550-62/41815
   16    16     1     1     1
SMALL
USER_CHARGES


@<TRIPOS>ATOM
      1 O4          3.1284   -0.5103   -0.1544 O.3        1 <1>        0.000
      2 C17         1.7701   -0.2896   -0.0296 C.ar       1 <1>        0.000
      3 C18         0.8704   -1.3560    0.1228 C.ar       1 <1>        0.000
      4 C19        -0.5461   -1.1667    0.2541 C.ar       1 <1>        0.000
      5 C20        -1.0626    0.1532    0.2324 C.ar       1 <1>        0.000
      6 C21        -0.1565    1.2294    0.0786 C.ar       1 <1>        0.000
      7 C22         1.2370    1.0055   -0.0497 C.ar       1 <1>        0.000
      8 C23        -2.4938    0.4178    0.3632 C.2        1 <1>        0.000
      9 O5         -3.0342    1.3306   -0.2323 O.2        1 <1>        0.000
     10 O6         -1.3394   -2.2753    0.3927 O.3        1 <1>        0.000
     11 H           3.3028   -1.4536   -0.1181 H.spc      1 <1>        0.000
     12 H           1.2646   -2.3720    0.1423 H.spc      1 <1>        0.000
     13 H          -0.5378    2.2503    0.0584 H.spc      1 <1>        0.000
     14 H           1.9068    1.8575   -0.1663 H.spc      1 <1>        0.000
     15 H          -3.0936   -0.2203    1.0122 H.spc      1 <1>        0.000
     16 H          -2.2568   -2.0033    0.4697 H.spc      1 <1>        0.000
@<TRIPOS>BOND
     1    8    9 2  
     2    1    2 1  
     3    2    7 ar 
     4    2    3 ar 
     5    3    4 ar 
     6    4    5 ar 
     7    4   10 1  
     8    5    6 ar 
     9    5    8 1  
    10    6    7 ar 
    11    1   11 1  
    12    3   12 1  
    13    6   13 1  
    14    7   14 1  
    15    8   15 1  
    16   10   16 1  
# Name:          frag5-550-62/41815 -- energy: -0.094372
# Creation time: Sat Jun  5 12:52:53 2010


@<TRIPOS>MOLECULE
frag5-550-62/41815 -- energy: -0.094372
   16    16     1     1     1
SMALL
USER_CHARGES


@<TRIPOS>ATOM
      1 O4          3.1293   -0.6855    0.1180 O.3        1 <1>        0.000
      2 C17         1.7942   -0.3363    0.0615 C.ar       1 <1>        0.000
      3 C18         0.7827   -1.2993    0.2005 C.ar       1 <1>        0.000
      4 C19        -0.6144   -0.9761    0.1465 C.ar       1 <1>        0.000
      5 C20        -0.9933    0.3753   -0.0530 C.ar       1 <1>        0.000
      6 C21         0.0248    1.3480   -0.1936 C.ar       1 <1>        0.000
      7 C22         1.3950    0.9920   -0.1361 C.ar       1 <1>        0.000
      8 C23        -2.3979    0.7752   -0.1159 C.2        1 <1>        0.000
      9 O5         -3.2246    0.3372    0.6619 O.2        1 <1>        0.000
     10 O6         -1.5225   -1.9918    0.2880 O.3        1 <1>        0.000
     11 H           3.2056   -1.6322    0.2581 H.spc      1 <1>        0.000
     12 H           1.0711   -2.3388    0.3564 H.spc      1 <1>        0.000
     13 H          -0.2504    2.3912   -0.3491 H.spc      1 <1>        0.000
     14 H           2.1535    1.7668   -0.2478 H.spc      1 <1>        0.000
     15 H          -2.7132    1.4852   -0.8805 H.spc      1 <1>        0.000
     16 H          -2.4118   -1.6346    0.2318 H.spc      1 <1>        0.000
@<TRIPOS>BOND
     1    8    9 2  
     2    1    2 1  
     3    2    7 ar 
     4    2    3 ar 
     5    3    4 ar 
     6    4    5 ar 
     7    4   10 1  
     8    5    6 ar 
     9    5    8 1  
    10    6    7 ar 
    11    1   11 1  
    12    3   12 1  
    13    6   13 1  
    14    7   14 1  
    15    8   15 1  
    16   10   16 1  
# Name:          frag5-550-62/41815 -- energy: -0.515248
# Creation time: Sat Jun  5 12:52:53 2010


@<TRIPOS>MOLECULE
frag5-550-62/41815 -- energy: -0.515248
   16    16     1     1     1
SMALL
USER_CHARGES


@<TRIPOS>ATOM
      1 O4          3.1284   -0.5103   -0.1544 O.3        1 <1>        0.000
      2 C17         1.7701   -0.2896   -0.0296 C.ar       1 <1>        0.000
      3 C18         0.8704   -1.3560    0.1228 C.ar       1 <1>        0.000
      4 C19        -0.5461   -1.1667    0.2541 C.ar       1 <1>        0.000
      5 C20        -1.0626    0.1532    0.2324 C.ar       1 <1>        0.000
      6 C21        -0.1565    1.2294    0.0786 C.ar       1 <1>        0.000
      7 C22         1.2370    1.0055   -0.0497 C.ar       1 <1>        0.000
      8 C23        -2.4938    0.4178    0.3632 C.2        1 <1>        0.000
      9 O5         -3.0342    1.3306   -0.2323 O.2        1 <1>        0.000
     10 O6         -1.3394   -2.2753    0.3927 O.3        1 <1>        0.000
     11 H           3.3028   -1.4536   -0.1181 H.spc      1 <1>        0.000
     12 H           1.2646   -2.3720    0.1423 H.spc      1 <1>        0.000
     13 H          -0.5378    2.2503    0.0584 H.spc      1 <1>        0.000
     14 H           1.9068    1.8575   -0.1663 H.spc      1 <1>        0.000
     15 H          -3.0936   -0.2203    1.0122 H.spc      1 <1>        0.000
     16 H          -2.2568   -2.0033    0.4697 H.spc      1 <1>        0.000
@<TRIPOS>BOND
     1    8    9 2  
     2    1    2 1  
     3    2    7 ar 
     4    2    3 ar 
     5    3    4 ar 
     6    4    5 ar 
     7    4   10 1  
     8    5    6 ar 
     9    5    8 1  
    10    6    7 ar 
    11    1   11 1  
    12    3   12 1  
    13    6   13 1  
    14    7   14 1  
    15    8   15 1  
    16   10   16 1  
