#      Rotatable Fragment
#      Build by yxyuan
#
# Name:          frag3-182-10/96164
# Creation time: Sat Jun  5 12:53:08 2010


@<TRIPOS>MOLECULE
frag3-182-10/96164
   11    10     1     1     1
SMALL
USER_CHARGES


@<TRIPOS>ATOM
      1 C10         1.8761   -0.0446    0.1346 C.2        1 <1>        0.000
      2 P1          3.2512    0.8344    0.2604 P.3        1 <1>        0.000
      3 C11         1.8032   -1.3091   -0.2078 C.2        1 <1>        0.000
      4 O3          4.3638   -0.0604    0.4904 O.2        1 <1>        0.000
      5 O4          3.4832    1.7554   -0.9651 O.3        1 <1>        0.000
      6 O5          3.3163    1.8171    1.4456 O.3        1 <1>        0.000
      7 H           0.9383    0.4655    0.3547 H.spc      1 <1>        0.000
      8 H           2.7123   -1.8647   -0.4380 H.spc      1 <1>        0.000
      9 H           0.8335   -1.8040   -0.2621 H.spc      1 <1>        0.000
     10 H           2.7231    2.3303   -1.0804 H.spc      1 <1>        0.000
     11 H           2.6028    2.4549    1.3705 H.spc      1 <1>        0.000
@<TRIPOS>BOND
     1    1    2 1  
     2    1    3 2  
     3    2    4 2  
     4    2    5 1  
     5    2    6 1  
     6    1    7 1  
     7    3    8 1  
     8    3    9 1  
     9    5   10 1  
    10    6   11 1  
# Name:          frag3-182-10/96164
# Creation time: Sat Jun  5 12:53:08 2010


@<TRIPOS>MOLECULE
frag3-182-10/96164
   11    10     1     1     1
SMALL
USER_CHARGES


@<TRIPOS>ATOM
      1 C10         2.3247   -0.5162    0.3538 C.2        1 <1>        0.000
      2 P1          3.3578    0.7224    0.3671 P.3        1 <1>        0.000
      3 C11         1.3184   -0.6657   -0.4747 C.2        1 <1>        0.000
      4 O3          4.6952    0.2329    0.5322 O.2        1 <1>        0.000
      5 O4          3.3403    1.4072   -1.0240 O.3        1 <1>        0.000
      6 O5          3.0574    1.8121    1.4036 O.3        1 <1>        0.000
      7 H           2.4758   -1.2976    1.0985 H.spc      1 <1>        0.000
      8 H           1.1244    0.0878   -1.2381 H.spc      1 <1>        0.000
      9 H           0.6764   -1.5434   -0.3996 H.spc      1 <1>        0.000
     10 H           2.4636    1.7589   -1.1953 H.spc      1 <1>        0.000
     11 H           2.1599    2.1300    1.2811 H.spc      1 <1>        0.000
@<TRIPOS>BOND
     1    1    2 1  
     2    1    3 2  
     3    2    4 2  
     4    2    5 1  
     5    2    6 1  
     6    1    7 1  
     7    3    8 1  
     8    3    9 1  
     9    5   10 1  
    10    6   11 1  
# Name:          frag3-182-10/96164 -- energy: -0.698663
# Creation time: Sat Jun  5 12:53:08 2010


@<TRIPOS>MOLECULE
frag3-182-10/96164 -- energy: -0.698663
   11    10     1     1     1
SMALL
USER_CHARGES


@<TRIPOS>ATOM
      1 C10         1.8761   -0.0446    0.1346 C.2        1 <1>        0.000
      2 P1          3.2512    0.8344    0.2604 P.3        1 <1>        0.000
      3 C11         1.8032   -1.3091   -0.2078 C.2        1 <1>        0.000
      4 O3          4.3638   -0.0604    0.4904 O.2        1 <1>        0.000
      5 O4          3.4832    1.7554   -0.9651 O.3        1 <1>        0.000
      6 O5          3.3163    1.8171    1.4456 O.3        1 <1>        0.000
      7 H           0.9383    0.4655    0.3547 H.spc      1 <1>        0.000
      8 H           2.7123   -1.8647   -0.4380 H.spc      1 <1>        0.000
      9 H           0.8335   -1.8040   -0.2621 H.spc      1 <1>        0.000
     10 H           2.7231    2.3303   -1.0804 H.spc      1 <1>        0.000
     11 H           2.6028    2.4549    1.3705 H.spc      1 <1>        0.000
@<TRIPOS>BOND
     1    1    2 1  
     2    1    3 2  
     3    2    4 2  
     4    2    5 1  
     5    2    6 1  
     6    1    7 1  
     7    3    8 1  
     8    3    9 1  
     9    5   10 1  
    10    6   11 1  
# Name:          frag3-182-10/96164 -- energy: -0.757749
# Creation time: Sat Jun  5 12:53:08 2010


@<TRIPOS>MOLECULE
frag3-182-10/96164 -- energy: -0.757749
   11    10     1     1     1
SMALL
USER_CHARGES


@<TRIPOS>ATOM
      1 C10         2.3247   -0.5162    0.3538 C.2        1 <1>        0.000
      2 P1          3.3578    0.7224    0.3671 P.3        1 <1>        0.000
      3 C11         1.3184   -0.6657   -0.4747 C.2        1 <1>        0.000
      4 O3          4.6952    0.2329    0.5322 O.2        1 <1>        0.000
      5 O4          3.3403    1.4072   -1.0240 O.3        1 <1>        0.000
      6 O5          3.0574    1.8121    1.4036 O.3        1 <1>        0.000
      7 H           2.4758   -1.2976    1.0985 H.spc      1 <1>        0.000
      8 H           1.1244    0.0878   -1.2381 H.spc      1 <1>        0.000
      9 H           0.6764   -1.5434   -0.3996 H.spc      1 <1>        0.000
     10 H           2.4636    1.7589   -1.1953 H.spc      1 <1>        0.000
     11 H           2.1599    2.1300    1.2811 H.spc      1 <1>        0.000
@<TRIPOS>BOND
     1    1    2 1  
     2    1    3 2  
     3    2    4 2  
     4    2    5 1  
     5    2    6 1  
     6    1    7 1  
     7    3    8 1  
     8    3    9 1  
     9    5   10 1  
    10    6   11 1  
