#      Rotatable Fragment
#      Build by yxyuan
#
# Name:          frag3-245-5/96164
# Creation time: Sat Jun  5 12:53:17 2010


@<TRIPOS>MOLECULE
frag3-245-5/96164
   10     9     1     1     1
SMALL
USER_CHARGES


@<TRIPOS>ATOM
      1 C14         1.1906    0.0260   -0.0817 C.2        1 <1>        0.000
      2 C17        -0.0774    0.2559    0.2796 C.2        1 <1>        0.000
      3 O2          2.2703    0.1652    0.7001 O.3        1 <1>        0.000
      4 C18        -1.2310    0.0689   -0.5747 C.2        1 <1>        0.000
      5 O3         -1.2255   -0.9856   -1.3915 O.3        1 <1>        0.000
      6 O4         -2.1839    0.8141   -0.4853 O.2        1 <1>        0.000
      7 H           1.3609   -0.3049   -1.1062 H.spc      1 <1>        0.000
      8 H          -0.2551    0.6111    1.2947 H.spc      1 <1>        0.000
      9 H           3.0576   -0.0623    0.2000 H.spc      1 <1>        0.000
     10 H          -0.3852   -1.4435   -1.3154 H.spc      1 <1>        0.000
@<TRIPOS>BOND
     1    1    2 2  
     2    1    3 1  
     3    2    4 1  
     4    4    5 1  
     5    4    6 2  
     6    1    7 1  
     7    2    8 1  
     8    3    9 1  
     9    5   10 1  
# Name:          frag3-245-5/96164
# Creation time: Sat Jun  5 12:53:17 2010


@<TRIPOS>MOLECULE
frag3-245-5/96164
   10     9     1     1     1
SMALL
USER_CHARGES


@<TRIPOS>ATOM
      1 C14         1.0220    0.5806    0.2359 C.2        1 <1>        0.000
      2 C17         0.1182   -0.3750   -0.0376 C.2        1 <1>        0.000
      3 O2          2.2417    0.2998    0.7353 O.3        1 <1>        0.000
      4 C18        -1.1837   -0.1047   -0.6133 C.2        1 <1>        0.000
      5 O3         -1.7377   -1.0360   -1.4078 O.3        1 <1>        0.000
      6 O4         -1.7175    0.9797   -0.4659 O.2        1 <1>        0.000
      7 H           0.7590    1.6214    0.0469 H.spc      1 <1>        0.000
      8 H           0.3784   -1.4097    0.1857 H.spc      1 <1>        0.000
      9 H           2.7314    1.1162    0.8587 H.spc      1 <1>        0.000
     10 H          -1.1880   -1.8231   -1.4078 H.spc      1 <1>        0.000
@<TRIPOS>BOND
     1    1    2 2  
     2    1    3 1  
     3    2    4 1  
     4    4    5 1  
     5    4    6 2  
     6    1    7 1  
     7    2    8 1  
     8    3    9 1  
     9    5   10 1  
# Name:          frag3-245-5/96164 -- energy: -0.181788
# Creation time: Sat Jun  5 12:53:17 2010


@<TRIPOS>MOLECULE
frag3-245-5/96164 -- energy: -0.181788
   10     9     1     1     1
SMALL
USER_CHARGES


@<TRIPOS>ATOM
      1 C14         1.1906    0.0260   -0.0817 C.2        1 <1>        0.000
      2 C17        -0.0774    0.2559    0.2796 C.2        1 <1>        0.000
      3 O2          2.2703    0.1652    0.7001 O.3        1 <1>        0.000
      4 C18        -1.2310    0.0689   -0.5747 C.2        1 <1>        0.000
      5 O3         -1.2255   -0.9856   -1.3915 O.3        1 <1>        0.000
      6 O4         -2.1839    0.8141   -0.4853 O.2        1 <1>        0.000
      7 H           1.3609   -0.3049   -1.1062 H.spc      1 <1>        0.000
      8 H          -0.2551    0.6111    1.2947 H.spc      1 <1>        0.000
      9 H           3.0576   -0.0623    0.2000 H.spc      1 <1>        0.000
     10 H          -0.3852   -1.4435   -1.3154 H.spc      1 <1>        0.000
@<TRIPOS>BOND
     1    1    2 2  
     2    1    3 1  
     3    2    4 1  
     4    4    5 1  
     5    4    6 2  
     6    1    7 1  
     7    2    8 1  
     8    3    9 1  
     9    5   10 1  
# Name:          frag3-245-5/96164 -- energy: -0.348144
# Creation time: Sat Jun  5 12:53:17 2010


@<TRIPOS>MOLECULE
frag3-245-5/96164 -- energy: -0.348144
   10     9     1     1     1
SMALL
USER_CHARGES


@<TRIPOS>ATOM
      1 C14         1.0220    0.5806    0.2359 C.2        1 <1>        0.000
      2 C17         0.1182   -0.3750   -0.0376 C.2        1 <1>        0.000
      3 O2          2.2417    0.2998    0.7353 O.3        1 <1>        0.000
      4 C18        -1.1837   -0.1047   -0.6133 C.2        1 <1>        0.000
      5 O3         -1.7377   -1.0360   -1.4078 O.3        1 <1>        0.000
      6 O4         -1.7175    0.9797   -0.4659 O.2        1 <1>        0.000
      7 H           0.7590    1.6214    0.0469 H.spc      1 <1>        0.000
      8 H           0.3784   -1.4097    0.1857 H.spc      1 <1>        0.000
      9 H           2.7314    1.1162    0.8587 H.spc      1 <1>        0.000
     10 H          -1.1880   -1.8231   -1.4078 H.spc      1 <1>        0.000
@<TRIPOS>BOND
     1    1    2 2  
     2    1    3 1  
     3    2    4 1  
     4    4    5 1  
     5    4    6 2  
     6    1    7 1  
     7    2    8 1  
     8    3    9 1  
     9    5   10 1  
