#      Rotatable Fragment
#      Build by yxyuan
#
# Name:          frag4-437-45/48856
# Creation time: Sat Jun  5 12:52:47 2010


@<TRIPOS>MOLECULE
frag4-437-45/48856
   23    25     1     1     1
SMALL
USER_CHARGES


@<TRIPOS>ATOM
      1 C8          0.8915   -0.5263   -1.6243 C.3        1 <1>        0.000
      2 C9          2.1518    0.2085   -1.1517 C.ar       1 <1>        0.000
      3 C10         2.6102   -0.2523    0.0791 C.ar       1 <1>        0.000
      4 C11         3.7453    0.2826    0.6897 C.ar       1 <1>        0.000
      5 C12         4.4238    1.3103    0.0247 C.ar       1 <1>        0.000
      6 C13         3.9697    1.7804   -1.2152 C.ar       1 <1>        0.000
      7 C14         2.8289    1.2334   -1.8148 C.ar       1 <1>        0.000
      8 C15         1.7041   -1.3239    0.5283 C.ar       1 <1>        0.000
      9 C16         0.7187   -1.4864   -0.4412 C.ar       1 <1>        0.000
     10 C17        -0.2817   -2.4454   -0.2726 C.ar       1 <1>        0.000
     11 C18        -0.2679   -3.2314    0.8859 C.ar       1 <1>        0.000
     12 C19         0.7283   -3.0605    1.8570 C.ar       1 <1>        0.000
     13 C20         1.7314   -2.0992    1.6882 C.ar       1 <1>        0.000
     14 H           0.9767   -1.0069   -2.5989 H.spc      1 <1>        0.000
     15 H           0.0333    0.1145   -1.8266 H.spc      1 <1>        0.000
     16 H           4.0925   -0.0883    1.6541 H.spc      1 <1>        0.000
     17 H           5.3139    1.7493    0.4753 H.spc      1 <1>        0.000
     18 H           4.5111    2.5814   -1.7186 H.spc      1 <1>        0.000
     19 H           2.4769    1.6001   -2.7790 H.spc      1 <1>        0.000
     20 H          -1.0571   -2.5794   -1.0269 H.spc      1 <1>        0.000
     21 H          -1.0411   -3.9852    1.0344 H.spc      1 <1>        0.000
     22 H           0.7217   -3.6823    2.7523 H.spc      1 <1>        0.000
     23 H           2.5093   -1.9605    2.4390 H.spc      1 <1>        0.000
@<TRIPOS>BOND
     1    8    9 ar 
     2    2    7 ar 
     3    5    6 ar 
     4    3    4 ar 
     5    8   13 ar 
     6    2    3 ar 
     7    9   10 ar 
     8   11   12 ar 
     9    4    5 ar 
    10   10   11 ar 
    11    1    2 1  
    12   12   13 ar 
    13    1    9 1  
    14    3    8 1  
    15    6    7 ar 
    16    1   14 1  
    17    1   15 1  
    18    4   16 1  
    19    5   17 1  
    20    6   18 1  
    21    7   19 1  
    22   10   20 1  
    23   11   21 1  
    24   12   22 1  
    25   13   23 1  
# Name:          frag4-437-45/48856 -- energy: -1.296911
# Creation time: Sat Jun  5 12:52:47 2010


@<TRIPOS>MOLECULE
frag4-437-45/48856 -- energy: -1.296911
   23    25     1     1     1
SMALL
USER_CHARGES


@<TRIPOS>ATOM
      1 C8          0.8915   -0.5263   -1.6243 C.3        1 <1>        0.000
      2 C9          2.1518    0.2085   -1.1517 C.ar       1 <1>        0.000
      3 C10         2.6102   -0.2523    0.0791 C.ar       1 <1>        0.000
      4 C11         3.7453    0.2826    0.6897 C.ar       1 <1>        0.000
      5 C12         4.4238    1.3103    0.0247 C.ar       1 <1>        0.000
      6 C13         3.9697    1.7804   -1.2152 C.ar       1 <1>        0.000
      7 C14         2.8289    1.2334   -1.8148 C.ar       1 <1>        0.000
      8 C15         1.7041   -1.3239    0.5283 C.ar       1 <1>        0.000
      9 C16         0.7187   -1.4864   -0.4412 C.ar       1 <1>        0.000
     10 C17        -0.2817   -2.4454   -0.2726 C.ar       1 <1>        0.000
     11 C18        -0.2679   -3.2314    0.8859 C.ar       1 <1>        0.000
     12 C19         0.7283   -3.0605    1.8570 C.ar       1 <1>        0.000
     13 C20         1.7314   -2.0992    1.6882 C.ar       1 <1>        0.000
     14 H           0.9767   -1.0069   -2.5989 H.spc      1 <1>        0.000
     15 H           0.0333    0.1145   -1.8266 H.spc      1 <1>        0.000
     16 H           4.0925   -0.0883    1.6541 H.spc      1 <1>        0.000
     17 H           5.3139    1.7493    0.4753 H.spc      1 <1>        0.000
     18 H           4.5111    2.5814   -1.7186 H.spc      1 <1>        0.000
     19 H           2.4769    1.6001   -2.7790 H.spc      1 <1>        0.000
     20 H          -1.0571   -2.5794   -1.0269 H.spc      1 <1>        0.000
     21 H          -1.0411   -3.9852    1.0344 H.spc      1 <1>        0.000
     22 H           0.7217   -3.6823    2.7523 H.spc      1 <1>        0.000
     23 H           2.5093   -1.9605    2.4390 H.spc      1 <1>        0.000
@<TRIPOS>BOND
     1    8    9 ar 
     2    2    7 ar 
     3    5    6 ar 
     4    3    4 ar 
     5    8   13 ar 
     6    2    3 ar 
     7    9   10 ar 
     8   11   12 ar 
     9    4    5 ar 
    10   10   11 ar 
    11    1    2 1  
    12   12   13 ar 
    13    1    9 1  
    14    3    8 1  
    15    6    7 ar 
    16    1   14 1  
    17    1   15 1  
    18    4   16 1  
    19    5   17 1  
    20    6   18 1  
    21    7   19 1  
    22   10   20 1  
    23   11   21 1  
    24   12   22 1  
    25   13   23 1  
