#      Rotatable Fragment
#      Build by yxyuan
#
# Name:          frag4-488-32/48856
# Creation time: Sat Jun  5 12:52:49 2010


@<TRIPOS>MOLECULE
frag4-488-32/48856
   46    50     1     1     1
SMALL
USER_CHARGES


@<TRIPOS>ATOM
      1 N1          1.6004    1.4078   -1.4006 N.2        1 <1>        0.000
      2 C1          2.8751    1.8201   -1.7324 C.2        1 <1>        0.000
      3 C2          3.7729    0.9943   -0.9580 C.2        1 <1>        0.000
      4 C3          3.0385    0.1283   -0.2105 C.2        1 <1>        0.000
      5 C4          1.6333    0.4535   -0.5233 C.2        1 <1>        0.000
      6 C5          0.5041   -0.2909    0.1819 C.3        1 <1>        0.000
      7 N2          0.9991   -1.0115    1.4004 N.4        1 <1>        0.000
      8 C6         -0.0846   -1.7516    2.0589 C.3        1 <1>        0.000
      9 C15        -0.6916    0.6053    0.4833 C.3        1 <1>        0.000
     10 C7         -1.2807   -0.8949    2.4563 C.3        1 <1>        0.000
     11 C8         -1.8343   -0.1223    1.2258 C.3        1 <1>        0.000
     12 C9         -3.0047    0.7896    1.6137 C.3        1 <1>        0.000
     13 C10        -2.6468    1.7430    2.7507 C.3        1 <1>        0.000
     14 C11        -2.1536    0.9857    3.9756 C.3        1 <1>        0.000
     15 C12        -0.9882    0.0691    3.6354 C.3        1 <1>        0.000
     16 C16         2.2113   -1.7995    1.1105 C.3        1 <1>        0.000
     17 C17         3.4240   -0.9537    0.7403 C.3        1 <1>        0.000
     18 C18         5.1808    1.1969   -1.0766 C.2        1 <1>        0.000
     19 C19         5.6448    2.1574   -1.9134 C.2        1 <1>        0.000
     20 C20         4.7478    2.9672   -2.7110 C.3        1 <1>        0.000
     21 C21         3.3276    2.7707   -2.5699 C.2        1 <1>        0.000
     22 H           0.1409   -1.0472   -0.5140 H.spc      1 <1>        0.000
     23 H           1.3021   -0.3245    2.0907 H.spc      1 <1>        0.000
     24 H          -0.4449   -2.4932    1.3459 H.spc      1 <1>        0.000
     25 H           0.3267   -2.1722    2.9765 H.spc      1 <1>        0.000
     26 H          -0.3426    1.4117    1.1283 H.spc      1 <1>        0.000
     27 H          -1.0893    0.9531   -0.4701 H.spc      1 <1>        0.000
     28 H          -2.0447   -1.5833    2.8175 H.spc      1 <1>        0.000
     29 H          -2.2524   -0.8372    0.5172 H.spc      1 <1>        0.000
     30 H          -3.2693    1.3882    0.7421 H.spc      1 <1>        0.000
     31 H          -3.8275    0.1583    1.9491 H.spc      1 <1>        0.000
     32 H          -1.8513    2.4055    2.4096 H.spc      1 <1>        0.000
     33 H          -3.5399    2.3036    3.0266 H.spc      1 <1>        0.000
     34 H          -1.8166    1.7109    4.7163 H.spc      1 <1>        0.000
     35 H          -2.9725    0.3750    4.3558 H.spc      1 <1>        0.000
     36 H          -0.7854   -0.5421    4.5148 H.spc      1 <1>        0.000
     37 H          -0.1503    0.7011    3.3409 H.spc      1 <1>        0.000
     38 H           2.4645   -2.3500    2.0166 H.spc      1 <1>        0.000
     39 H           1.9869   -2.4364    0.2549 H.spc      1 <1>        0.000
     40 H           4.1686   -1.5926    0.2654 H.spc      1 <1>        0.000
     41 H           3.8285   -0.5009    1.6455 H.spc      1 <1>        0.000
     42 H           5.8756    0.5858   -0.5005 H.spc      1 <1>        0.000
     43 H           6.7194    2.3241   -1.9876 H.spc      1 <1>        0.000
     44 H           4.9257    3.9919   -2.3847 H.spc      1 <1>        0.000
     45 H           4.9692    2.7008   -3.7445 H.spc      1 <1>        0.000
     46 H           2.6274    3.3855   -3.1355 H.spc      1 <1>        0.000
@<TRIPOS>BOND
     1    2    3 1  
     2    1    2 1  
     3    1    5 2  
     4   20   21 1  
     5   19   20 1  
     6   18   19 2  
     7   16   17 1  
     8   14   15 1  
     9   13   14 1  
    10   12   13 1  
    11   11    9 1  
    12   11   12 1  
    13   10   15 1  
    14   10   11 1  
    15    8   10 1  
    16    7   16 1  
    17    7    8 1  
    18    6    9 1  
    19    6    7 1  
    20    5    6 1  
    21    4   17 1  
    22    3   18 1  
    23    4    5 1  
    24    3    4 2  
    25    2   21 2  
    26    6   22 1  
    27    7   23 1  
    28    8   24 1  
    29    8   25 1  
    30    9   26 1  
    31    9   27 1  
    32   10   28 1  
    33   11   29 1  
    34   12   30 1  
    35   12   31 1  
    36   13   32 1  
    37   13   33 1  
    38   14   34 1  
    39   14   35 1  
    40   15   36 1  
    41   15   37 1  
    42   16   38 1  
    43   16   39 1  
    44   17   40 1  
    45   17   41 1  
    46   18   42 1  
    47   19   43 1  
    48   20   44 1  
    49   20   45 1  
    50   21   46 1  
# Name:          frag4-488-32/48856 -- energy: -8.165512
# Creation time: Sat Jun  5 12:52:49 2010


@<TRIPOS>MOLECULE
frag4-488-32/48856 -- energy: -8.165512
   46    50     1     1     1
SMALL
USER_CHARGES


@<TRIPOS>ATOM
      1 N1          1.6004    1.4078   -1.4006 N.2        1 <1>        0.000
      2 C1          2.8751    1.8201   -1.7324 C.2        1 <1>        0.000
      3 C2          3.7729    0.9943   -0.9580 C.2        1 <1>        0.000
      4 C3          3.0385    0.1283   -0.2105 C.2        1 <1>        0.000
      5 C4          1.6333    0.4535   -0.5233 C.2        1 <1>        0.000
      6 C5          0.5041   -0.2909    0.1819 C.3        1 <1>        0.000
      7 N2          0.9991   -1.0115    1.4004 N.4        1 <1>        0.000
      8 C6         -0.0846   -1.7516    2.0589 C.3        1 <1>        0.000
      9 C15        -0.6916    0.6053    0.4833 C.3        1 <1>        0.000
     10 C7         -1.2807   -0.8949    2.4563 C.3        1 <1>        0.000
     11 C8         -1.8343   -0.1223    1.2258 C.3        1 <1>        0.000
     12 C9         -3.0047    0.7896    1.6137 C.3        1 <1>        0.000
     13 C10        -2.6468    1.7430    2.7507 C.3        1 <1>        0.000
     14 C11        -2.1536    0.9857    3.9756 C.3        1 <1>        0.000
     15 C12        -0.9882    0.0691    3.6354 C.3        1 <1>        0.000
     16 C16         2.2113   -1.7995    1.1105 C.3        1 <1>        0.000
     17 C17         3.4240   -0.9537    0.7403 C.3        1 <1>        0.000
     18 C18         5.1808    1.1969   -1.0766 C.2        1 <1>        0.000
     19 C19         5.6448    2.1574   -1.9134 C.2        1 <1>        0.000
     20 C20         4.7478    2.9672   -2.7110 C.3        1 <1>        0.000
     21 C21         3.3276    2.7707   -2.5699 C.2        1 <1>        0.000
     22 H           0.1409   -1.0472   -0.5140 H.spc      1 <1>        0.000
     23 H           1.3021   -0.3245    2.0907 H.spc      1 <1>        0.000
     24 H          -0.4449   -2.4932    1.3459 H.spc      1 <1>        0.000
     25 H           0.3267   -2.1722    2.9765 H.spc      1 <1>        0.000
     26 H          -0.3426    1.4117    1.1283 H.spc      1 <1>        0.000
     27 H          -1.0893    0.9531   -0.4701 H.spc      1 <1>        0.000
     28 H          -2.0447   -1.5833    2.8175 H.spc      1 <1>        0.000
     29 H          -2.2524   -0.8372    0.5172 H.spc      1 <1>        0.000
     30 H          -3.2693    1.3882    0.7421 H.spc      1 <1>        0.000
     31 H          -3.8275    0.1583    1.9491 H.spc      1 <1>        0.000
     32 H          -1.8513    2.4055    2.4096 H.spc      1 <1>        0.000
     33 H          -3.5399    2.3036    3.0266 H.spc      1 <1>        0.000
     34 H          -1.8166    1.7109    4.7163 H.spc      1 <1>        0.000
     35 H          -2.9725    0.3750    4.3558 H.spc      1 <1>        0.000
     36 H          -0.7854   -0.5421    4.5148 H.spc      1 <1>        0.000
     37 H          -0.1503    0.7011    3.3409 H.spc      1 <1>        0.000
     38 H           2.4645   -2.3500    2.0166 H.spc      1 <1>        0.000
     39 H           1.9869   -2.4364    0.2549 H.spc      1 <1>        0.000
     40 H           4.1686   -1.5926    0.2654 H.spc      1 <1>        0.000
     41 H           3.8285   -0.5009    1.6455 H.spc      1 <1>        0.000
     42 H           5.8756    0.5858   -0.5005 H.spc      1 <1>        0.000
     43 H           6.7194    2.3241   -1.9876 H.spc      1 <1>        0.000
     44 H           4.9257    3.9919   -2.3847 H.spc      1 <1>        0.000
     45 H           4.9692    2.7008   -3.7445 H.spc      1 <1>        0.000
     46 H           2.6274    3.3855   -3.1355 H.spc      1 <1>        0.000
@<TRIPOS>BOND
     1    2    3 1  
     2    1    2 1  
     3    1    5 2  
     4   20   21 1  
     5   19   20 1  
     6   18   19 2  
     7   16   17 1  
     8   14   15 1  
     9   13   14 1  
    10   12   13 1  
    11   11    9 1  
    12   11   12 1  
    13   10   15 1  
    14   10   11 1  
    15    8   10 1  
    16    7   16 1  
    17    7    8 1  
    18    6    9 1  
    19    6    7 1  
    20    5    6 1  
    21    4   17 1  
    22    3   18 1  
    23    4    5 1  
    24    3    4 2  
    25    2   21 2  
    26    6   22 1  
    27    7   23 1  
    28    8   24 1  
    29    8   25 1  
    30    9   26 1  
    31    9   27 1  
    32   10   28 1  
    33   11   29 1  
    34   12   30 1  
    35   12   31 1  
    36   13   32 1  
    37   13   33 1  
    38   14   34 1  
    39   14   35 1  
    40   15   36 1  
    41   15   37 1  
    42   16   38 1  
    43   16   39 1  
    44   17   40 1  
    45   17   41 1  
    46   18   42 1  
    47   19   43 1  
    48   20   44 1  
    49   20   45 1  
    50   21   46 1  
