#      Rotatable Fragment
#      Build by yxyuan
#
# Name:          frag5-590-37/41815
# Creation time: Sat Jun  5 12:52:57 2010


@<TRIPOS>MOLECULE
frag5-590-37/41815
   19    20     1     1     1
SMALL
USER_CHARGES


@<TRIPOS>ATOM
      1 C2          3.8318   -0.2819    0.7644 C.3        1 <1>        0.000
      2 C3          2.6184   -0.0746   -0.1678 C.3        1 <1>        0.000
      3 N1          2.1319    0.6052    1.0105 N.am       1 <1>        0.000
      4 C4          0.8451    0.8548    1.0212 C.2        1 <1>        0.000
      5 C5          0.2390    0.0132    0.1161 C.2        1 <1>        0.000
      6 C6          1.3957   -0.8812   -0.4045 C.3        1 <1>        0.000
      7 S1         -1.3670   -0.1201   -0.3638 S.3        1 <1>        0.000
      8 C12         0.1699    1.8329    1.9241 C.2        1 <1>        0.000
      9 O1         -1.0469    1.8642    2.0246 O.2        1 <1>        0.000
     10 O2          0.9442    2.7007    2.6072 O.3        1 <1>        0.000
     11 C13         3.1949    0.6543    1.7951 C.2        1 <1>        0.000
     12 O3          3.4911    1.1382    2.8475 O.2        1 <1>        0.000
     13 H           4.8405   -0.0878    0.3997 H.spc      1 <1>        0.000
     14 H           4.1331   -1.2888    1.0534 H.spc      1 <1>        0.000
     15 H           2.9256    0.0952   -1.1997 H.spc      1 <1>        0.000
     16 H           1.2724   -1.1403   -1.4560 H.spc      1 <1>        0.000
     17 H           1.4331   -1.8427    0.1076 H.spc      1 <1>        0.000
     18 H          -1.4781   -1.0855   -1.2718 H.spc      1 <1>        0.000
     19 H           1.8675    2.5299    2.4072 H.spc      1 <1>        0.000
@<TRIPOS>BOND
     1    4    5 2  
     2    5    7 1  
     3    8   10 1  
     4    4    8 1  
     5    5    6 1  
     6    8    9 2  
     7    3    4 1  
     8    3   11 am 
     9    1    2 1  
    10    1   11 1  
    11    2    3 1  
    12    2    6 1  
    13   11   12 2  
    14    1   13 1  
    15    1   14 1  
    16    2   15 1  
    17    6   16 1  
    18    6   17 1  
    19    7   18 1  
    20   10   19 1  
# Name:          frag5-590-37/41815
# Creation time: Sat Jun  5 12:52:57 2010


@<TRIPOS>MOLECULE
frag5-590-37/41815
   19    20     1     1     1
SMALL
USER_CHARGES


@<TRIPOS>ATOM
      1 C2          3.8542   -0.2338    0.6983 C.3        1 <1>        0.000
      2 C3          2.5946   -0.0947   -0.1973 C.3        1 <1>        0.000
      3 N1          2.1424    0.6297    0.9657 N.am       1 <1>        0.000
      4 C4          0.8489    0.8476    1.0388 C.2        1 <1>        0.000
      5 C5          0.2302   -0.0539    0.2081 C.2        1 <1>        0.000
      6 C6          1.3769   -0.9411   -0.3392 C.3        1 <1>        0.000
      7 S1         -1.3964   -0.2627   -0.1976 S.3        1 <1>        0.000
      8 C12         0.1986    1.8581    1.9157 C.2        1 <1>        0.000
      9 O1          0.4874    3.0440    1.7911 O.2        1 <1>        0.000
     10 O2         -0.6862    1.5034    2.8615 O.3        1 <1>        0.000
     11 C13         3.2331    0.7371    1.7030 C.2        1 <1>        0.000
     12 O3          3.5644    1.2718    2.7263 O.2        1 <1>        0.000
     13 H           4.8446   -0.0391    0.2869 H.spc      1 <1>        0.000
     14 H           4.1913   -1.2183    1.0226 H.spc      1 <1>        0.000
     15 H           2.8549    0.0324   -1.2481 H.spc      1 <1>        0.000
     16 H           1.2050   -1.2440   -1.3721 H.spc      1 <1>        0.000
     17 H           1.4644   -1.8815    0.2049 H.spc      1 <1>        0.000
     18 H          -1.5125   -1.2776   -1.0493 H.spc      1 <1>        0.000
     19 H          -0.8114    0.5518    2.8403 H.spc      1 <1>        0.000
@<TRIPOS>BOND
     1    4    5 2  
     2    5    7 1  
     3    8   10 1  
     4    4    8 1  
     5    5    6 1  
     6    8    9 2  
     7    3    4 1  
     8    3   11 am 
     9    1    2 1  
    10    1   11 1  
    11    2    3 1  
    12    2    6 1  
    13   11   12 2  
    14    1   13 1  
    15    1   14 1  
    16    2   15 1  
    17    6   16 1  
    18    6   17 1  
    19    7   18 1  
    20   10   19 1  
# Name:          frag5-590-37/41815
# Creation time: Sat Jun  5 12:52:57 2010


@<TRIPOS>MOLECULE
frag5-590-37/41815
   19    20     1     1     1
SMALL
USER_CHARGES


@<TRIPOS>ATOM
      1 C2          3.8195   -0.3571    0.8081 C.3        1 <1>        0.000
      2 C3          2.6460   -0.0809   -0.1406 C.3        1 <1>        0.000
      3 N1          2.1428    0.5701    1.0445 N.am       1 <1>        0.000
      4 C4          0.8667    0.8693    1.0083 C.2        1 <1>        0.000
      5 C5          0.2582    0.0939    0.0572 C.2        1 <1>        0.000
      6 C6          1.4099   -0.8325   -0.4477 C.3        1 <1>        0.000
      7 S1         -1.3362    0.1050   -0.4377 S.3        1 <1>        0.000
      8 C12         0.1961    1.8334    1.9341 C.2        1 <1>        0.000
      9 O1          0.6493    2.0156    3.0594 O.2        1 <1>        0.000
     10 O2         -0.8643    2.5267    1.4926 O.3        1 <1>        0.000
     11 C13         3.1851    0.5659    1.8609 C.2        1 <1>        0.000
     12 O3          3.4749    0.9962    2.9354 O.2        1 <1>        0.000
     13 H           4.8425   -0.1820    0.4751 H.spc      1 <1>        0.000
     14 H           4.0801   -1.3829    1.0686 H.spc      1 <1>        0.000
     15 H           2.9917    0.1144   -1.1557 H.spc      1 <1>        0.000
     16 H           1.3197   -1.0566   -1.5106 H.spc      1 <1>        0.000
     17 H           1.3928   -1.8089    0.0365 H.spc      1 <1>        0.000
     18 H          -1.5104   -0.8098   -1.3873 H.spc      1 <1>        0.000
     19 H          -1.0748    2.2517    0.5973 H.spc      1 <1>        0.000
@<TRIPOS>BOND
     1    4    5 2  
     2    5    7 1  
     3    8   10 1  
     4    4    8 1  
     5    5    6 1  
     6    8    9 2  
     7    3    4 1  
     8    3   11 am 
     9    1    2 1  
    10    1   11 1  
    11    2    3 1  
    12    2    6 1  
    13   11   12 2  
    14    1   13 1  
    15    1   14 1  
    16    2   15 1  
    17    6   16 1  
    18    6   17 1  
    19    7   18 1  
    20   10   19 1  
# Name:          frag5-590-37/41815 -- energy: -1.831959
# Creation time: Sat Jun  5 12:52:57 2010


@<TRIPOS>MOLECULE
frag5-590-37/41815 -- energy: -1.831959
   19    20     1     1     1
SMALL
USER_CHARGES


@<TRIPOS>ATOM
      1 C2          3.8318   -0.2819    0.7644 C.3        1 <1>        0.000
      2 C3          2.6184   -0.0746   -0.1678 C.3        1 <1>        0.000
      3 N1          2.1319    0.6052    1.0105 N.am       1 <1>        0.000
      4 C4          0.8451    0.8548    1.0212 C.2        1 <1>        0.000
      5 C5          0.2390    0.0132    0.1161 C.2        1 <1>        0.000
      6 C6          1.3957   -0.8812   -0.4045 C.3        1 <1>        0.000
      7 S1         -1.3670   -0.1201   -0.3638 S.3        1 <1>        0.000
      8 C12         0.1699    1.8329    1.9241 C.2        1 <1>        0.000
      9 O1         -1.0469    1.8642    2.0246 O.2        1 <1>        0.000
     10 O2          0.9442    2.7007    2.6072 O.3        1 <1>        0.000
     11 C13         3.1949    0.6543    1.7951 C.2        1 <1>        0.000
     12 O3          3.4911    1.1382    2.8475 O.2        1 <1>        0.000
     13 H           4.8405   -0.0878    0.3997 H.spc      1 <1>        0.000
     14 H           4.1331   -1.2888    1.0534 H.spc      1 <1>        0.000
     15 H           2.9256    0.0952   -1.1997 H.spc      1 <1>        0.000
     16 H           1.2724   -1.1403   -1.4560 H.spc      1 <1>        0.000
     17 H           1.4331   -1.8427    0.1076 H.spc      1 <1>        0.000
     18 H          -1.4781   -1.0855   -1.2718 H.spc      1 <1>        0.000
     19 H           1.8675    2.5299    2.4072 H.spc      1 <1>        0.000
@<TRIPOS>BOND
     1    4    5 2  
     2    5    7 1  
     3    8   10 1  
     4    4    8 1  
     5    5    6 1  
     6    8    9 2  
     7    3    4 1  
     8    3   11 am 
     9    1    2 1  
    10    1   11 1  
    11    2    3 1  
    12    2    6 1  
    13   11   12 2  
    14    1   13 1  
    15    1   14 1  
    16    2   15 1  
    17    6   16 1  
    18    6   17 1  
    19    7   18 1  
    20   10   19 1  
# Name:          frag5-590-37/41815 -- energy: -2.847327
# Creation time: Sat Jun  5 12:52:57 2010


@<TRIPOS>MOLECULE
frag5-590-37/41815 -- energy: -2.847327
   19    20     1     1     1
SMALL
USER_CHARGES


@<TRIPOS>ATOM
      1 C2          3.8542   -0.2338    0.6983 C.3        1 <1>        0.000
      2 C3          2.5946   -0.0947   -0.1973 C.3        1 <1>        0.000
      3 N1          2.1424    0.6297    0.9657 N.am       1 <1>        0.000
      4 C4          0.8489    0.8476    1.0388 C.2        1 <1>        0.000
      5 C5          0.2302   -0.0539    0.2081 C.2        1 <1>        0.000
      6 C6          1.3769   -0.9411   -0.3392 C.3        1 <1>        0.000
      7 S1         -1.3964   -0.2627   -0.1976 S.3        1 <1>        0.000
      8 C12         0.1986    1.8581    1.9157 C.2        1 <1>        0.000
      9 O1          0.4874    3.0440    1.7911 O.2        1 <1>        0.000
     10 O2         -0.6862    1.5034    2.8615 O.3        1 <1>        0.000
     11 C13         3.2331    0.7371    1.7030 C.2        1 <1>        0.000
     12 O3          3.5644    1.2718    2.7263 O.2        1 <1>        0.000
     13 H           4.8446   -0.0391    0.2869 H.spc      1 <1>        0.000
     14 H           4.1913   -1.2183    1.0226 H.spc      1 <1>        0.000
     15 H           2.8549    0.0324   -1.2481 H.spc      1 <1>        0.000
     16 H           1.2050   -1.2440   -1.3721 H.spc      1 <1>        0.000
     17 H           1.4644   -1.8815    0.2049 H.spc      1 <1>        0.000
     18 H          -1.5125   -1.2776   -1.0493 H.spc      1 <1>        0.000
     19 H          -0.8114    0.5518    2.8403 H.spc      1 <1>        0.000
@<TRIPOS>BOND
     1    4    5 2  
     2    5    7 1  
     3    8   10 1  
     4    4    8 1  
     5    5    6 1  
     6    8    9 2  
     7    3    4 1  
     8    3   11 am 
     9    1    2 1  
    10    1   11 1  
    11    2    3 1  
    12    2    6 1  
    13   11   12 2  
    14    1   13 1  
    15    1   14 1  
    16    2   15 1  
    17    6   16 1  
    18    6   17 1  
    19    7   18 1  
    20   10   19 1  
# Name:          frag5-590-37/41815 -- energy: -1.806831
# Creation time: Sat Jun  5 12:52:57 2010


@<TRIPOS>MOLECULE
frag5-590-37/41815 -- energy: -1.806831
   19    20     1     1     1
SMALL
USER_CHARGES


@<TRIPOS>ATOM
      1 C2          3.8195   -0.3571    0.8081 C.3        1 <1>        0.000
      2 C3          2.6460   -0.0809   -0.1406 C.3        1 <1>        0.000
      3 N1          2.1428    0.5701    1.0445 N.am       1 <1>        0.000
      4 C4          0.8667    0.8693    1.0083 C.2        1 <1>        0.000
      5 C5          0.2582    0.0939    0.0572 C.2        1 <1>        0.000
      6 C6          1.4099   -0.8325   -0.4477 C.3        1 <1>        0.000
      7 S1         -1.3362    0.1050   -0.4377 S.3        1 <1>        0.000
      8 C12         0.1961    1.8334    1.9341 C.2        1 <1>        0.000
      9 O1          0.6493    2.0156    3.0594 O.2        1 <1>        0.000
     10 O2         -0.8643    2.5267    1.4926 O.3        1 <1>        0.000
     11 C13         3.1851    0.5659    1.8609 C.2        1 <1>        0.000
     12 O3          3.4749    0.9962    2.9354 O.2        1 <1>        0.000
     13 H           4.8425   -0.1820    0.4751 H.spc      1 <1>        0.000
     14 H           4.0801   -1.3829    1.0686 H.spc      1 <1>        0.000
     15 H           2.9917    0.1144   -1.1557 H.spc      1 <1>        0.000
     16 H           1.3197   -1.0566   -1.5106 H.spc      1 <1>        0.000
     17 H           1.3928   -1.8089    0.0365 H.spc      1 <1>        0.000
     18 H          -1.5104   -0.8098   -1.3873 H.spc      1 <1>        0.000
     19 H          -1.0748    2.2517    0.5973 H.spc      1 <1>        0.000
@<TRIPOS>BOND
     1    4    5 2  
     2    5    7 1  
     3    8   10 1  
     4    4    8 1  
     5    5    6 1  
     6    8    9 2  
     7    3    4 1  
     8    3   11 am 
     9    1    2 1  
    10    1   11 1  
    11    2    3 1  
    12    2    6 1  
    13   11   12 2  
    14    1   13 1  
    15    1   14 1  
    16    2   15 1  
    17    6   16 1  
    18    6   17 1  
    19    7   18 1  
    20   10   19 1  
