#      Rotatable Fragment
#      Build by yxyuan
#
# Name:          frag3-140-32/96164
# Creation time: Sat Jun  5 12:53:05 2010


@<TRIPOS>MOLECULE
frag3-140-32/96164
    6     5     1     1     1
SMALL
USER_CHARGES


@<TRIPOS>ATOM
      1 N1         -3.1117   -2.3603   -0.1960 N.4        1 <1>        0.000
      2 O9         -4.1049   -3.1291    0.3775 O.3        1 <1>        0.000
      3 H          -3.1117   -2.5050   -1.2057 H.spc      1 <1>        0.000
      4 H          -3.2850   -1.3760    0.0077 H.spc      1 <1>        0.000
      5 H          -2.2072   -2.6340    0.1878 H.spc      1 <1>        0.000
      6 H          -4.1049   -2.9929    1.3278 H.spc      1 <1>        0.000
@<TRIPOS>BOND
     1    1    2 1  
     2    1    3 1  
     3    1    4 1  
     4    1    5 1  
     5    2    6 1  
# Name:          frag3-140-32/96164 -- energy: -0.045541
# Creation time: Sat Jun  5 12:53:05 2010


@<TRIPOS>MOLECULE
frag3-140-32/96164 -- energy: -0.045541
    6     5     1     1     1
SMALL
USER_CHARGES


@<TRIPOS>ATOM
      1 N1         -3.1117   -2.3603   -0.1960 N.4        1 <1>        0.000
      2 O9         -4.1049   -3.1291    0.3775 O.3        1 <1>        0.000
      3 H          -3.1117   -2.5050   -1.2057 H.spc      1 <1>        0.000
      4 H          -3.2850   -1.3760    0.0077 H.spc      1 <1>        0.000
      5 H          -2.2072   -2.6340    0.1878 H.spc      1 <1>        0.000
      6 H          -4.1049   -2.9929    1.3278 H.spc      1 <1>        0.000
@<TRIPOS>BOND
     1    1    2 1  
     2    1    3 1  
     3    1    4 1  
     4    1    5 1  
     5    2    6 1  
