#      Rotatable Fragment
#      Build by yxyuan
#
# Name:          frag4-400-206/150395
# Creation time: Sat Jun  5 12:53:34 2010


@<TRIPOS>MOLECULE
frag4-400-206/150395
   28    30     1     1     1
SMALL
USER_CHARGES


@<TRIPOS>ATOM
      1 C1         -0.0589    0.4162    0.9290 C.3        1 <1>        0.000
      2 C2          1.2819    0.8389    0.3223 C.ar       1 <1>        0.000
      3 C3         -1.3266    0.8699    0.2108 C.ar       1 <1>        0.000
      4 C5          1.6022    2.1682   -0.0303 C.ar       1 <1>        0.000
      5 C6          2.2515   -0.1630    0.1476 C.ar       1 <1>        0.000
      6 C7         -1.7013    2.2151    0.2204 C.ar       1 <1>        0.000
      7 N1         -2.1093   -0.0445   -0.3919 N.ar       1 <1>        0.000
      8 C19        -3.8866    1.5153   -0.5633 C.ar       1 <1>        0.000
      9 C10         0.5844    3.3341   -0.1235 C.3        1 <1>        0.000
     10 C11         2.9418    2.4723   -0.3267 C.ar       1 <1>        0.000
     11 C12         3.5685    0.1468   -0.1896 C.ar       1 <1>        0.000
     12 C13        -0.7151    3.2736    0.7255 C.3        1 <1>        0.000
     13 C14        -2.9968    2.5349   -0.2130 C.ar       1 <1>        0.000
     14 C15        -3.4125    0.2020   -0.6308 C.ar       1 <1>        0.000
     15 C18         3.9252    1.4802   -0.3803 C.ar       1 <1>        0.000
     16 H          -0.0707   -0.6730    0.8884 H.spc      1 <1>        0.000
     17 H          -0.0961    0.8804    1.9145 H.spc      1 <1>        0.000
     18 H           1.9674   -1.2071    0.2788 H.spc      1 <1>        0.000
     19 H          -4.9309    1.7402   -0.7798 H.spc      1 <1>        0.000
     20 H           1.1223    4.2053    0.2503 H.spc      1 <1>        0.000
     21 H           0.2428    3.3250   -1.1586 H.spc      1 <1>        0.000
     22 H           3.2212    3.5081   -0.5197 H.spc      1 <1>        0.000
     23 H           4.3098   -0.6443   -0.3026 H.spc      1 <1>        0.000
     24 H          -1.2040    4.2456    0.6597 H.spc      1 <1>        0.000
     25 H          -0.4366    3.0121    1.7463 H.spc      1 <1>        0.000
     26 H          -3.3091    3.5773   -0.2765 H.spc      1 <1>        0.000
     27 H          -4.0910   -0.6156   -0.8745 H.spc      1 <1>        0.000
     28 H           4.9646    1.7480   -0.5701 H.spc      1 <1>        0.000
@<TRIPOS>BOND
     1   14    8 ar 
     2    9   12 1  
     3    4    9 1  
     4    1    3 1  
     5    7   14 ar 
     6    5   11 ar 
     7   13    8 ar 
     8    1    2 1  
     9    6   12 1  
    10    4   10 ar 
    11    6   13 ar 
    12   11   15 ar 
    13    3    7 ar 
    14    2    5 ar 
    15   10   15 ar 
    16    3    6 ar 
    17    2    4 ar 
    18    1   16 1  
    19    1   17 1  
    20    5   18 1  
    21    8   19 1  
    22    9   20 1  
    23    9   21 1  
    24   10   22 1  
    25   11   23 1  
    26   12   24 1  
    27   12   25 1  
    28   13   26 1  
    29   14   27 1  
    30   15   28 1  
# Name:          frag4-400-206/150395 -- energy: -2.379718
# Creation time: Sat Jun  5 12:53:34 2010


@<TRIPOS>MOLECULE
frag4-400-206/150395 -- energy: -2.379718
   28    30     1     1     1
SMALL
USER_CHARGES


@<TRIPOS>ATOM
      1 C1         -0.0589    0.4162    0.9290 C.3        1 <1>        0.000
      2 C2          1.2819    0.8389    0.3223 C.ar       1 <1>        0.000
      3 C3         -1.3266    0.8699    0.2108 C.ar       1 <1>        0.000
      4 C5          1.6022    2.1682   -0.0303 C.ar       1 <1>        0.000
      5 C6          2.2515   -0.1630    0.1476 C.ar       1 <1>        0.000
      6 C7         -1.7013    2.2151    0.2204 C.ar       1 <1>        0.000
      7 N1         -2.1093   -0.0445   -0.3919 N.ar       1 <1>        0.000
      8 C19        -3.8866    1.5153   -0.5633 C.ar       1 <1>        0.000
      9 C10         0.5844    3.3341   -0.1235 C.3        1 <1>        0.000
     10 C11         2.9418    2.4723   -0.3267 C.ar       1 <1>        0.000
     11 C12         3.5685    0.1468   -0.1896 C.ar       1 <1>        0.000
     12 C13        -0.7151    3.2736    0.7255 C.3        1 <1>        0.000
     13 C14        -2.9968    2.5349   -0.2130 C.ar       1 <1>        0.000
     14 C15        -3.4125    0.2020   -0.6308 C.ar       1 <1>        0.000
     15 C18         3.9252    1.4802   -0.3803 C.ar       1 <1>        0.000
     16 H          -0.0707   -0.6730    0.8884 H.spc      1 <1>        0.000
     17 H          -0.0961    0.8804    1.9145 H.spc      1 <1>        0.000
     18 H           1.9674   -1.2071    0.2788 H.spc      1 <1>        0.000
     19 H          -4.9309    1.7402   -0.7798 H.spc      1 <1>        0.000
     20 H           1.1223    4.2053    0.2503 H.spc      1 <1>        0.000
     21 H           0.2428    3.3250   -1.1586 H.spc      1 <1>        0.000
     22 H           3.2212    3.5081   -0.5197 H.spc      1 <1>        0.000
     23 H           4.3098   -0.6443   -0.3026 H.spc      1 <1>        0.000
     24 H          -1.2040    4.2456    0.6597 H.spc      1 <1>        0.000
     25 H          -0.4366    3.0121    1.7463 H.spc      1 <1>        0.000
     26 H          -3.3091    3.5773   -0.2765 H.spc      1 <1>        0.000
     27 H          -4.0910   -0.6156   -0.8745 H.spc      1 <1>        0.000
     28 H           4.9646    1.7480   -0.5701 H.spc      1 <1>        0.000
@<TRIPOS>BOND
     1   14    8 ar 
     2    9   12 1  
     3    4    9 1  
     4    1    3 1  
     5    7   14 ar 
     6    5   11 ar 
     7   13    8 ar 
     8    1    2 1  
     9    6   12 1  
    10    4   10 ar 
    11    6   13 ar 
    12   11   15 ar 
    13    3    7 ar 
    14    2    5 ar 
    15   10   15 ar 
    16    3    6 ar 
    17    2    4 ar 
    18    1   16 1  
    19    1   17 1  
    20    5   18 1  
    21    8   19 1  
    22    9   20 1  
    23    9   21 1  
    24   10   22 1  
    25   11   23 1  
    26   12   24 1  
    27   12   25 1  
    28   13   26 1  
    29   14   27 1  
    30   15   28 1  
