#      Rotatable Fragment
#      Build by yxyuan
#
# Name:          frag5-640-28/41815
# Creation time: Sat Jun  5 12:53:00 2010


@<TRIPOS>MOLECULE
frag5-640-28/41815
   16    16     1     1     1
SMALL
USER_CHARGES


@<TRIPOS>ATOM
      1 N7          3.1716    0.2201   -0.1893 N.am       1 <1>        0.000
      2 C18         1.9990   -0.5913   -0.3238 C.2        1 <1>        0.000
      3 O6          2.0851   -1.7805   -0.6058 O.2        1 <1>        0.000
      4 C19         0.6807    0.0097   -0.1226 C.ar       1 <1>        0.000
      5 N8          0.5492    1.3199    0.1903 N.ar       1 <1>        0.000
      6 C20        -0.6590    1.9349    0.3939 C.ar       1 <1>        0.000
      7 N9         -1.7913    1.2084    0.2815 N.ar       1 <1>        0.000
      8 C21        -1.7522   -0.1306   -0.0321 C.ar       1 <1>        0.000
      9 C22        -0.4877   -0.7247   -0.2355 C.ar       1 <1>        0.000
     10 N10        -2.9626   -0.8590   -0.1361 N.pl3      1 <1>        0.000
     11 H           4.0948   -0.1907   -0.3287 H.spc      1 <1>        0.000
     12 H           3.0835    1.2087    0.0459 H.spc      1 <1>        0.000
     13 H          -0.7047    2.9951    0.6429 H.spc      1 <1>        0.000
     14 H          -0.4300   -1.7838   -0.4867 H.spc      1 <1>        0.000
     15 H          -2.9418   -1.8525   -0.3660 H.spc      1 <1>        0.000
     16 H          -3.8550   -0.3900    0.0189 H.spc      1 <1>        0.000
@<TRIPOS>BOND
     1    8   10 1  
     2    8    9 ar 
     3    1    2 am 
     4    2    3 2  
     5    2    4 1  
     6    4    5 ar 
     7    4    9 ar 
     8    5    6 ar 
     9    6    7 ar 
    10    7    8 ar 
    11    1   11 1  
    12    1   12 1  
    13    6   13 1  
    14    9   14 1  
    15   10   15 1  
    16   10   16 1  
# Name:          frag5-640-28/41815
# Creation time: Sat Jun  5 12:53:00 2010


@<TRIPOS>MOLECULE
frag5-640-28/41815
   16    16     1     1     1
SMALL
USER_CHARGES


@<TRIPOS>ATOM
      1 N7          2.1739   -1.7570   -0.9855 N.am       1 <1>        0.000
      2 C18         2.0324   -0.5086   -0.2984 C.2        1 <1>        0.000
      3 O6          3.0131    0.0943    0.1212 O.2        1 <1>        0.000
      4 C19         0.6974    0.0535   -0.0936 C.ar       1 <1>        0.000
      5 N8          0.5313    1.3325    0.3165 N.ar       1 <1>        0.000
      6 C20        -0.6939    1.9097    0.5281 C.ar       1 <1>        0.000
      7 N9         -1.8081    1.1757    0.3221 N.ar       1 <1>        0.000
      8 C21        -1.7341   -0.1336   -0.0941 C.ar       1 <1>        0.000
      9 C22        -0.4528   -0.6888   -0.3019 C.ar       1 <1>        0.000
     10 N10        -2.9265   -0.8709   -0.2941 N.pl3      1 <1>        0.000
     11 H           3.1010   -2.1565   -1.1316 H.spc      1 <1>        0.000
     12 H           1.3476   -2.2467   -1.3288 H.spc      1 <1>        0.000
     13 H          -0.7675    2.9460    0.8578 H.spc      1 <1>        0.000
     14 H          -0.3672   -1.7237   -0.6333 H.spc      1 <1>        0.000
     15 H          -2.8799   -1.8428   -0.6002 H.spc      1 <1>        0.000
     16 H          -3.8319   -0.4301   -0.1320 H.spc      1 <1>        0.000
@<TRIPOS>BOND
     1    8   10 1  
     2    8    9 ar 
     3    1    2 am 
     4    2    3 2  
     5    2    4 1  
     6    4    5 ar 
     7    4    9 ar 
     8    5    6 ar 
     9    6    7 ar 
    10    7    8 ar 
    11    1   11 1  
    12    1   12 1  
    13    6   13 1  
    14    9   14 1  
    15   10   15 1  
    16   10   16 1  
# Name:          frag5-640-28/41815
# Creation time: Sat Jun  5 12:53:00 2010


@<TRIPOS>MOLECULE
frag5-640-28/41815
   16    16     1     1     1
SMALL
USER_CHARGES


@<TRIPOS>ATOM
      1 N7          2.8987    0.0376   -1.2358 N.am       1 <1>        0.000
      2 C18         2.0069   -0.5794   -0.2993 C.2        1 <1>        0.000
      3 O6          2.3359   -1.5894    0.3112 O.2        1 <1>        0.000
      4 C19         0.6857    0.0048   -0.0711 C.ar       1 <1>        0.000
      5 N8          0.5490    1.2265    0.4955 N.ar       1 <1>        0.000
      6 C20        -0.6629    1.8206    0.7365 C.ar       1 <1>        0.000
      7 N9         -1.7935    1.1650    0.3979 N.ar       1 <1>        0.000
      8 C21        -1.7486   -0.0817   -0.1817 C.ar       1 <1>        0.000
      9 C22        -0.4807   -0.6577   -0.4145 C.ar       1 <1>        0.000
     10 N10        -2.9580   -0.7394   -0.5183 N.pl3      1 <1>        0.000
     11 H           3.8216   -0.3638   -1.4017 H.spc      1 <1>        0.000
     12 H           2.6106    0.8782   -1.7366 H.spc      1 <1>        0.000
     13 H          -0.7129    2.8082    1.1950 H.spc      1 <1>        0.000
     14 H          -0.4188   -1.6442   -0.8740 H.spc      1 <1>        0.000
     15 H          -2.9332   -1.6651   -0.9460 H.spc      1 <1>        0.000
     16 H          -3.8532   -0.2871   -0.3328 H.spc      1 <1>        0.000
@<TRIPOS>BOND
     1    8   10 1  
     2    8    9 ar 
     3    1    2 am 
     4    2    3 2  
     5    2    4 1  
     6    4    5 ar 
     7    4    9 ar 
     8    5    6 ar 
     9    6    7 ar 
    10    7    8 ar 
    11    1   11 1  
    12    1   12 1  
    13    6   13 1  
    14    9   14 1  
    15   10   15 1  
    16   10   16 1  
# Name:          frag5-640-28/41815
# Creation time: Sat Jun  5 12:53:00 2010


@<TRIPOS>MOLECULE
frag5-640-28/41815
   16    16     1     1     1
SMALL
USER_CHARGES


@<TRIPOS>ATOM
      1 N7          2.6269   -1.2158    0.7647 N.am       1 <1>        0.000
      2 C18         2.0171   -0.5381   -0.3399 C.2        1 <1>        0.000
      3 O6          2.5960   -0.4388   -1.4152 O.2        1 <1>        0.000
      4 C19         0.6850    0.0449   -0.1805 C.ar       1 <1>        0.000
      5 N8          0.5006    1.3855   -0.1985 N.ar       1 <1>        0.000
      6 C20        -0.7226    1.9864   -0.0498 C.ar       1 <1>        0.000
      7 N9         -1.8152    1.2133    0.1268 N.ar       1 <1>        0.000
      8 C21        -1.7212   -0.1589    0.1597 C.ar       1 <1>        0.000
      9 C22        -0.4431   -0.7373    0.0010 C.ar       1 <1>        0.000
     10 N10        -2.8907   -0.9344    0.3520 N.pl3      1 <1>        0.000
     11 H           3.5560   -1.6241    0.6625 H.spc      1 <1>        0.000
     12 H           2.1321   -1.2901    1.6535 H.spc      1 <1>        0.000
     13 H          -0.8117    3.0725   -0.0738 H.spc      1 <1>        0.000
     14 H          -0.3422   -1.8224    0.0218 H.spc      1 <1>        0.000
     15 H          -2.8289   -1.9521    0.3800 H.spc      1 <1>        0.000
     16 H          -3.7947   -0.4751    0.4624 H.spc      1 <1>        0.000
@<TRIPOS>BOND
     1    8   10 1  
     2    8    9 ar 
     3    1    2 am 
     4    2    3 2  
     5    2    4 1  
     6    4    5 ar 
     7    4    9 ar 
     8    5    6 ar 
     9    6    7 ar 
    10    7    8 ar 
    11    1   11 1  
    12    1   12 1  
    13    6   13 1  
    14    9   14 1  
    15   10   15 1  
    16   10   16 1  
# Name:          frag5-640-28/41815 -- energy: -0.611387
# Creation time: Sat Jun  5 12:53:00 2010


@<TRIPOS>MOLECULE
frag5-640-28/41815 -- energy: -0.611387
   16    16     1     1     1
SMALL
USER_CHARGES


@<TRIPOS>ATOM
      1 N7          3.1716    0.2201   -0.1893 N.am       1 <1>        0.000
      2 C18         1.9990   -0.5913   -0.3238 C.2        1 <1>        0.000
      3 O6          2.0851   -1.7805   -0.6058 O.2        1 <1>        0.000
      4 C19         0.6807    0.0097   -0.1226 C.ar       1 <1>        0.000
      5 N8          0.5492    1.3199    0.1903 N.ar       1 <1>        0.000
      6 C20        -0.6590    1.9349    0.3939 C.ar       1 <1>        0.000
      7 N9         -1.7913    1.2084    0.2815 N.ar       1 <1>        0.000
      8 C21        -1.7522   -0.1306   -0.0321 C.ar       1 <1>        0.000
      9 C22        -0.4877   -0.7247   -0.2355 C.ar       1 <1>        0.000
     10 N10        -2.9626   -0.8590   -0.1361 N.pl3      1 <1>        0.000
     11 H           4.0948   -0.1907   -0.3287 H.spc      1 <1>        0.000
     12 H           3.0835    1.2087    0.0459 H.spc      1 <1>        0.000
     13 H          -0.7047    2.9951    0.6429 H.spc      1 <1>        0.000
     14 H          -0.4300   -1.7838   -0.4867 H.spc      1 <1>        0.000
     15 H          -2.9418   -1.8525   -0.3660 H.spc      1 <1>        0.000
     16 H          -3.8550   -0.3900    0.0189 H.spc      1 <1>        0.000
@<TRIPOS>BOND
     1    8   10 1  
     2    8    9 ar 
     3    1    2 am 
     4    2    3 2  
     5    2    4 1  
     6    4    5 ar 
     7    4    9 ar 
     8    5    6 ar 
     9    6    7 ar 
    10    7    8 ar 
    11    1   11 1  
    12    1   12 1  
    13    6   13 1  
    14    9   14 1  
    15   10   15 1  
    16   10   16 1  
# Name:          frag5-640-28/41815 -- energy: -0.338984
# Creation time: Sat Jun  5 12:53:00 2010


@<TRIPOS>MOLECULE
frag5-640-28/41815 -- energy: -0.338984
   16    16     1     1     1
SMALL
USER_CHARGES


@<TRIPOS>ATOM
      1 N7          2.1739   -1.7570   -0.9855 N.am       1 <1>        0.000
      2 C18         2.0324   -0.5086   -0.2984 C.2        1 <1>        0.000
      3 O6          3.0131    0.0943    0.1212 O.2        1 <1>        0.000
      4 C19         0.6974    0.0535   -0.0936 C.ar       1 <1>        0.000
      5 N8          0.5313    1.3325    0.3165 N.ar       1 <1>        0.000
      6 C20        -0.6939    1.9097    0.5281 C.ar       1 <1>        0.000
      7 N9         -1.8081    1.1757    0.3221 N.ar       1 <1>        0.000
      8 C21        -1.7341   -0.1336   -0.0941 C.ar       1 <1>        0.000
      9 C22        -0.4528   -0.6888   -0.3019 C.ar       1 <1>        0.000
     10 N10        -2.9265   -0.8709   -0.2941 N.pl3      1 <1>        0.000
     11 H           3.1010   -2.1565   -1.1316 H.spc      1 <1>        0.000
     12 H           1.3476   -2.2467   -1.3288 H.spc      1 <1>        0.000
     13 H          -0.7675    2.9460    0.8578 H.spc      1 <1>        0.000
     14 H          -0.3672   -1.7237   -0.6333 H.spc      1 <1>        0.000
     15 H          -2.8799   -1.8428   -0.6002 H.spc      1 <1>        0.000
     16 H          -3.8319   -0.4301   -0.1320 H.spc      1 <1>        0.000
@<TRIPOS>BOND
     1    8   10 1  
     2    8    9 ar 
     3    1    2 am 
     4    2    3 2  
     5    2    4 1  
     6    4    5 ar 
     7    4    9 ar 
     8    5    6 ar 
     9    6    7 ar 
    10    7    8 ar 
    11    1   11 1  
    12    1   12 1  
    13    6   13 1  
    14    9   14 1  
    15   10   15 1  
    16   10   16 1  
# Name:          frag5-640-28/41815 -- energy: -0.751873
# Creation time: Sat Jun  5 12:53:00 2010


@<TRIPOS>MOLECULE
frag5-640-28/41815 -- energy: -0.751873
   16    16     1     1     1
SMALL
USER_CHARGES


@<TRIPOS>ATOM
      1 N7          2.8987    0.0376   -1.2358 N.am       1 <1>        0.000
      2 C18         2.0069   -0.5794   -0.2993 C.2        1 <1>        0.000
      3 O6          2.3359   -1.5894    0.3112 O.2        1 <1>        0.000
      4 C19         0.6857    0.0048   -0.0711 C.ar       1 <1>        0.000
      5 N8          0.5490    1.2265    0.4955 N.ar       1 <1>        0.000
      6 C20        -0.6629    1.8206    0.7365 C.ar       1 <1>        0.000
      7 N9         -1.7935    1.1650    0.3979 N.ar       1 <1>        0.000
      8 C21        -1.7486   -0.0817   -0.1817 C.ar       1 <1>        0.000
      9 C22        -0.4807   -0.6577   -0.4145 C.ar       1 <1>        0.000
     10 N10        -2.9580   -0.7394   -0.5183 N.pl3      1 <1>        0.000
     11 H           3.8216   -0.3638   -1.4017 H.spc      1 <1>        0.000
     12 H           2.6106    0.8782   -1.7366 H.spc      1 <1>        0.000
     13 H          -0.7129    2.8082    1.1950 H.spc      1 <1>        0.000
     14 H          -0.4188   -1.6442   -0.8740 H.spc      1 <1>        0.000
     15 H          -2.9332   -1.6651   -0.9460 H.spc      1 <1>        0.000
     16 H          -3.8532   -0.2871   -0.3328 H.spc      1 <1>        0.000
@<TRIPOS>BOND
     1    8   10 1  
     2    8    9 ar 
     3    1    2 am 
     4    2    3 2  
     5    2    4 1  
     6    4    5 ar 
     7    4    9 ar 
     8    5    6 ar 
     9    6    7 ar 
    10    7    8 ar 
    11    1   11 1  
    12    1   12 1  
    13    6   13 1  
    14    9   14 1  
    15   10   15 1  
    16   10   16 1  
# Name:          frag5-640-28/41815 -- energy: -0.778693
# Creation time: Sat Jun  5 12:53:00 2010


@<TRIPOS>MOLECULE
frag5-640-28/41815 -- energy: -0.778693
   16    16     1     1     1
SMALL
USER_CHARGES


@<TRIPOS>ATOM
      1 N7          2.6269   -1.2158    0.7647 N.am       1 <1>        0.000
      2 C18         2.0171   -0.5381   -0.3399 C.2        1 <1>        0.000
      3 O6          2.5960   -0.4388   -1.4152 O.2        1 <1>        0.000
      4 C19         0.6850    0.0449   -0.1805 C.ar       1 <1>        0.000
      5 N8          0.5006    1.3855   -0.1985 N.ar       1 <1>        0.000
      6 C20        -0.7226    1.9864   -0.0498 C.ar       1 <1>        0.000
      7 N9         -1.8152    1.2133    0.1268 N.ar       1 <1>        0.000
      8 C21        -1.7212   -0.1589    0.1597 C.ar       1 <1>        0.000
      9 C22        -0.4431   -0.7373    0.0010 C.ar       1 <1>        0.000
     10 N10        -2.8907   -0.9344    0.3520 N.pl3      1 <1>        0.000
     11 H           3.5560   -1.6241    0.6625 H.spc      1 <1>        0.000
     12 H           2.1321   -1.2901    1.6535 H.spc      1 <1>        0.000
     13 H          -0.8117    3.0725   -0.0738 H.spc      1 <1>        0.000
     14 H          -0.3422   -1.8224    0.0218 H.spc      1 <1>        0.000
     15 H          -2.8289   -1.9521    0.3800 H.spc      1 <1>        0.000
     16 H          -3.7947   -0.4751    0.4624 H.spc      1 <1>        0.000
@<TRIPOS>BOND
     1    8   10 1  
     2    8    9 ar 
     3    1    2 am 
     4    2    3 2  
     5    2    4 1  
     6    4    5 ar 
     7    4    9 ar 
     8    5    6 ar 
     9    6    7 ar 
    10    7    8 ar 
    11    1   11 1  
    12    1   12 1  
    13    6   13 1  
    14    9   14 1  
    15   10   15 1  
    16   10   16 1  
