#      Rotatable Fragment
#      Build by yxyuan
#
# Name:          frag5-507-218/41815
# Creation time: Sat Jun  5 12:52:50 2010


@<TRIPOS>MOLECULE
frag5-507-218/41815
   15    15     1     1     1
SMALL
USER_CHARGES


@<TRIPOS>ATOM
      1 O9          2.4524   -1.6388   -0.0916 O.3        1 <1>        0.000
      2 C29         2.0837   -0.4167    0.2992 C.2        1 <1>        0.000
      3 O10         2.7839    0.4865    0.7180 O.2        1 <1>        0.000
      4 C30         0.6197   -0.1831    0.0963 C.ar       1 <1>        0.000
      5 C31         0.0401    1.0977    0.2565 C.ar       1 <1>        0.000
      6 C32        -1.3419    1.3002    0.0894 C.ar       1 <1>        0.000
      7 C33        -2.1684    0.2320   -0.2471 C.ar       1 <1>        0.000
      8 C34        -1.6195   -1.0327   -0.4161 C.ar       1 <1>        0.000
      9 C35        -0.2447   -1.2286   -0.2433 C.ar       1 <1>        0.000
     10 H           1.6776   -2.1311   -0.3724 H.spc      1 <1>        0.000
     11 H           0.6769    1.9439    0.5144 H.spc      1 <1>        0.000
     12 H          -1.7662    2.2952    0.2237 H.spc      1 <1>        0.000
     13 H          -3.2395    0.3869   -0.3772 H.spc      1 <1>        0.000
     14 H          -2.2600   -1.8731   -0.6835 H.spc      1 <1>        0.000
     15 H           0.1660   -2.2293   -0.3779 H.spc      1 <1>        0.000
@<TRIPOS>BOND
     1    1    2 1  
     2    2    3 2  
     3    2    4 1  
     4    4    5 ar 
     5    5    6 ar 
     6    6    7 ar 
     7    4    9 ar 
     8    7    8 ar 
     9    8    9 ar 
    10    1   10 1  
    11    5   11 1  
    12    6   12 1  
    13    7   13 1  
    14    8   14 1  
    15    9   15 1  
# Name:          frag5-507-218/41815
# Creation time: Sat Jun  5 12:52:50 2010


@<TRIPOS>MOLECULE
frag5-507-218/41815
   15    15     1     1     1
SMALL
USER_CHARGES


@<TRIPOS>ATOM
      1 O9          2.4014   -1.5571    0.8676 O.3        1 <1>        0.000
      2 C29         2.0875   -0.4181    0.2450 C.2        1 <1>        0.000
      3 O10         2.8505    0.4484   -0.1382 O.2        1 <1>        0.000
      4 C30         0.6179   -0.2139    0.0631 C.ar       1 <1>        0.000
      5 C31        -0.2059   -1.1078   -0.6372 C.ar       1 <1>        0.000
      6 C32        -1.5829   -0.8767   -0.7909 C.ar       1 <1>        0.000
      7 C33        -2.1706    0.2562   -0.2350 C.ar       1 <1>        0.000
      8 C34        -1.3849    1.1591    0.4721 C.ar       1 <1>        0.000
      9 C35        -0.0078    0.9264    0.6149 C.ar       1 <1>        0.000
     10 H           1.5992   -2.0508    1.0528 H.spc      1 <1>        0.000
     11 H           0.2339   -2.0048   -1.0733 H.spc      1 <1>        0.000
     12 H          -2.1937   -1.5873   -1.3477 H.spc      1 <1>        0.000
     13 H          -3.2395    0.4341   -0.3533 H.spc      1 <1>        0.000
     14 H          -1.8373    2.0464    0.9150 H.spc      1 <1>        0.000
     15 H           0.5961    1.6462    1.1674 H.spc      1 <1>        0.000
@<TRIPOS>BOND
     1    1    2 1  
     2    2    3 2  
     3    2    4 1  
     4    4    5 ar 
     5    5    6 ar 
     6    6    7 ar 
     7    4    9 ar 
     8    7    8 ar 
     9    8    9 ar 
    10    1   10 1  
    11    5   11 1  
    12    6   12 1  
    13    7   13 1  
    14    8   14 1  
    15    9   15 1  
# Name:          frag5-507-218/41815 -- energy: -0.407231
# Creation time: Sat Jun  5 12:52:50 2010


@<TRIPOS>MOLECULE
frag5-507-218/41815 -- energy: -0.407231
   15    15     1     1     1
SMALL
USER_CHARGES


@<TRIPOS>ATOM
      1 O9          2.4014   -1.5571    0.8676 O.3        1 <1>        0.000
      2 C29         2.0875   -0.4181    0.2450 C.2        1 <1>        0.000
      3 O10         2.8505    0.4484   -0.1382 O.2        1 <1>        0.000
      4 C30         0.6179   -0.2139    0.0631 C.ar       1 <1>        0.000
      5 C31        -0.2059   -1.1078   -0.6372 C.ar       1 <1>        0.000
      6 C32        -1.5829   -0.8767   -0.7909 C.ar       1 <1>        0.000
      7 C33        -2.1706    0.2562   -0.2350 C.ar       1 <1>        0.000
      8 C34        -1.3849    1.1591    0.4721 C.ar       1 <1>        0.000
      9 C35        -0.0078    0.9264    0.6149 C.ar       1 <1>        0.000
     10 H           1.5992   -2.0508    1.0528 H.spc      1 <1>        0.000
     11 H           0.2339   -2.0048   -1.0733 H.spc      1 <1>        0.000
     12 H          -2.1937   -1.5873   -1.3477 H.spc      1 <1>        0.000
     13 H          -3.2395    0.4341   -0.3533 H.spc      1 <1>        0.000
     14 H          -1.8373    2.0464    0.9150 H.spc      1 <1>        0.000
     15 H           0.5961    1.6462    1.1674 H.spc      1 <1>        0.000
@<TRIPOS>BOND
     1    1    2 1  
     2    2    3 2  
     3    2    4 1  
     4    4    5 ar 
     5    5    6 ar 
     6    6    7 ar 
     7    4    9 ar 
     8    7    8 ar 
     9    8    9 ar 
    10    1   10 1  
    11    5   11 1  
    12    6   12 1  
    13    7   13 1  
    14    8   14 1  
    15    9   15 1  
