#      Rotatable Fragment
#      Build by yxyuan
#
# Name:          frag5-632-85/138278
# Creation time: Sat Jun  5 12:53:49 2010


@<TRIPOS>MOLECULE
frag5-632-85/138278
   16    17     1     1     1
SMALL
USER_CHARGES


@<TRIPOS>ATOM
      1 C1          0.2788   -0.8461   -0.0736 C.2        1 <1>        0.000
      2 C2          1.5582   -1.2473    0.0067 C.2        1 <1>        0.000
      3 C3          0.4705    0.6517    0.1085 C.2        1 <1>        0.000
      4 C4         -1.0153   -1.3794   -0.3070 C.2        1 <1>        0.000
      5 C5          2.4515   -0.1280    0.1774 C.3        1 <1>        0.000
      6 N1          1.6907    1.0466    0.2266 N.2        1 <1>        0.000
      7 C7         -0.7454    1.4908    0.1814 C.2        1 <1>        0.000
      8 C8         -2.0950   -0.5709   -0.3159 C.2        1 <1>        0.000
      9 C10        -1.9142    0.8338   -0.0068 C.2        1 <1>        0.000
     10 F1         -3.3222   -1.0573   -0.5817 F          1 <1>        0.000
     11 H           1.8804   -2.2870   -0.0500 H.spc      1 <1>        0.000
     12 H          -1.1376   -2.4486   -0.4801 H.spc      1 <1>        0.000
     13 H           3.1524   -0.0818   -0.6561 H.spc      1 <1>        0.000
     14 H           3.0179   -0.2425    1.1016 H.spc      1 <1>        0.000
     15 H          -0.7034    2.5630    0.3732 H.spc      1 <1>        0.000
     16 H          -2.8228    1.4290    0.0845 H.spc      1 <1>        0.000
@<TRIPOS>BOND
     1    7    9 2  
     2    8    9 1  
     3    8   10 1  
     4    1    2 2  
     5    1    3 1  
     6    2    5 1  
     7    1    4 1  
     8    3    6 2  
     9    3    7 1  
    10    4    8 2  
    11    5    6 1  
    12    2   11 1  
    13    4   12 1  
    14    5   13 1  
    15    5   14 1  
    16    7   15 1  
    17    9   16 1  
# Name:          frag5-632-85/138278 -- energy: -0.862433
# Creation time: Sat Jun  5 12:53:49 2010


@<TRIPOS>MOLECULE
frag5-632-85/138278 -- energy: -0.862433
   16    17     1     1     1
SMALL
USER_CHARGES


@<TRIPOS>ATOM
      1 C1          0.2788   -0.8461   -0.0736 C.2        1 <1>        0.000
      2 C2          1.5582   -1.2473    0.0067 C.2        1 <1>        0.000
      3 C3          0.4705    0.6517    0.1085 C.2        1 <1>        0.000
      4 C4         -1.0153   -1.3794   -0.3070 C.2        1 <1>        0.000
      5 C5          2.4515   -0.1280    0.1774 C.3        1 <1>        0.000
      6 N1          1.6907    1.0466    0.2266 N.2        1 <1>        0.000
      7 C7         -0.7454    1.4908    0.1814 C.2        1 <1>        0.000
      8 C8         -2.0950   -0.5709   -0.3159 C.2        1 <1>        0.000
      9 C10        -1.9142    0.8338   -0.0068 C.2        1 <1>        0.000
     10 F1         -3.3222   -1.0573   -0.5817 F          1 <1>        0.000
     11 H           1.8804   -2.2870   -0.0500 H.spc      1 <1>        0.000
     12 H          -1.1376   -2.4486   -0.4801 H.spc      1 <1>        0.000
     13 H           3.1524   -0.0818   -0.6561 H.spc      1 <1>        0.000
     14 H           3.0179   -0.2425    1.1016 H.spc      1 <1>        0.000
     15 H          -0.7034    2.5630    0.3732 H.spc      1 <1>        0.000
     16 H          -2.8228    1.4290    0.0845 H.spc      1 <1>        0.000
@<TRIPOS>BOND
     1    7    9 2  
     2    8    9 1  
     3    8   10 1  
     4    1    2 2  
     5    1    3 1  
     6    2    5 1  
     7    1    4 1  
     8    3    6 2  
     9    3    7 1  
    10    4    8 2  
    11    5    6 1  
    12    2   11 1  
    13    4   12 1  
    14    5   13 1  
    15    5   14 1  
    16    7   15 1  
    17    9   16 1  
