#      Rotatable Fragment
#      Build by yxyuan
#
# Name:          frag3-146-20/31924
# Creation time: Sat Jun  5 12:52:04 2010


@<TRIPOS>MOLECULE
frag3-146-20/31924
    6     5     1     1     1
SMALL
USER_CHARGES


@<TRIPOS>ATOM
      1 S1          1.6674    1.1714   -0.1462 S.2        1 <1>        0.000
      2 C1          0.6098   -0.0861   -0.1173 C.2        1 <1>        0.000
      3 N1         -0.7528   -0.0659    0.0672 N.am       1 <1>        0.000
      4 H           1.0491   -1.0727   -0.2648 H.spc      1 <1>        0.000
      5 H          -1.2348    0.8214    0.2115 H.spc      1 <1>        0.000
      6 H          -1.2814   -0.9382    0.0598 H.spc      1 <1>        0.000
@<TRIPOS>BOND
     1    2    3 am 
     2    1    2 2  
     3    2    4 1  
     4    3    5 1  
     5    3    6 1  
# Name:          frag3-146-20/31924 -- energy: -0.117532
# Creation time: Sat Jun  5 12:52:04 2010


@<TRIPOS>MOLECULE
frag3-146-20/31924 -- energy: -0.117532
    6     5     1     1     1
SMALL
USER_CHARGES


@<TRIPOS>ATOM
      1 S1          1.6674    1.1714   -0.1462 S.2        1 <1>        0.000
      2 C1          0.6098   -0.0861   -0.1173 C.2        1 <1>        0.000
      3 N1         -0.7528   -0.0659    0.0672 N.am       1 <1>        0.000
      4 H           1.0491   -1.0727   -0.2648 H.spc      1 <1>        0.000
      5 H          -1.2348    0.8214    0.2115 H.spc      1 <1>        0.000
      6 H          -1.2814   -0.9382    0.0598 H.spc      1 <1>        0.000
@<TRIPOS>BOND
     1    2    3 am 
     2    1    2 2  
     3    2    4 1  
     4    3    5 1  
     5    3    6 1  
