#      Rotatable Fragment
#      Build by yxyuan
#
# Name:          frag4-432-47/48856
# Creation time: Sat Jun  5 12:52:45 2010


@<TRIPOS>MOLECULE
frag4-432-47/48856
   41    44     1     1     1
SMALL
USER_CHARGES


@<TRIPOS>ATOM
      1 C4         -0.5039    0.9505    2.6683 C.3        1 <1>        0.000
      2 C5          0.6125    0.6247    3.6985 C.3        1 <1>        0.000
      3 C6          1.2857    1.9116    4.2773 C.3        1 <1>        0.000
      4 C7          2.8106    1.7751    4.5490 C.3        1 <1>        0.000
      5 C8          3.8857    1.5646    3.4223 C.3        1 <1>        0.000
      6 C9          5.2024    1.2455    4.1592 C.3        1 <1>        0.000
      7 C10         6.5892    1.4903    3.4760 C.3        1 <1>        0.000
      8 C18         0.2026    1.7445    1.6115 C.2        1 <1>        0.000
      9 O4          7.0219    1.9551    4.7472 O.3        1 <1>        0.000
     10 C11         5.7298    2.1895    5.2867 C.3        1 <1>        0.000
     11 C12         6.5793    2.6596    2.4819 C.3        1 <1>        0.000
     12 C13         5.3719    2.5558    1.5542 C.3        1 <1>        0.000
     13 C14         4.0311    2.6713    2.3216 C.3        1 <1>        0.000
     14 C15         3.0181    2.5610    1.1977 C.3        1 <1>        0.000
     15 C16         1.8671    3.5162    1.0916 C.3        1 <1>        0.000
     16 C17         0.9318    2.8054    2.0031 C.2        1 <1>        0.000
     17 C20         0.9557    3.1688    3.4558 C.3        1 <1>        0.000
     18 H          -0.9726    0.0518    2.2673 H.spc      1 <1>        0.000
     19 H          -1.3323    1.5003    3.1151 H.spc      1 <1>        0.000
     20 H           1.3808    0.0427    3.1895 H.spc      1 <1>        0.000
     21 H           0.1581    0.0809    4.5267 H.spc      1 <1>        0.000
     22 H           0.8334    2.0374    5.2610 H.spc      1 <1>        0.000
     23 H           3.0723    2.7533    4.9524 H.spc      1 <1>        0.000
     24 H           2.8722    0.8472    5.1176 H.spc      1 <1>        0.000
     25 H           3.5468    0.7470    2.7860 H.spc      1 <1>        0.000
     26 H           4.8198    0.2445    4.3584 H.spc      1 <1>        0.000
     27 H           7.0833    0.7066    2.9017 H.spc      1 <1>        0.000
     28 H           0.1281    1.4712    0.5590 H.spc      1 <1>        0.000
     29 H           5.5002    2.0229    6.3391 H.spc      1 <1>        0.000
     30 H           5.3353    3.1947    5.4352 H.spc      1 <1>        0.000
     31 H           6.5232    3.5969    3.0355 H.spc      1 <1>        0.000
     32 H           7.4907    2.6269    1.8849 H.spc      1 <1>        0.000
     33 H           5.4238    3.3756    0.8377 H.spc      1 <1>        0.000
     34 H           5.4011    1.5806    1.0682 H.spc      1 <1>        0.000
     35 H           3.9180    3.5903    2.8968 H.spc      1 <1>        0.000
     36 H           3.6025    2.7535    0.2980 H.spc      1 <1>        0.000
     37 H           2.5425    1.5949    1.3670 H.spc      1 <1>        0.000
     38 H           2.0872    4.5507    1.3551 H.spc      1 <1>        0.000
     39 H           1.4960    3.6971    0.0828 H.spc      1 <1>        0.000
     40 H           1.7119    3.9337    3.6323 H.spc      1 <1>        0.000
     41 H          -0.0171    3.5596    3.7543 H.spc      1 <1>        0.000
@<TRIPOS>BOND
     1    5    6 1  
     2    4    5 1  
     3    6    7 1  
     4    1    8 1  
     5    3    4 1  
     6    1    2 1  
     7    6   10 1  
     8    2    3 1  
     9    3   17 1  
    10    5   13 1  
    11   16   17 1  
    12   16    8 2  
    13   15   16 1  
    14   14   15 1  
    15   13   14 1  
    16   12   13 1  
    17   11   12 1  
    18    7   11 1  
    19    9   10 1  
    20    7    9 1  
    21    1   18 1  
    22    1   19 1  
    23    2   20 1  
    24    2   21 1  
    25    3   22 1  
    26    4   23 1  
    27    4   24 1  
    28    5   25 1  
    29    6   26 1  
    30    7   27 1  
    31    8   28 1  
    32   10   29 1  
    33   10   30 1  
    34   11   31 1  
    35   11   32 1  
    36   12   33 1  
    37   12   34 1  
    38   13   35 1  
    39   14   36 1  
    40   14   37 1  
    41   15   38 1  
    42   15   39 1  
    43   17   40 1  
    44   17   41 1  
# Name:          frag4-432-47/48856 -- energy: -5.790304
# Creation time: Sat Jun  5 12:52:45 2010


@<TRIPOS>MOLECULE
frag4-432-47/48856 -- energy: -5.790304
   41    44     1     1     1
SMALL
USER_CHARGES


@<TRIPOS>ATOM
      1 C4         -0.5039    0.9505    2.6683 C.3        1 <1>        0.000
      2 C5          0.6125    0.6247    3.6985 C.3        1 <1>        0.000
      3 C6          1.2857    1.9116    4.2773 C.3        1 <1>        0.000
      4 C7          2.8106    1.7751    4.5490 C.3        1 <1>        0.000
      5 C8          3.8857    1.5646    3.4223 C.3        1 <1>        0.000
      6 C9          5.2024    1.2455    4.1592 C.3        1 <1>        0.000
      7 C10         6.5892    1.4903    3.4760 C.3        1 <1>        0.000
      8 C18         0.2026    1.7445    1.6115 C.2        1 <1>        0.000
      9 O4          7.0219    1.9551    4.7472 O.3        1 <1>        0.000
     10 C11         5.7298    2.1895    5.2867 C.3        1 <1>        0.000
     11 C12         6.5793    2.6596    2.4819 C.3        1 <1>        0.000
     12 C13         5.3719    2.5558    1.5542 C.3        1 <1>        0.000
     13 C14         4.0311    2.6713    2.3216 C.3        1 <1>        0.000
     14 C15         3.0181    2.5610    1.1977 C.3        1 <1>        0.000
     15 C16         1.8671    3.5162    1.0916 C.3        1 <1>        0.000
     16 C17         0.9318    2.8054    2.0031 C.2        1 <1>        0.000
     17 C20         0.9557    3.1688    3.4558 C.3        1 <1>        0.000
     18 H          -0.9726    0.0518    2.2673 H.spc      1 <1>        0.000
     19 H          -1.3323    1.5003    3.1151 H.spc      1 <1>        0.000
     20 H           1.3808    0.0427    3.1895 H.spc      1 <1>        0.000
     21 H           0.1581    0.0809    4.5267 H.spc      1 <1>        0.000
     22 H           0.8334    2.0374    5.2610 H.spc      1 <1>        0.000
     23 H           3.0723    2.7533    4.9524 H.spc      1 <1>        0.000
     24 H           2.8722    0.8472    5.1176 H.spc      1 <1>        0.000
     25 H           3.5468    0.7470    2.7860 H.spc      1 <1>        0.000
     26 H           4.8198    0.2445    4.3584 H.spc      1 <1>        0.000
     27 H           7.0833    0.7066    2.9017 H.spc      1 <1>        0.000
     28 H           0.1281    1.4712    0.5590 H.spc      1 <1>        0.000
     29 H           5.5002    2.0229    6.3391 H.spc      1 <1>        0.000
     30 H           5.3353    3.1947    5.4352 H.spc      1 <1>        0.000
     31 H           6.5232    3.5969    3.0355 H.spc      1 <1>        0.000
     32 H           7.4907    2.6269    1.8849 H.spc      1 <1>        0.000
     33 H           5.4238    3.3756    0.8377 H.spc      1 <1>        0.000
     34 H           5.4011    1.5806    1.0682 H.spc      1 <1>        0.000
     35 H           3.9180    3.5903    2.8968 H.spc      1 <1>        0.000
     36 H           3.6025    2.7535    0.2980 H.spc      1 <1>        0.000
     37 H           2.5425    1.5949    1.3670 H.spc      1 <1>        0.000
     38 H           2.0872    4.5507    1.3551 H.spc      1 <1>        0.000
     39 H           1.4960    3.6971    0.0828 H.spc      1 <1>        0.000
     40 H           1.7119    3.9337    3.6323 H.spc      1 <1>        0.000
     41 H          -0.0171    3.5596    3.7543 H.spc      1 <1>        0.000
@<TRIPOS>BOND
     1    5    6 1  
     2    4    5 1  
     3    6    7 1  
     4    1    8 1  
     5    3    4 1  
     6    1    2 1  
     7    6   10 1  
     8    2    3 1  
     9    3   17 1  
    10    5   13 1  
    11   16   17 1  
    12   16    8 2  
    13   15   16 1  
    14   14   15 1  
    15   13   14 1  
    16   12   13 1  
    17   11   12 1  
    18    7   11 1  
    19    9   10 1  
    20    7    9 1  
    21    1   18 1  
    22    1   19 1  
    23    2   20 1  
    24    2   21 1  
    25    3   22 1  
    26    4   23 1  
    27    4   24 1  
    28    5   25 1  
    29    6   26 1  
    30    7   27 1  
    31    8   28 1  
    32   10   29 1  
    33   10   30 1  
    34   11   31 1  
    35   11   32 1  
    36   12   33 1  
    37   12   34 1  
    38   13   35 1  
    39   14   36 1  
    40   14   37 1  
    41   15   38 1  
    42   15   39 1  
    43   17   40 1  
    44   17   41 1  
