#      Rotatable Fragment
#      Build by yxyuan
#
# Name:          frag2-092-1/92655
# Creation time: Sat Jun  5 12:51:58 2010


@<TRIPOS>MOLECULE
frag2-092-1/92655
   20    22     1     1     1
SMALL
USER_CHARGES


@<TRIPOS>ATOM
      1 N1          2.6510    2.1323   -0.1120 N.ar       1 <1>        0.000
      2 N2          1.4038    1.8508   -0.1224 N.ar       1 <1>        0.000
      3 C1          0.9533    0.5642   -0.0213 C.ar       1 <1>        0.000
      4 C2          1.8784   -0.4459    0.0963 C.ar       1 <1>        0.000
      5 N3          3.1994   -0.1405    0.1060 N.ar       1 <1>        0.000
      6 C3          3.5838    1.1590   -0.0003 C.ar       1 <1>        0.000
      7 C4          1.4621   -1.7750    0.2035 C.ar       1 <1>        0.000
      8 N4          0.1364   -2.0688    0.1845 N.ar       1 <1>        0.000
      9 C5         -0.8088   -1.1028    0.0724 C.ar       1 <1>        0.000
     10 C6         -0.4347    0.2350   -0.0334 C.ar       1 <1>        0.000
     11 C7         -1.4301    1.2235   -0.1489 C.ar       1 <1>        0.000
     12 C8         -2.7818    0.8538   -0.1564 C.ar       1 <1>        0.000
     13 C9         -3.1452   -0.4863   -0.0501 C.ar       1 <1>        0.000
     14 C10        -2.1592   -1.4679    0.0644 C.ar       1 <1>        0.000
     15 H           4.6429    1.4166    0.0045 H.spc      1 <1>        0.000
     16 H           2.1982   -2.5729    0.3020 H.spc      1 <1>        0.000
     17 H          -1.1503    2.2737   -0.2323 H.spc      1 <1>        0.000
     18 H          -3.5527    1.6192   -0.2459 H.spc      1 <1>        0.000
     19 H          -4.1980   -0.7684   -0.0563 H.spc      1 <1>        0.000
     20 H          -2.4412   -2.5175    0.1475 H.spc      1 <1>        0.000
@<TRIPOS>BOND
     1   11   12 ar 
     2    4    7 ar 
     3   13   14 ar 
     4    9   14 ar 
     5    9   10 ar 
     6   10   11 ar 
     7    7    8 ar 
     8    4    5 ar 
     9    8    9 ar 
    10   12   13 ar 
    11    5    6 ar 
    12    1    2 ar 
    13    1    6 ar 
    14    2    3 ar 
    15    3    4 ar 
    16    3   10 ar 
    17    6   15 1  
    18    7   16 1  
    19   11   17 1  
    20   12   18 1  
    21   13   19 1  
    22   14   20 1  
# Name:          frag2-092-1/92655 -- energy: -0.109859
# Creation time: Sat Jun  5 12:51:58 2010


@<TRIPOS>MOLECULE
frag2-092-1/92655 -- energy: -0.109859
   20    22     1     1     1
SMALL
USER_CHARGES


@<TRIPOS>ATOM
      1 N1          2.6510    2.1323   -0.1120 N.ar       1 <1>        0.000
      2 N2          1.4038    1.8508   -0.1224 N.ar       1 <1>        0.000
      3 C1          0.9533    0.5642   -0.0213 C.ar       1 <1>        0.000
      4 C2          1.8784   -0.4459    0.0963 C.ar       1 <1>        0.000
      5 N3          3.1994   -0.1405    0.1060 N.ar       1 <1>        0.000
      6 C3          3.5838    1.1590   -0.0003 C.ar       1 <1>        0.000
      7 C4          1.4621   -1.7750    0.2035 C.ar       1 <1>        0.000
      8 N4          0.1364   -2.0688    0.1845 N.ar       1 <1>        0.000
      9 C5         -0.8088   -1.1028    0.0724 C.ar       1 <1>        0.000
     10 C6         -0.4347    0.2350   -0.0334 C.ar       1 <1>        0.000
     11 C7         -1.4301    1.2235   -0.1489 C.ar       1 <1>        0.000
     12 C8         -2.7818    0.8538   -0.1564 C.ar       1 <1>        0.000
     13 C9         -3.1452   -0.4863   -0.0501 C.ar       1 <1>        0.000
     14 C10        -2.1592   -1.4679    0.0644 C.ar       1 <1>        0.000
     15 H           4.6429    1.4166    0.0045 H.spc      1 <1>        0.000
     16 H           2.1982   -2.5729    0.3020 H.spc      1 <1>        0.000
     17 H          -1.1503    2.2737   -0.2323 H.spc      1 <1>        0.000
     18 H          -3.5527    1.6192   -0.2459 H.spc      1 <1>        0.000
     19 H          -4.1980   -0.7684   -0.0563 H.spc      1 <1>        0.000
     20 H          -2.4412   -2.5175    0.1475 H.spc      1 <1>        0.000
@<TRIPOS>BOND
     1   11   12 ar 
     2    4    7 ar 
     3   13   14 ar 
     4    9   14 ar 
     5    9   10 ar 
     6   10   11 ar 
     7    7    8 ar 
     8    4    5 ar 
     9    8    9 ar 
    10   12   13 ar 
    11    5    6 ar 
    12    1    2 ar 
    13    1    6 ar 
    14    2    3 ar 
    15    3    4 ar 
    16    3   10 ar 
    17    6   15 1  
    18    7   16 1  
    19   11   17 1  
    20   12   18 1  
    21   13   19 1  
    22   14   20 1  
