#      Rotatable Fragment
#      Build by yxyuan
#
# Name:          frag3-189-9/96164
# Creation time: Sat Jun  5 12:53:09 2010


@<TRIPOS>MOLECULE
frag3-189-9/96164
    9     8     1     1     1
SMALL
USER_CHARGES


@<TRIPOS>ATOM
      1 O4          0.8722   -0.6689    0.4267 O.3        1 <1>        0.000
      2 P1         -0.4143   -0.7954   -0.3854 P.3        1 <1>        0.000
      3 N6         -1.5747   -0.0516    0.3034 N.pl3      1 <1>        0.000
      4 O5         -0.8242   -2.2801   -0.6018 O.3        1 <1>        0.000
      5 O6         -0.1716   -0.2784   -1.6815 O.2        1 <1>        0.000
      6 H           0.7269   -1.0150    1.3103 H.spc      1 <1>        0.000
      7 H          -2.0547    0.7060   -0.1824 H.spc      1 <1>        0.000
      8 H          -1.8629   -0.3168    1.2452 H.spc      1 <1>        0.000
      9 H          -1.0033   -2.6886    0.2483 H.spc      1 <1>        0.000
@<TRIPOS>BOND
     1    1    2 1  
     2    2    3 1  
     3    2    4 1  
     4    2    5 2  
     5    1    6 1  
     6    3    7 1  
     7    3    8 1  
     8    4    9 1  
# Name:          frag3-189-9/96164 -- energy: -0.435322
# Creation time: Sat Jun  5 12:53:09 2010


@<TRIPOS>MOLECULE
frag3-189-9/96164 -- energy: -0.435322
    9     8     1     1     1
SMALL
USER_CHARGES


@<TRIPOS>ATOM
      1 O4          0.8722   -0.6689    0.4267 O.3        1 <1>        0.000
      2 P1         -0.4143   -0.7954   -0.3854 P.3        1 <1>        0.000
      3 N6         -1.5747   -0.0516    0.3034 N.pl3      1 <1>        0.000
      4 O5         -0.8242   -2.2801   -0.6018 O.3        1 <1>        0.000
      5 O6         -0.1716   -0.2784   -1.6815 O.2        1 <1>        0.000
      6 H           0.7269   -1.0150    1.3103 H.spc      1 <1>        0.000
      7 H          -2.0547    0.7060   -0.1824 H.spc      1 <1>        0.000
      8 H          -1.8629   -0.3168    1.2452 H.spc      1 <1>        0.000
      9 H          -1.0033   -2.6886    0.2483 H.spc      1 <1>        0.000
@<TRIPOS>BOND
     1    1    2 1  
     2    2    3 1  
     3    2    4 1  
     4    2    5 2  
     5    1    6 1  
     6    3    7 1  
     7    3    8 1  
     8    4    9 1  
