#      Rotatable Fragment
#      Build by yxyuan
#
# Name:          frag3-151-15/31924
# Creation time: Sat Jun  5 12:52:04 2010


@<TRIPOS>MOLECULE
frag3-151-15/31924
   17    16     1     1     1
SMALL
USER_CHARGES


@<TRIPOS>ATOM
      1 C13        -5.0113   -1.9685   -1.5113 C.2        1 <1>        0.000
      2 C14        -6.2382   -1.8712   -2.0274 C.2        1 <1>        0.000
      3 C15        -7.3420   -2.7259   -1.6716 C.2        1 <1>        0.000
      4 C16        -7.6993   -3.0434   -0.4151 C.2        1 <1>        0.000
      5 C17        -8.7914   -3.9087   -0.0314 C.2        1 <1>        0.000
      6 C18        -8.9016   -4.5292    1.1588 C.2        1 <1>        0.000
      7 C19       -10.0155   -5.4121    1.5285 C.2        1 <1>        0.000
      8 O4        -10.9712   -5.5717    0.7857 O.2        1 <1>        0.000
      9 O5         -9.9977   -6.0578    2.7058 O.3        1 <1>        0.000
     10 H          -4.7921   -2.7345   -0.7675 H.spc      1 <1>        0.000
     11 H          -4.2284   -1.2819   -1.8336 H.spc      1 <1>        0.000
     12 H          -6.4173   -1.0922   -2.7684 H.spc      1 <1>        0.000
     13 H          -7.9333   -3.1479   -2.4842 H.spc      1 <1>        0.000
     14 H          -7.1093   -2.6068    0.3908 H.spc      1 <1>        0.000
     15 H          -9.5856   -4.0713   -0.7601 H.spc      1 <1>        0.000
     16 H          -8.1141   -4.3658    1.8944 H.spc      1 <1>        0.000
     17 H          -9.1916   -5.8373    3.1783 H.spc      1 <1>        0.000
@<TRIPOS>BOND
     1    7    9 1  
     2    7    8 2  
     3    6    7 1  
     4    1    2 2  
     5    2    3 1  
     6    3    4 2  
     7    4    5 1  
     8    5    6 2  
     9    1   10 1  
    10    1   11 1  
    11    2   12 1  
    12    3   13 1  
    13    4   14 1  
    14    5   15 1  
    15    6   16 1  
    16    9   17 1  
# Name:          frag3-151-15/31924
# Creation time: Sat Jun  5 12:52:04 2010


@<TRIPOS>MOLECULE
frag3-151-15/31924
   17    16     1     1     1
SMALL
USER_CHARGES


@<TRIPOS>ATOM
      1 C13        -5.1277   -2.1224   -1.8577 C.2        1 <1>        0.000
      2 C14        -6.2929   -1.6206   -1.4695 C.2        1 <1>        0.000
      3 C15        -7.3762   -2.3233   -0.8676 C.2        1 <1>        0.000
      4 C16        -7.6645   -3.6253   -0.9621 C.2        1 <1>        0.000
      5 C17        -8.7311   -4.3581   -0.3783 C.2        1 <1>        0.000
      6 C18        -8.8896   -4.5465    0.9369 C.2        1 <1>        0.000
      7 C19        -9.9985   -5.2949    1.4836 C.2        1 <1>        0.000
      8 O4        -10.9511   -5.6857    0.8249 O.2        1 <1>        0.000
      9 O5         -9.9367   -5.5119    2.8120 O.3        1 <1>        0.000
     10 H          -4.9207   -3.1844   -1.7261 H.spc      1 <1>        0.000
     11 H          -4.3774   -1.4726   -2.3082 H.spc      1 <1>        0.000
     12 H          -6.4374   -0.5520   -1.6288 H.spc      1 <1>        0.000
     13 H          -8.0524   -1.7266   -0.2554 H.spc      1 <1>        0.000
     14 H          -6.9805   -4.2098   -1.5775 H.spc      1 <1>        0.000
     15 H          -9.4714   -4.7972   -1.0471 H.spc      1 <1>        0.000
     16 H          -8.1557   -4.1200    1.6208 H.spc      1 <1>        0.000
     17 H          -9.1235   -5.1377    3.1587 H.spc      1 <1>        0.000
@<TRIPOS>BOND
     1    7    9 1  
     2    7    8 2  
     3    6    7 1  
     4    1    2 2  
     5    2    3 1  
     6    3    4 2  
     7    4    5 1  
     8    5    6 2  
     9    1   10 1  
    10    1   11 1  
    11    2   12 1  
    12    3   13 1  
    13    4   14 1  
    14    5   15 1  
    15    6   16 1  
    16    9   17 1  
# Name:          frag3-151-15/31924
# Creation time: Sat Jun  5 12:52:04 2010


@<TRIPOS>MOLECULE
frag3-151-15/31924
   17    16     1     1     1
SMALL
USER_CHARGES


@<TRIPOS>ATOM
      1 C13        -5.3251   -1.1013   -1.3959 C.2        1 <1>        0.000
      2 C14        -6.0180   -2.1901   -1.7264 C.2        1 <1>        0.000
      3 C15        -7.1507   -2.7048   -0.9982 C.2        1 <1>        0.000
      4 C16        -7.7694   -3.8725   -1.2283 C.2        1 <1>        0.000
      5 C17        -8.9002   -4.3874   -0.4848 C.2        1 <1>        0.000
      6 C18        -8.8546   -4.7010    0.8283 C.2        1 <1>        0.000
      7 C19       -10.0014   -5.2063    1.5940 C.2        1 <1>        0.000
      8 O4        -11.1429   -4.8751    1.3145 O.2        1 <1>        0.000
      9 O5         -9.8059   -6.0501    2.6190 O.3        1 <1>        0.000
     10 H          -5.6031   -0.5255   -0.5132 H.spc      1 <1>        0.000
     11 H          -4.4802   -0.7863   -2.0082 H.spc      1 <1>        0.000
     12 H          -5.7039   -2.7343   -2.6171 H.spc      1 <1>        0.000
     13 H          -7.5397   -2.0893   -0.1871 H.spc      1 <1>        0.000
     14 H          -7.3884   -4.4861   -2.0446 H.spc      1 <1>        0.000
     15 H          -9.8419   -4.5301   -1.0149 H.spc      1 <1>        0.000
     16 H          -7.9077   -4.5709    1.3522 H.spc      1 <1>        0.000
     17 H          -8.8660   -6.2180    2.7190 H.spc      1 <1>        0.000
@<TRIPOS>BOND
     1    7    9 1  
     2    7    8 2  
     3    6    7 1  
     4    1    2 2  
     5    2    3 1  
     6    3    4 2  
     7    4    5 1  
     8    5    6 2  
     9    1   10 1  
    10    1   11 1  
    11    2   12 1  
    12    3   13 1  
    13    4   14 1  
    14    5   15 1  
    15    6   16 1  
    16    9   17 1  
# Name:          frag3-151-15/31924
# Creation time: Sat Jun  5 12:52:04 2010


@<TRIPOS>MOLECULE
frag3-151-15/31924
   17    16     1     1     1
SMALL
USER_CHARGES


@<TRIPOS>ATOM
      1 C13        -5.6637   -1.1293   -1.3900 C.2        1 <1>        0.000
      2 C14        -5.9759   -2.2313   -2.0763 C.2        1 <1>        0.000
      3 C15        -6.7614   -3.3205   -1.5492 C.2        1 <1>        0.000
      4 C16        -7.6336   -3.2171   -0.5306 C.2        1 <1>        0.000
      5 C17        -8.4299   -4.2907    0.0209 C.2        1 <1>        0.000
      6 C18        -9.3619   -4.1442    0.9766 C.2        1 <1>        0.000
      7 C19       -10.1696   -5.2426    1.5230 C.2        1 <1>        0.000
      8 O4        -11.3658   -5.0925    1.7296 O.2        1 <1>        0.000
      9 O5         -9.6064   -6.4206    1.8180 O.3        1 <1>        0.000
     10 H          -6.0078   -1.0114   -0.3625 H.spc      1 <1>        0.000
     11 H          -5.0648   -0.3476   -1.8573 H.spc      1 <1>        0.000
     12 H          -5.6138   -2.3132   -3.1011 H.spc      1 <1>        0.000
     13 H          -6.6389   -4.3003   -2.0108 H.spc      1 <1>        0.000
     14 H          -7.7511   -2.2322   -0.0787 H.spc      1 <1>        0.000
     15 H          -8.2609   -5.2947   -0.3685 H.spc      1 <1>        0.000
     16 H          -9.5303   -3.1431    1.3734 H.spc      1 <1>        0.000
     17 H          -8.6711   -6.3894    1.6038 H.spc      1 <1>        0.000
@<TRIPOS>BOND
     1    7    9 1  
     2    7    8 2  
     3    6    7 1  
     4    1    2 2  
     5    2    3 1  
     6    3    4 2  
     7    4    5 1  
     8    5    6 2  
     9    1   10 1  
    10    1   11 1  
    11    2   12 1  
    12    3   13 1  
    13    4   14 1  
    14    5   15 1  
    15    6   16 1  
    16    9   17 1  
# Name:          frag3-151-15/31924
# Creation time: Sat Jun  5 12:52:04 2010


@<TRIPOS>MOLECULE
frag3-151-15/31924
   17    16     1     1     1
SMALL
USER_CHARGES


@<TRIPOS>ATOM
      1 C13        -5.4784   -1.3483   -1.7706 C.2        1 <1>        0.000
      2 C14        -6.3543   -2.2840   -2.1406 C.2        1 <1>        0.000
      3 C15        -7.3643   -2.8400   -1.2756 C.2        1 <1>        0.000
      4 C16        -7.1301   -3.4024   -0.0757 C.2        1 <1>        0.000
      5 C17        -8.1381   -3.9591    0.8029 C.2        1 <1>        0.000
      6 C18        -9.1306   -4.7658    0.3803 C.2        1 <1>        0.000
      7 C19       -10.1725   -5.3259    1.2520 C.2        1 <1>        0.000
      8 O4        -11.3034   -5.5154    0.8278 O.2        1 <1>        0.000
      9 O5         -9.8965   -5.6477    2.5217 O.3        1 <1>        0.000
     10 H          -5.4982   -0.9546   -0.7544 H.spc      1 <1>        0.000
     11 H          -4.7429   -0.9775   -2.4845 H.spc      1 <1>        0.000
     12 H          -6.3027   -2.6525   -3.1651 H.spc      1 <1>        0.000
     13 H          -8.3978   -2.8020   -1.6200 H.spc      1 <1>        0.000
     14 H          -6.0950   -3.4423    0.2635 H.spc      1 <1>        0.000
     15 H          -8.0910   -3.7119    1.8634 H.spc      1 <1>        0.000
     16 H          -9.1630   -5.0201   -0.6791 H.spc      1 <1>        0.000
     17 H          -8.9773   -5.4442    2.7097 H.spc      1 <1>        0.000
@<TRIPOS>BOND
     1    7    9 1  
     2    7    8 2  
     3    6    7 1  
     4    1    2 2  
     5    2    3 1  
     6    3    4 2  
     7    4    5 1  
     8    5    6 2  
     9    1   10 1  
    10    1   11 1  
    11    2   12 1  
    12    3   13 1  
    13    4   14 1  
    14    5   15 1  
    15    6   16 1  
    16    9   17 1  
# Name:          frag3-151-15/31924
# Creation time: Sat Jun  5 12:52:04 2010


@<TRIPOS>MOLECULE
frag3-151-15/31924
   17    16     1     1     1
SMALL
USER_CHARGES


@<TRIPOS>ATOM
      1 C13        -4.8920   -1.5864   -2.0253 C.2        1 <1>        0.000
      2 C14        -6.1739   -1.9131   -1.8638 C.2        1 <1>        0.000
      3 C15        -6.6804   -2.7996   -0.8441 C.2        1 <1>        0.000
      4 C16        -7.9531   -3.1909   -0.7064 C.2        1 <1>        0.000
      5 C17        -8.4633   -4.0815    0.3143 C.2        1 <1>        0.000
      6 C18        -9.7355   -4.5045    0.3962 C.2        1 <1>        0.000
      7 C19       -10.2462   -5.4104    1.4366 C.2        1 <1>        0.000
      8 O4        -11.3989   -5.8170    1.3911 O.2        1 <1>        0.000
      9 O5         -9.4250   -5.7851    2.4235 O.3        1 <1>        0.000
     10 H          -4.1361   -1.9988   -1.3570 H.spc      1 <1>        0.000
     11 H          -4.5994   -0.9068   -2.8257 H.spc      1 <1>        0.000
     12 H          -6.8952   -1.4772   -2.5551 H.spc      1 <1>        0.000
     13 H          -5.9620   -3.1854   -0.1208 H.spc      1 <1>        0.000
     14 H          -8.6711   -2.8034   -1.4292 H.spc      1 <1>        0.000
     15 H          -7.7638   -4.4348    1.0720 H.spc      1 <1>        0.000
     16 H         -10.4374   -4.1525   -0.3598 H.spc      1 <1>        0.000
     17 H          -8.5674   -5.3722    2.2988 H.spc      1 <1>        0.000
@<TRIPOS>BOND
     1    7    9 1  
     2    7    8 2  
     3    6    7 1  
     4    1    2 2  
     5    2    3 1  
     6    3    4 2  
     7    4    5 1  
     8    5    6 2  
     9    1   10 1  
    10    1   11 1  
    11    2   12 1  
    12    3   13 1  
    13    4   14 1  
    14    5   15 1  
    15    6   16 1  
    16    9   17 1  
# Name:          frag3-151-15/31924
# Creation time: Sat Jun  5 12:52:04 2010


@<TRIPOS>MOLECULE
frag3-151-15/31924
   17    16     1     1     1
SMALL
USER_CHARGES


@<TRIPOS>ATOM
      1 C13        -5.6340   -1.2070   -2.5850 C.2        1 <1>        0.000
      2 C14        -5.8421   -2.0224   -1.5523 C.2        1 <1>        0.000
      3 C15        -7.0671   -2.7353   -1.2917 C.2        1 <1>        0.000
      4 C16        -7.3182   -3.5067   -0.2268 C.2        1 <1>        0.000
      5 C17        -8.5490   -4.2184    0.0401 C.2        1 <1>        0.000
      6 C18        -8.9376   -4.6515    1.2537 C.2        1 <1>        0.000
      7 C19       -10.1965   -5.3669    1.5115 C.2        1 <1>        0.000
      8 O4        -11.0813   -5.4095    0.6719 O.2        1 <1>        0.000
      9 O5        -10.3426   -5.9709    2.7007 O.3        1 <1>        0.000
     10 H          -6.4264   -1.0377   -3.3140 H.spc      1 <1>        0.000
     11 H          -4.6713   -0.7092   -2.7010 H.spc      1 <1>        0.000
     12 H          -5.0211   -2.1613   -0.8490 H.spc      1 <1>        0.000
     13 H          -7.8629   -2.6373   -2.0301 H.spc      1 <1>        0.000
     14 H          -6.5200   -3.6081    0.5085 H.spc      1 <1>        0.000
     15 H          -9.2099   -4.4185   -0.8032 H.spc      1 <1>        0.000
     16 H          -8.2772   -4.4598    2.0994 H.spc      1 <1>        0.000
     17 H          -9.5523   -5.8327    3.2278 H.spc      1 <1>        0.000
@<TRIPOS>BOND
     1    7    9 1  
     2    7    8 2  
     3    6    7 1  
     4    1    2 2  
     5    2    3 1  
     6    3    4 2  
     7    4    5 1  
     8    5    6 2  
     9    1   10 1  
    10    1   11 1  
    11    2   12 1  
    12    3   13 1  
    13    4   14 1  
    14    5   15 1  
    15    6   16 1  
    16    9   17 1  
# Name:          frag3-151-15/31924
# Creation time: Sat Jun  5 12:52:04 2010


@<TRIPOS>MOLECULE
frag3-151-15/31924
   17    16     1     1     1
SMALL
USER_CHARGES


@<TRIPOS>ATOM
      1 C13        -5.9428   -1.8486   -2.8959 C.2        1 <1>        0.000
      2 C14        -6.0183   -2.1147   -1.5922 C.2        1 <1>        0.000
      3 C15        -7.1395   -2.7420   -0.9375 C.2        1 <1>        0.000
      4 C16        -7.2088   -3.0708    0.3599 C.2        1 <1>        0.000
      5 C17        -8.3383   -3.7084    1.0071 C.2        1 <1>        0.000
      6 C18        -8.9736   -4.7847    0.5068 C.2        1 <1>        0.000
      7 C19       -10.1314   -5.4354    1.1417 C.2        1 <1>        0.000
      8 O4        -10.8792   -6.1466    0.4845 O.2        1 <1>        0.000
      9 O5        -10.3364   -5.2375    2.4477 O.3        1 <1>        0.000
     10 H          -6.7715   -2.1093   -3.5542 H.spc      1 <1>        0.000
     11 H          -5.0523   -1.3703   -3.3038 H.spc      1 <1>        0.000
     12 H          -5.1659   -1.8364   -0.9724 H.spc      1 <1>        0.000
     13 H          -8.0095   -2.9694   -1.5536 H.spc      1 <1>        0.000
     14 H          -6.3431   -2.8393    0.9805 H.spc      1 <1>        0.000
     15 H          -8.6927   -3.2936    1.9507 H.spc      1 <1>        0.000
     16 H          -8.6063   -5.2021   -0.4307 H.spc      1 <1>        0.000
     17 H          -9.6548   -4.6563    2.7930 H.spc      1 <1>        0.000
@<TRIPOS>BOND
     1    7    9 1  
     2    7    8 2  
     3    6    7 1  
     4    1    2 2  
     5    2    3 1  
     6    3    4 2  
     7    4    5 1  
     8    5    6 2  
     9    1   10 1  
    10    1   11 1  
    11    2   12 1  
    12    3   13 1  
    13    4   14 1  
    14    5   15 1  
    15    6   16 1  
    16    9   17 1  
# Name:          frag3-151-15/31924
# Creation time: Sat Jun  5 12:52:04 2010


@<TRIPOS>MOLECULE
frag3-151-15/31924
   17    16     1     1     1
SMALL
USER_CHARGES


@<TRIPOS>ATOM
      1 C13        -5.1153   -2.3643   -2.0654 C.2        1 <1>        0.000
      2 C14        -6.2278   -1.6766   -1.8004 C.2        1 <1>        0.000
      3 C15        -7.4479   -2.2602   -1.3041 C.2        1 <1>        0.000
      4 C16        -7.5282   -3.1329   -0.2849 C.2        1 <1>        0.000
      5 C17        -8.7370   -3.7439    0.2224 C.2        1 <1>        0.000
      6 C18        -8.7830   -4.8874    0.9281 C.2        1 <1>        0.000
      7 C19       -10.0208   -5.5012    1.4262 C.2        1 <1>        0.000
      8 O4        -10.7181   -6.1902    0.6969 O.2        1 <1>        0.000
      9 O5        -10.3902   -5.3319    2.7034 O.3        1 <1>        0.000
     10 H          -5.0906   -3.4426   -1.9079 H.spc      1 <1>        0.000
     11 H          -4.2313   -1.8477   -2.4394 H.spc      1 <1>        0.000
     12 H          -6.2123   -0.6002   -1.9710 H.spc      1 <1>        0.000
     13 H          -8.3783   -1.9716   -1.7931 H.spc      1 <1>        0.000
     14 H          -6.5939   -3.4059    0.2057 H.spc      1 <1>        0.000
     15 H          -9.6813   -3.2396    0.0173 H.spc      1 <1>        0.000
     16 H          -7.8410   -5.3913    1.1445 H.spc      1 <1>        0.000
     17 H          -9.7504   -4.7716    3.1488 H.spc      1 <1>        0.000
@<TRIPOS>BOND
     1    7    9 1  
     2    7    8 2  
     3    6    7 1  
     4    1    2 2  
     5    2    3 1  
     6    3    4 2  
     7    4    5 1  
     8    5    6 2  
     9    1   10 1  
    10    1   11 1  
    11    2   12 1  
    12    3   13 1  
    13    4   14 1  
    14    5   15 1  
    15    6   16 1  
    16    9   17 1  
# Name:          frag3-151-15/31924
# Creation time: Sat Jun  5 12:52:04 2010


@<TRIPOS>MOLECULE
frag3-151-15/31924
   17    16     1     1     1
SMALL
USER_CHARGES


@<TRIPOS>ATOM
      1 C13        -5.1265   -2.4534   -2.3592 C.2        1 <1>        0.000
      2 C14        -6.1800   -2.0320   -1.6604 C.2        1 <1>        0.000
      3 C15        -7.0457   -2.8724   -0.8753 C.2        1 <1>        0.000
      4 C16        -8.0698   -2.4611   -0.1165 C.2        1 <1>        0.000
      5 C17        -8.9350   -3.3219    0.6684 C.2        1 <1>        0.000
      6 C18        -9.0785   -4.6386    0.4359 C.2        1 <1>        0.000
      7 C19        -9.9476   -5.5310    1.2203 C.2        1 <1>        0.000
      8 O4        -10.7002   -6.3143    0.6560 O.2        1 <1>        0.000
      9 O5         -9.8849   -5.4639    2.5529 O.3        1 <1>        0.000
     10 H          -4.8636   -3.5112   -2.3643 H.spc      1 <1>        0.000
     11 H          -4.5277   -1.7403   -2.9257 H.spc      1 <1>        0.000
     12 H          -6.4041   -0.9656   -1.6853 H.spc      1 <1>        0.000
     13 H          -6.8493   -3.9443   -0.9008 H.spc      1 <1>        0.000
     14 H          -8.2701   -1.3901   -0.0860 H.spc      1 <1>        0.000
     15 H          -9.4981   -2.8780    1.4894 H.spc      1 <1>        0.000
     16 H          -8.5136   -5.0741   -0.3883 H.spc      1 <1>        0.000
     17 H          -9.2437   -4.7968    2.8088 H.spc      1 <1>        0.000
@<TRIPOS>BOND
     1    7    9 1  
     2    7    8 2  
     3    6    7 1  
     4    1    2 2  
     5    2    3 1  
     6    3    4 2  
     7    4    5 1  
     8    5    6 2  
     9    1   10 1  
    10    1   11 1  
    11    2   12 1  
    12    3   13 1  
    13    4   14 1  
    14    5   15 1  
    15    6   16 1  
    16    9   17 1  
# Name:          frag3-151-15/31924
# Creation time: Sat Jun  5 12:52:04 2010


@<TRIPOS>MOLECULE
frag3-151-15/31924
   17    16     1     1     1
SMALL
USER_CHARGES


@<TRIPOS>ATOM
      1 C13        -4.8130   -2.0882   -1.5232 C.2        1 <1>        0.000
      2 C14        -6.1334   -2.1221   -1.6936 C.2        1 <1>        0.000
      3 C15        -7.0595   -2.8491   -0.8699 C.2        1 <1>        0.000
      4 C16        -8.3956   -2.8467   -0.9850 C.2        1 <1>        0.000
      5 C17        -9.3153   -3.5884   -0.1481 C.2        1 <1>        0.000
      6 C18        -8.9538   -4.6621    0.5846 C.2        1 <1>        0.000
      7 C19        -9.8696   -5.4256    1.4435 C.2        1 <1>        0.000
      8 O4        -10.9904   -5.7209    1.0545 O.2        1 <1>        0.000
      9 O5         -9.4376   -5.7855    2.6593 O.3        1 <1>        0.000
     10 H          -4.3547   -2.6428   -0.7044 H.spc      1 <1>        0.000
     11 H          -4.1906   -1.5058   -2.2026 H.spc      1 <1>        0.000
     12 H          -6.5453   -1.5516   -2.5261 H.spc      1 <1>        0.000
     13 H          -6.6350   -3.4618   -0.0746 H.spc      1 <1>        0.000
     14 H          -8.8263   -2.2336   -1.7767 H.spc      1 <1>        0.000
     15 H         -10.3545   -3.2621   -0.1079 H.spc      1 <1>        0.000
     16 H          -7.9137   -4.9845    0.5362 H.spc      1 <1>        0.000
     17 H          -8.5408   -5.4673    2.7862 H.spc      1 <1>        0.000
@<TRIPOS>BOND
     1    7    9 1  
     2    7    8 2  
     3    6    7 1  
     4    1    2 2  
     5    2    3 1  
     6    3    4 2  
     7    4    5 1  
     8    5    6 2  
     9    1   10 1  
    10    1   11 1  
    11    2   12 1  
    12    3   13 1  
    13    4   14 1  
    14    5   15 1  
    15    6   16 1  
    16    9   17 1  
# Name:          frag3-151-15/31924
# Creation time: Sat Jun  5 12:52:04 2010


@<TRIPOS>MOLECULE
frag3-151-15/31924
   17    16     1     1     1
SMALL
USER_CHARGES


@<TRIPOS>ATOM
      1 C13        -5.8385   -1.4154   -2.2068 C.2        1 <1>        0.000
      2 C14        -5.6716   -2.4943   -1.4415 C.2        1 <1>        0.000
      3 C15        -6.7461   -3.2847   -0.9082 C.2        1 <1>        0.000
      4 C16        -7.9659   -2.8182   -0.5823 C.2        1 <1>        0.000
      5 C17        -9.0548   -3.6005   -0.0460 C.2        1 <1>        0.000
      6 C18        -8.8906   -4.5711    0.8763 C.2        1 <1>        0.000
      7 C19        -9.9838   -5.3894    1.4215 C.2        1 <1>        0.000
      8 O4        -11.0939   -5.3745    0.9086 O.2        1 <1>        0.000
      9 O5         -9.7230   -6.1406    2.5006 O.3        1 <1>        0.000
     10 H          -6.8431   -1.0810   -2.4658 H.spc      1 <1>        0.000
     11 H          -4.9703   -0.8677   -2.5735 H.spc      1 <1>        0.000
     12 H          -4.6516   -2.7969   -1.2046 H.spc      1 <1>        0.000
     13 H          -6.5585   -4.3475   -0.7552 H.spc      1 <1>        0.000
     14 H          -8.1481   -1.7547   -0.7370 H.spc      1 <1>        0.000
     15 H         -10.0632   -3.3958   -0.4056 H.spc      1 <1>        0.000
     16 H          -7.8813   -4.7612    1.2413 H.spc      1 <1>        0.000
     17 H          -8.8055   -6.0224    2.7572 H.spc      1 <1>        0.000
@<TRIPOS>BOND
     1    7    9 1  
     2    7    8 2  
     3    6    7 1  
     4    1    2 2  
     5    2    3 1  
     6    3    4 2  
     7    4    5 1  
     8    5    6 2  
     9    1   10 1  
    10    1   11 1  
    11    2   12 1  
    12    3   13 1  
    13    4   14 1  
    14    5   15 1  
    15    6   16 1  
    16    9   17 1  
# Name:          frag3-151-15/31924
# Creation time: Sat Jun  5 12:52:04 2010


@<TRIPOS>MOLECULE
frag3-151-15/31924
   17    16     1     1     1
SMALL
USER_CHARGES


@<TRIPOS>ATOM
      1 C13        -5.6540   -2.0748   -2.4811 C.2        1 <1>        0.000
      2 C14        -6.4527   -1.6153   -1.5202 C.2        1 <1>        0.000
      3 C15        -7.3384   -2.4354   -0.7387 C.2        1 <1>        0.000
      4 C16        -7.0329   -3.6332   -0.2189 C.2        1 <1>        0.000
      5 C17        -7.9238   -4.4732    0.5561 C.2        1 <1>        0.000
      6 C18        -9.2626   -4.4213    0.4546 C.2        1 <1>        0.000
      7 C19       -10.1887   -5.2569    1.2361 C.2        1 <1>        0.000
      8 O4        -10.9916   -5.9856    0.6664 O.2        1 <1>        0.000
      9 O5        -10.1234   -5.1929    2.5679 O.3        1 <1>        0.000
     10 H          -5.6439   -3.1384   -2.7192 H.spc      1 <1>        0.000
     11 H          -5.0101   -1.3874   -3.0297 H.spc      1 <1>        0.000
     12 H          -6.4340   -0.5456   -1.3119 H.spc      1 <1>        0.000
     13 H          -8.3416   -2.0515   -0.5534 H.spc      1 <1>        0.000
     14 H          -6.0248   -4.0084   -0.3950 H.spc      1 <1>        0.000
     15 H          -7.4855   -5.1834    1.2572 H.spc      1 <1>        0.000
     16 H          -9.6917   -3.7129   -0.2540 H.spc      1 <1>        0.000
     17 H          -9.4379   -4.5716    2.8241 H.spc      1 <1>        0.000
@<TRIPOS>BOND
     1    7    9 1  
     2    7    8 2  
     3    6    7 1  
     4    1    2 2  
     5    2    3 1  
     6    3    4 2  
     7    4    5 1  
     8    5    6 2  
     9    1   10 1  
    10    1   11 1  
    11    2   12 1  
    12    3   13 1  
    13    4   14 1  
    14    5   15 1  
    15    6   16 1  
    16    9   17 1  
# Name:          frag3-151-15/31924 -- energy: -1.218887
# Creation time: Sat Jun  5 12:52:04 2010


@<TRIPOS>MOLECULE
frag3-151-15/31924 -- energy: -1.218887
   17    16     1     1     1
SMALL
USER_CHARGES


@<TRIPOS>ATOM
      1 C13        -5.0113   -1.9685   -1.5113 C.2        1 <1>        0.000
      2 C14        -6.2382   -1.8712   -2.0274 C.2        1 <1>        0.000
      3 C15        -7.3420   -2.7259   -1.6716 C.2        1 <1>        0.000
      4 C16        -7.6993   -3.0434   -0.4151 C.2        1 <1>        0.000
      5 C17        -8.7914   -3.9087   -0.0314 C.2        1 <1>        0.000
      6 C18        -8.9016   -4.5292    1.1588 C.2        1 <1>        0.000
      7 C19       -10.0155   -5.4121    1.5285 C.2        1 <1>        0.000
      8 O4        -10.9712   -5.5717    0.7857 O.2        1 <1>        0.000
      9 O5         -9.9977   -6.0578    2.7058 O.3        1 <1>        0.000
     10 H          -4.7921   -2.7345   -0.7675 H.spc      1 <1>        0.000
     11 H          -4.2284   -1.2819   -1.8336 H.spc      1 <1>        0.000
     12 H          -6.4173   -1.0922   -2.7684 H.spc      1 <1>        0.000
     13 H          -7.9333   -3.1479   -2.4842 H.spc      1 <1>        0.000
     14 H          -7.1093   -2.6068    0.3908 H.spc      1 <1>        0.000
     15 H          -9.5856   -4.0713   -0.7601 H.spc      1 <1>        0.000
     16 H          -8.1141   -4.3658    1.8944 H.spc      1 <1>        0.000
     17 H          -9.1916   -5.8373    3.1783 H.spc      1 <1>        0.000
@<TRIPOS>BOND
     1    7    9 1  
     2    7    8 2  
     3    6    7 1  
     4    1    2 2  
     5    2    3 1  
     6    3    4 2  
     7    4    5 1  
     8    5    6 2  
     9    1   10 1  
    10    1   11 1  
    11    2   12 1  
    12    3   13 1  
    13    4   14 1  
    14    5   15 1  
    15    6   16 1  
    16    9   17 1  
# Name:          frag3-151-15/31924 -- energy: -1.067848
# Creation time: Sat Jun  5 12:52:04 2010


@<TRIPOS>MOLECULE
frag3-151-15/31924 -- energy: -1.067848
   17    16     1     1     1
SMALL
USER_CHARGES


@<TRIPOS>ATOM
      1 C13        -5.1277   -2.1224   -1.8577 C.2        1 <1>        0.000
      2 C14        -6.2929   -1.6206   -1.4695 C.2        1 <1>        0.000
      3 C15        -7.3762   -2.3233   -0.8676 C.2        1 <1>        0.000
      4 C16        -7.6645   -3.6253   -0.9621 C.2        1 <1>        0.000
      5 C17        -8.7311   -4.3581   -0.3783 C.2        1 <1>        0.000
      6 C18        -8.8896   -4.5465    0.9369 C.2        1 <1>        0.000
      7 C19        -9.9985   -5.2949    1.4836 C.2        1 <1>        0.000
      8 O4        -10.9511   -5.6857    0.8249 O.2        1 <1>        0.000
      9 O5         -9.9367   -5.5119    2.8120 O.3        1 <1>        0.000
     10 H          -4.9207   -3.1844   -1.7261 H.spc      1 <1>        0.000
     11 H          -4.3774   -1.4726   -2.3082 H.spc      1 <1>        0.000
     12 H          -6.4374   -0.5520   -1.6288 H.spc      1 <1>        0.000
     13 H          -8.0524   -1.7266   -0.2554 H.spc      1 <1>        0.000
     14 H          -6.9805   -4.2098   -1.5775 H.spc      1 <1>        0.000
     15 H          -9.4714   -4.7972   -1.0471 H.spc      1 <1>        0.000
     16 H          -8.1557   -4.1200    1.6208 H.spc      1 <1>        0.000
     17 H          -9.1235   -5.1377    3.1587 H.spc      1 <1>        0.000
@<TRIPOS>BOND
     1    7    9 1  
     2    7    8 2  
     3    6    7 1  
     4    1    2 2  
     5    2    3 1  
     6    3    4 2  
     7    4    5 1  
     8    5    6 2  
     9    1   10 1  
    10    1   11 1  
    11    2   12 1  
    12    3   13 1  
    13    4   14 1  
    14    5   15 1  
    15    6   16 1  
    16    9   17 1  
# Name:          frag3-151-15/31924 -- energy: -1.274824
# Creation time: Sat Jun  5 12:52:04 2010


@<TRIPOS>MOLECULE
frag3-151-15/31924 -- energy: -1.274824
   17    16     1     1     1
SMALL
USER_CHARGES


@<TRIPOS>ATOM
      1 C13        -5.3251   -1.1013   -1.3959 C.2        1 <1>        0.000
      2 C14        -6.0180   -2.1901   -1.7264 C.2        1 <1>        0.000
      3 C15        -7.1507   -2.7048   -0.9982 C.2        1 <1>        0.000
      4 C16        -7.7694   -3.8725   -1.2283 C.2        1 <1>        0.000
      5 C17        -8.9002   -4.3874   -0.4848 C.2        1 <1>        0.000
      6 C18        -8.8546   -4.7010    0.8283 C.2        1 <1>        0.000
      7 C19       -10.0014   -5.2063    1.5940 C.2        1 <1>        0.000
      8 O4        -11.1429   -4.8751    1.3145 O.2        1 <1>        0.000
      9 O5         -9.8059   -6.0501    2.6190 O.3        1 <1>        0.000
     10 H          -5.6031   -0.5255   -0.5132 H.spc      1 <1>        0.000
     11 H          -4.4802   -0.7863   -2.0082 H.spc      1 <1>        0.000
     12 H          -5.7039   -2.7343   -2.6171 H.spc      1 <1>        0.000
     13 H          -7.5397   -2.0893   -0.1871 H.spc      1 <1>        0.000
     14 H          -7.3884   -4.4861   -2.0446 H.spc      1 <1>        0.000
     15 H          -9.8419   -4.5301   -1.0149 H.spc      1 <1>        0.000
     16 H          -7.9077   -4.5709    1.3522 H.spc      1 <1>        0.000
     17 H          -8.8660   -6.2180    2.7190 H.spc      1 <1>        0.000
@<TRIPOS>BOND
     1    7    9 1  
     2    7    8 2  
     3    6    7 1  
     4    1    2 2  
     5    2    3 1  
     6    3    4 2  
     7    4    5 1  
     8    5    6 2  
     9    1   10 1  
    10    1   11 1  
    11    2   12 1  
    12    3   13 1  
    13    4   14 1  
    14    5   15 1  
    15    6   16 1  
    16    9   17 1  
# Name:          frag3-151-15/31924 -- energy: -1.238692
# Creation time: Sat Jun  5 12:52:04 2010


@<TRIPOS>MOLECULE
frag3-151-15/31924 -- energy: -1.238692
   17    16     1     1     1
SMALL
USER_CHARGES


@<TRIPOS>ATOM
      1 C13        -5.6637   -1.1293   -1.3900 C.2        1 <1>        0.000
      2 C14        -5.9759   -2.2313   -2.0763 C.2        1 <1>        0.000
      3 C15        -6.7614   -3.3205   -1.5492 C.2        1 <1>        0.000
      4 C16        -7.6336   -3.2171   -0.5306 C.2        1 <1>        0.000
      5 C17        -8.4299   -4.2907    0.0209 C.2        1 <1>        0.000
      6 C18        -9.3619   -4.1442    0.9766 C.2        1 <1>        0.000
      7 C19       -10.1696   -5.2426    1.5230 C.2        1 <1>        0.000
      8 O4        -11.3658   -5.0925    1.7296 O.2        1 <1>        0.000
      9 O5         -9.6064   -6.4206    1.8180 O.3        1 <1>        0.000
     10 H          -6.0078   -1.0114   -0.3625 H.spc      1 <1>        0.000
     11 H          -5.0648   -0.3476   -1.8573 H.spc      1 <1>        0.000
     12 H          -5.6138   -2.3132   -3.1011 H.spc      1 <1>        0.000
     13 H          -6.6389   -4.3003   -2.0108 H.spc      1 <1>        0.000
     14 H          -7.7511   -2.2322   -0.0787 H.spc      1 <1>        0.000
     15 H          -8.2609   -5.2947   -0.3685 H.spc      1 <1>        0.000
     16 H          -9.5303   -3.1431    1.3734 H.spc      1 <1>        0.000
     17 H          -8.6711   -6.3894    1.6038 H.spc      1 <1>        0.000
@<TRIPOS>BOND
     1    7    9 1  
     2    7    8 2  
     3    6    7 1  
     4    1    2 2  
     5    2    3 1  
     6    3    4 2  
     7    4    5 1  
     8    5    6 2  
     9    1   10 1  
    10    1   11 1  
    11    2   12 1  
    12    3   13 1  
    13    4   14 1  
    14    5   15 1  
    15    6   16 1  
    16    9   17 1  
# Name:          frag3-151-15/31924 -- energy: -1.325000
# Creation time: Sat Jun  5 12:52:04 2010


@<TRIPOS>MOLECULE
frag3-151-15/31924 -- energy: -1.325000
   17    16     1     1     1
SMALL
USER_CHARGES


@<TRIPOS>ATOM
      1 C13        -5.4784   -1.3483   -1.7706 C.2        1 <1>        0.000
      2 C14        -6.3543   -2.2840   -2.1406 C.2        1 <1>        0.000
      3 C15        -7.3643   -2.8400   -1.2756 C.2        1 <1>        0.000
      4 C16        -7.1301   -3.4024   -0.0757 C.2        1 <1>        0.000
      5 C17        -8.1381   -3.9591    0.8029 C.2        1 <1>        0.000
      6 C18        -9.1306   -4.7658    0.3803 C.2        1 <1>        0.000
      7 C19       -10.1725   -5.3259    1.2520 C.2        1 <1>        0.000
      8 O4        -11.3034   -5.5154    0.8278 O.2        1 <1>        0.000
      9 O5         -9.8965   -5.6477    2.5217 O.3        1 <1>        0.000
     10 H          -5.4982   -0.9546   -0.7544 H.spc      1 <1>        0.000
     11 H          -4.7429   -0.9775   -2.4845 H.spc      1 <1>        0.000
     12 H          -6.3027   -2.6525   -3.1651 H.spc      1 <1>        0.000
     13 H          -8.3978   -2.8020   -1.6200 H.spc      1 <1>        0.000
     14 H          -6.0950   -3.4423    0.2635 H.spc      1 <1>        0.000
     15 H          -8.0910   -3.7119    1.8634 H.spc      1 <1>        0.000
     16 H          -9.1630   -5.0201   -0.6791 H.spc      1 <1>        0.000
     17 H          -8.9773   -5.4442    2.7097 H.spc      1 <1>        0.000
@<TRIPOS>BOND
     1    7    9 1  
     2    7    8 2  
     3    6    7 1  
     4    1    2 2  
     5    2    3 1  
     6    3    4 2  
     7    4    5 1  
     8    5    6 2  
     9    1   10 1  
    10    1   11 1  
    11    2   12 1  
    12    3   13 1  
    13    4   14 1  
    14    5   15 1  
    15    6   16 1  
    16    9   17 1  
# Name:          frag3-151-15/31924 -- energy: 0.631308
# Creation time: Sat Jun  5 12:52:04 2010


@<TRIPOS>MOLECULE
frag3-151-15/31924 -- energy: 0.631308
   17    16     1     1     1
SMALL
USER_CHARGES


@<TRIPOS>ATOM
      1 C13        -4.8920   -1.5864   -2.0253 C.2        1 <1>        0.000
      2 C14        -6.1739   -1.9131   -1.8638 C.2        1 <1>        0.000
      3 C15        -6.6804   -2.7996   -0.8441 C.2        1 <1>        0.000
      4 C16        -7.9531   -3.1909   -0.7064 C.2        1 <1>        0.000
      5 C17        -8.4633   -4.0815    0.3143 C.2        1 <1>        0.000
      6 C18        -9.7355   -4.5045    0.3962 C.2        1 <1>        0.000
      7 C19       -10.2462   -5.4104    1.4366 C.2        1 <1>        0.000
      8 O4        -11.3989   -5.8170    1.3911 O.2        1 <1>        0.000
      9 O5         -9.4250   -5.7851    2.4235 O.3        1 <1>        0.000
     10 H          -4.1361   -1.9988   -1.3570 H.spc      1 <1>        0.000
     11 H          -4.5994   -0.9068   -2.8257 H.spc      1 <1>        0.000
     12 H          -6.8952   -1.4772   -2.5551 H.spc      1 <1>        0.000
     13 H          -5.9620   -3.1854   -0.1208 H.spc      1 <1>        0.000
     14 H          -8.6711   -2.8034   -1.4292 H.spc      1 <1>        0.000
     15 H          -7.7638   -4.4348    1.0720 H.spc      1 <1>        0.000
     16 H         -10.4374   -4.1525   -0.3598 H.spc      1 <1>        0.000
     17 H          -8.5674   -5.3722    2.2988 H.spc      1 <1>        0.000
@<TRIPOS>BOND
     1    7    9 1  
     2    7    8 2  
     3    6    7 1  
     4    1    2 2  
     5    2    3 1  
     6    3    4 2  
     7    4    5 1  
     8    5    6 2  
     9    1   10 1  
    10    1   11 1  
    11    2   12 1  
    12    3   13 1  
    13    4   14 1  
    14    5   15 1  
    15    6   16 1  
    16    9   17 1  
# Name:          frag3-151-15/31924 -- energy: -1.081297
# Creation time: Sat Jun  5 12:52:04 2010


@<TRIPOS>MOLECULE
frag3-151-15/31924 -- energy: -1.081297
   17    16     1     1     1
SMALL
USER_CHARGES


@<TRIPOS>ATOM
      1 C13        -5.6340   -1.2070   -2.5850 C.2        1 <1>        0.000
      2 C14        -5.8421   -2.0224   -1.5523 C.2        1 <1>        0.000
      3 C15        -7.0671   -2.7353   -1.2917 C.2        1 <1>        0.000
      4 C16        -7.3182   -3.5067   -0.2268 C.2        1 <1>        0.000
      5 C17        -8.5490   -4.2184    0.0401 C.2        1 <1>        0.000
      6 C18        -8.9376   -4.6515    1.2537 C.2        1 <1>        0.000
      7 C19       -10.1965   -5.3669    1.5115 C.2        1 <1>        0.000
      8 O4        -11.0813   -5.4095    0.6719 O.2        1 <1>        0.000
      9 O5        -10.3426   -5.9709    2.7007 O.3        1 <1>        0.000
     10 H          -6.4264   -1.0377   -3.3140 H.spc      1 <1>        0.000
     11 H          -4.6713   -0.7092   -2.7010 H.spc      1 <1>        0.000
     12 H          -5.0211   -2.1613   -0.8490 H.spc      1 <1>        0.000
     13 H          -7.8629   -2.6373   -2.0301 H.spc      1 <1>        0.000
     14 H          -6.5200   -3.6081    0.5085 H.spc      1 <1>        0.000
     15 H          -9.2099   -4.4185   -0.8032 H.spc      1 <1>        0.000
     16 H          -8.2772   -4.4598    2.0994 H.spc      1 <1>        0.000
     17 H          -9.5523   -5.8327    3.2278 H.spc      1 <1>        0.000
@<TRIPOS>BOND
     1    7    9 1  
     2    7    8 2  
     3    6    7 1  
     4    1    2 2  
     5    2    3 1  
     6    3    4 2  
     7    4    5 1  
     8    5    6 2  
     9    1   10 1  
    10    1   11 1  
    11    2   12 1  
    12    3   13 1  
    13    4   14 1  
    14    5   15 1  
    15    6   16 1  
    16    9   17 1  
# Name:          frag3-151-15/31924 -- energy: -0.530552
# Creation time: Sat Jun  5 12:52:04 2010


@<TRIPOS>MOLECULE
frag3-151-15/31924 -- energy: -0.530552
   17    16     1     1     1
SMALL
USER_CHARGES


@<TRIPOS>ATOM
      1 C13        -5.9428   -1.8486   -2.8959 C.2        1 <1>        0.000
      2 C14        -6.0183   -2.1147   -1.5922 C.2        1 <1>        0.000
      3 C15        -7.1395   -2.7420   -0.9375 C.2        1 <1>        0.000
      4 C16        -7.2088   -3.0708    0.3599 C.2        1 <1>        0.000
      5 C17        -8.3383   -3.7084    1.0071 C.2        1 <1>        0.000
      6 C18        -8.9736   -4.7847    0.5068 C.2        1 <1>        0.000
      7 C19       -10.1314   -5.4354    1.1417 C.2        1 <1>        0.000
      8 O4        -10.8792   -6.1466    0.4845 O.2        1 <1>        0.000
      9 O5        -10.3364   -5.2375    2.4477 O.3        1 <1>        0.000
     10 H          -6.7715   -2.1093   -3.5542 H.spc      1 <1>        0.000
     11 H          -5.0523   -1.3703   -3.3038 H.spc      1 <1>        0.000
     12 H          -5.1659   -1.8364   -0.9724 H.spc      1 <1>        0.000
     13 H          -8.0095   -2.9694   -1.5536 H.spc      1 <1>        0.000
     14 H          -6.3431   -2.8393    0.9805 H.spc      1 <1>        0.000
     15 H          -8.6927   -3.2936    1.9507 H.spc      1 <1>        0.000
     16 H          -8.6063   -5.2021   -0.4307 H.spc      1 <1>        0.000
     17 H          -9.6548   -4.6563    2.7930 H.spc      1 <1>        0.000
@<TRIPOS>BOND
     1    7    9 1  
     2    7    8 2  
     3    6    7 1  
     4    1    2 2  
     5    2    3 1  
     6    3    4 2  
     7    4    5 1  
     8    5    6 2  
     9    1   10 1  
    10    1   11 1  
    11    2   12 1  
    12    3   13 1  
    13    4   14 1  
    14    5   15 1  
    15    6   16 1  
    16    9   17 1  
# Name:          frag3-151-15/31924 -- energy: -1.324804
# Creation time: Sat Jun  5 12:52:04 2010


@<TRIPOS>MOLECULE
frag3-151-15/31924 -- energy: -1.324804
   17    16     1     1     1
SMALL
USER_CHARGES


@<TRIPOS>ATOM
      1 C13        -5.1153   -2.3643   -2.0654 C.2        1 <1>        0.000
      2 C14        -6.2278   -1.6766   -1.8004 C.2        1 <1>        0.000
      3 C15        -7.4479   -2.2602   -1.3041 C.2        1 <1>        0.000
      4 C16        -7.5282   -3.1329   -0.2849 C.2        1 <1>        0.000
      5 C17        -8.7370   -3.7439    0.2224 C.2        1 <1>        0.000
      6 C18        -8.7830   -4.8874    0.9281 C.2        1 <1>        0.000
      7 C19       -10.0208   -5.5012    1.4262 C.2        1 <1>        0.000
      8 O4        -10.7181   -6.1902    0.6969 O.2        1 <1>        0.000
      9 O5        -10.3902   -5.3319    2.7034 O.3        1 <1>        0.000
     10 H          -5.0906   -3.4426   -1.9079 H.spc      1 <1>        0.000
     11 H          -4.2313   -1.8477   -2.4394 H.spc      1 <1>        0.000
     12 H          -6.2123   -0.6002   -1.9710 H.spc      1 <1>        0.000
     13 H          -8.3783   -1.9716   -1.7931 H.spc      1 <1>        0.000
     14 H          -6.5939   -3.4059    0.2057 H.spc      1 <1>        0.000
     15 H          -9.6813   -3.2396    0.0173 H.spc      1 <1>        0.000
     16 H          -7.8410   -5.3913    1.1445 H.spc      1 <1>        0.000
     17 H          -9.7504   -4.7716    3.1488 H.spc      1 <1>        0.000
@<TRIPOS>BOND
     1    7    9 1  
     2    7    8 2  
     3    6    7 1  
     4    1    2 2  
     5    2    3 1  
     6    3    4 2  
     7    4    5 1  
     8    5    6 2  
     9    1   10 1  
    10    1   11 1  
    11    2   12 1  
    12    3   13 1  
    13    4   14 1  
    14    5   15 1  
    15    6   16 1  
    16    9   17 1  
# Name:          frag3-151-15/31924 -- energy: -1.155367
# Creation time: Sat Jun  5 12:52:04 2010


@<TRIPOS>MOLECULE
frag3-151-15/31924 -- energy: -1.155367
   17    16     1     1     1
SMALL
USER_CHARGES


@<TRIPOS>ATOM
      1 C13        -5.1265   -2.4534   -2.3592 C.2        1 <1>        0.000
      2 C14        -6.1800   -2.0320   -1.6604 C.2        1 <1>        0.000
      3 C15        -7.0457   -2.8724   -0.8753 C.2        1 <1>        0.000
      4 C16        -8.0698   -2.4611   -0.1165 C.2        1 <1>        0.000
      5 C17        -8.9350   -3.3219    0.6684 C.2        1 <1>        0.000
      6 C18        -9.0785   -4.6386    0.4359 C.2        1 <1>        0.000
      7 C19        -9.9476   -5.5310    1.2203 C.2        1 <1>        0.000
      8 O4        -10.7002   -6.3143    0.6560 O.2        1 <1>        0.000
      9 O5         -9.8849   -5.4639    2.5529 O.3        1 <1>        0.000
     10 H          -4.8636   -3.5112   -2.3643 H.spc      1 <1>        0.000
     11 H          -4.5277   -1.7403   -2.9257 H.spc      1 <1>        0.000
     12 H          -6.4041   -0.9656   -1.6853 H.spc      1 <1>        0.000
     13 H          -6.8493   -3.9443   -0.9008 H.spc      1 <1>        0.000
     14 H          -8.2701   -1.3901   -0.0860 H.spc      1 <1>        0.000
     15 H          -9.4981   -2.8780    1.4894 H.spc      1 <1>        0.000
     16 H          -8.5136   -5.0741   -0.3883 H.spc      1 <1>        0.000
     17 H          -9.2437   -4.7968    2.8088 H.spc      1 <1>        0.000
@<TRIPOS>BOND
     1    7    9 1  
     2    7    8 2  
     3    6    7 1  
     4    1    2 2  
     5    2    3 1  
     6    3    4 2  
     7    4    5 1  
     8    5    6 2  
     9    1   10 1  
    10    1   11 1  
    11    2   12 1  
    12    3   13 1  
    13    4   14 1  
    14    5   15 1  
    15    6   16 1  
    16    9   17 1  
# Name:          frag3-151-15/31924 -- energy: -1.143222
# Creation time: Sat Jun  5 12:52:04 2010


@<TRIPOS>MOLECULE
frag3-151-15/31924 -- energy: -1.143222
   17    16     1     1     1
SMALL
USER_CHARGES


@<TRIPOS>ATOM
      1 C13        -4.8130   -2.0882   -1.5232 C.2        1 <1>        0.000
      2 C14        -6.1334   -2.1221   -1.6936 C.2        1 <1>        0.000
      3 C15        -7.0595   -2.8491   -0.8699 C.2        1 <1>        0.000
      4 C16        -8.3956   -2.8467   -0.9850 C.2        1 <1>        0.000
      5 C17        -9.3153   -3.5884   -0.1481 C.2        1 <1>        0.000
      6 C18        -8.9538   -4.6621    0.5846 C.2        1 <1>        0.000
      7 C19        -9.8696   -5.4256    1.4435 C.2        1 <1>        0.000
      8 O4        -10.9904   -5.7209    1.0545 O.2        1 <1>        0.000
      9 O5         -9.4376   -5.7855    2.6593 O.3        1 <1>        0.000
     10 H          -4.3547   -2.6428   -0.7044 H.spc      1 <1>        0.000
     11 H          -4.1906   -1.5058   -2.2026 H.spc      1 <1>        0.000
     12 H          -6.5453   -1.5516   -2.5261 H.spc      1 <1>        0.000
     13 H          -6.6350   -3.4618   -0.0746 H.spc      1 <1>        0.000
     14 H          -8.8263   -2.2336   -1.7767 H.spc      1 <1>        0.000
     15 H         -10.3545   -3.2621   -0.1079 H.spc      1 <1>        0.000
     16 H          -7.9137   -4.9845    0.5362 H.spc      1 <1>        0.000
     17 H          -8.5408   -5.4673    2.7862 H.spc      1 <1>        0.000
@<TRIPOS>BOND
     1    7    9 1  
     2    7    8 2  
     3    6    7 1  
     4    1    2 2  
     5    2    3 1  
     6    3    4 2  
     7    4    5 1  
     8    5    6 2  
     9    1   10 1  
    10    1   11 1  
    11    2   12 1  
    12    3   13 1  
    13    4   14 1  
    14    5   15 1  
    15    6   16 1  
    16    9   17 1  
# Name:          frag3-151-15/31924 -- energy: -1.225248
# Creation time: Sat Jun  5 12:52:04 2010


@<TRIPOS>MOLECULE
frag3-151-15/31924 -- energy: -1.225248
   17    16     1     1     1
SMALL
USER_CHARGES


@<TRIPOS>ATOM
      1 C13        -5.8385   -1.4154   -2.2068 C.2        1 <1>        0.000
      2 C14        -5.6716   -2.4943   -1.4415 C.2        1 <1>        0.000
      3 C15        -6.7461   -3.2847   -0.9082 C.2        1 <1>        0.000
      4 C16        -7.9659   -2.8182   -0.5823 C.2        1 <1>        0.000
      5 C17        -9.0548   -3.6005   -0.0460 C.2        1 <1>        0.000
      6 C18        -8.8906   -4.5711    0.8763 C.2        1 <1>        0.000
      7 C19        -9.9838   -5.3894    1.4215 C.2        1 <1>        0.000
      8 O4        -11.0939   -5.3745    0.9086 O.2        1 <1>        0.000
      9 O5         -9.7230   -6.1406    2.5006 O.3        1 <1>        0.000
     10 H          -6.8431   -1.0810   -2.4658 H.spc      1 <1>        0.000
     11 H          -4.9703   -0.8677   -2.5735 H.spc      1 <1>        0.000
     12 H          -4.6516   -2.7969   -1.2046 H.spc      1 <1>        0.000
     13 H          -6.5585   -4.3475   -0.7552 H.spc      1 <1>        0.000
     14 H          -8.1481   -1.7547   -0.7370 H.spc      1 <1>        0.000
     15 H         -10.0632   -3.3958   -0.4056 H.spc      1 <1>        0.000
     16 H          -7.8813   -4.7612    1.2413 H.spc      1 <1>        0.000
     17 H          -8.8055   -6.0224    2.7572 H.spc      1 <1>        0.000
@<TRIPOS>BOND
     1    7    9 1  
     2    7    8 2  
     3    6    7 1  
     4    1    2 2  
     5    2    3 1  
     6    3    4 2  
     7    4    5 1  
     8    5    6 2  
     9    1   10 1  
    10    1   11 1  
    11    2   12 1  
    12    3   13 1  
    13    4   14 1  
    14    5   15 1  
    15    6   16 1  
    16    9   17 1  
# Name:          frag3-151-15/31924 -- energy: -1.338009
# Creation time: Sat Jun  5 12:52:04 2010


@<TRIPOS>MOLECULE
frag3-151-15/31924 -- energy: -1.338009
   17    16     1     1     1
SMALL
USER_CHARGES


@<TRIPOS>ATOM
      1 C13        -5.6540   -2.0748   -2.4811 C.2        1 <1>        0.000
      2 C14        -6.4527   -1.6153   -1.5202 C.2        1 <1>        0.000
      3 C15        -7.3384   -2.4354   -0.7387 C.2        1 <1>        0.000
      4 C16        -7.0329   -3.6332   -0.2189 C.2        1 <1>        0.000
      5 C17        -7.9238   -4.4732    0.5561 C.2        1 <1>        0.000
      6 C18        -9.2626   -4.4213    0.4546 C.2        1 <1>        0.000
      7 C19       -10.1887   -5.2569    1.2361 C.2        1 <1>        0.000
      8 O4        -10.9916   -5.9856    0.6664 O.2        1 <1>        0.000
      9 O5        -10.1234   -5.1929    2.5679 O.3        1 <1>        0.000
     10 H          -5.6439   -3.1384   -2.7192 H.spc      1 <1>        0.000
     11 H          -5.0101   -1.3874   -3.0297 H.spc      1 <1>        0.000
     12 H          -6.4340   -0.5456   -1.3119 H.spc      1 <1>        0.000
     13 H          -8.3416   -2.0515   -0.5534 H.spc      1 <1>        0.000
     14 H          -6.0248   -4.0084   -0.3950 H.spc      1 <1>        0.000
     15 H          -7.4855   -5.1834    1.2572 H.spc      1 <1>        0.000
     16 H          -9.6917   -3.7129   -0.2540 H.spc      1 <1>        0.000
     17 H          -9.4379   -4.5716    2.8241 H.spc      1 <1>        0.000
@<TRIPOS>BOND
     1    7    9 1  
     2    7    8 2  
     3    6    7 1  
     4    1    2 2  
     5    2    3 1  
     6    3    4 2  
     7    4    5 1  
     8    5    6 2  
     9    1   10 1  
    10    1   11 1  
    11    2   12 1  
    12    3   13 1  
    13    4   14 1  
    14    5   15 1  
    15    6   16 1  
    16    9   17 1  
