#      Rotatable Fragment
#      Build by yxyuan
#
# Name:          frag5-529-288/138278
# Creation time: Sat Jun  5 12:53:41 2010


@<TRIPOS>MOLECULE
frag5-529-288/138278
   17    17     1     1     1
SMALL
USER_CHARGES


@<TRIPOS>ATOM
      1 C14        -0.8863   -0.8218    0.2242 C.ar       1 <1>        0.000
      2 C16        -2.0527   -1.5151    0.5370 C.ar       1 <1>        0.000
      3 C17        -0.9625    0.5159   -0.1512 C.ar       1 <1>        0.000
      4 C20        -3.2979   -0.8875    0.4172 C.ar       1 <1>        0.000
      5 C21        -2.2054    1.1392   -0.2598 C.ar       1 <1>        0.000
      6 C23        -3.4082    0.4408   -0.0276 C.ar       1 <1>        0.000
      7 C26        -4.6994    1.1693   -0.2558 C.2        1 <1>        0.000
      8 N4         -5.7694    0.5818   -0.8351 N.pl3      1 <1>        0.000
      9 N5         -4.7454    2.3940    0.1179 N.2        1 <1>        0.000
     10 H           0.0800   -1.3237    0.2731 H.spc      1 <1>        0.000
     11 H          -1.9958   -2.5494    0.8761 H.spc      1 <1>        0.000
     12 H          -0.0513    1.0763   -0.3603 H.spc      1 <1>        0.000
     13 H          -4.2012   -1.4408    0.6744 H.spc      1 <1>        0.000
     14 H          -2.2482    2.1940   -0.5313 H.spc      1 <1>        0.000
     15 H          -6.6274    1.1141   -0.9797 H.spc      1 <1>        0.000
     16 H          -5.7191   -0.3940   -1.1279 H.spc      1 <1>        0.000
     17 H          -5.5971    2.9378   -0.0207 H.spc      1 <1>        0.000
@<TRIPOS>BOND
     1    6    7 1  
     2    7    9 2  
     3    7    8 1  
     4    1    2 ar 
     5    1    3 ar 
     6    2    4 ar 
     7    3    5 ar 
     8    4    6 ar 
     9    5    6 ar 
    10    1   10 1  
    11    2   11 1  
    12    3   12 1  
    13    4   13 1  
    14    5   14 1  
    15    8   15 1  
    16    8   16 1  
    17    9   17 1  
# Name:          frag5-529-288/138278
# Creation time: Sat Jun  5 12:53:41 2010


@<TRIPOS>MOLECULE
frag5-529-288/138278
   17    17     1     1     1
SMALL
USER_CHARGES


@<TRIPOS>ATOM
      1 C14        -0.9147   -0.8423    0.3506 C.ar       1 <1>        0.000
      2 C16        -0.9458    0.5476    0.2777 C.ar       1 <1>        0.000
      3 C17        -2.0834   -1.5671    0.1416 C.ar       1 <1>        0.000
      4 C20        -2.1550    1.2136    0.0553 C.ar       1 <1>        0.000
      5 C21        -3.2866   -0.8972   -0.0870 C.ar       1 <1>        0.000
      6 C23        -3.3691    0.4998   -0.0865 C.ar       1 <1>        0.000
      7 C26        -4.7004    1.1640   -0.2495 C.2        1 <1>        0.000
      8 N4         -5.8590    0.5695    0.1352 N.pl3      1 <1>        0.000
      9 N5         -4.7132    2.3286   -0.7708 N.2        1 <1>        0.000
     10 H           0.0195   -1.3593    0.5700 H.spc      1 <1>        0.000
     11 H          -0.0246    1.1185    0.3944 H.spc      1 <1>        0.000
     12 H          -2.0597   -2.6567    0.1563 H.spc      1 <1>        0.000
     13 H          -2.1628    2.3016   -0.0100 H.spc      1 <1>        0.000
     14 H          -4.1891   -1.4799   -0.2715 H.spc      1 <1>        0.000
     15 H          -6.7475    1.0541    0.0082 H.spc      1 <1>        0.000
     16 H          -5.8408   -0.3616    0.5512 H.spc      1 <1>        0.000
     17 H          -5.5978    2.8194   -0.9010 H.spc      1 <1>        0.000
@<TRIPOS>BOND
     1    6    7 1  
     2    7    9 2  
     3    7    8 1  
     4    1    2 ar 
     5    1    3 ar 
     6    2    4 ar 
     7    3    5 ar 
     8    4    6 ar 
     9    5    6 ar 
    10    1   10 1  
    11    2   11 1  
    12    3   12 1  
    13    4   13 1  
    14    5   14 1  
    15    8   15 1  
    16    8   16 1  
    17    9   17 1  
# Name:          frag5-529-288/138278 -- energy: -0.742051
# Creation time: Sat Jun  5 12:53:41 2010


@<TRIPOS>MOLECULE
frag5-529-288/138278 -- energy: -0.742051
   17    17     1     1     1
SMALL
USER_CHARGES


@<TRIPOS>ATOM
      1 C14        -0.8863   -0.8218    0.2242 C.ar       1 <1>        0.000
      2 C16        -2.0527   -1.5151    0.5370 C.ar       1 <1>        0.000
      3 C17        -0.9625    0.5159   -0.1512 C.ar       1 <1>        0.000
      4 C20        -3.2979   -0.8875    0.4172 C.ar       1 <1>        0.000
      5 C21        -2.2054    1.1392   -0.2598 C.ar       1 <1>        0.000
      6 C23        -3.4082    0.4408   -0.0276 C.ar       1 <1>        0.000
      7 C26        -4.6994    1.1693   -0.2558 C.2        1 <1>        0.000
      8 N4         -5.7694    0.5818   -0.8351 N.pl3      1 <1>        0.000
      9 N5         -4.7454    2.3940    0.1179 N.2        1 <1>        0.000
     10 H           0.0800   -1.3237    0.2731 H.spc      1 <1>        0.000
     11 H          -1.9958   -2.5494    0.8761 H.spc      1 <1>        0.000
     12 H          -0.0513    1.0763   -0.3603 H.spc      1 <1>        0.000
     13 H          -4.2012   -1.4408    0.6744 H.spc      1 <1>        0.000
     14 H          -2.2482    2.1940   -0.5313 H.spc      1 <1>        0.000
     15 H          -6.6274    1.1141   -0.9797 H.spc      1 <1>        0.000
     16 H          -5.7191   -0.3940   -1.1279 H.spc      1 <1>        0.000
     17 H          -5.5971    2.9378   -0.0207 H.spc      1 <1>        0.000
@<TRIPOS>BOND
     1    6    7 1  
     2    7    9 2  
     3    7    8 1  
     4    1    2 ar 
     5    1    3 ar 
     6    2    4 ar 
     7    3    5 ar 
     8    4    6 ar 
     9    5    6 ar 
    10    1   10 1  
    11    2   11 1  
    12    3   12 1  
    13    4   13 1  
    14    5   14 1  
    15    8   15 1  
    16    8   16 1  
    17    9   17 1  
# Name:          frag5-529-288/138278 -- energy: -0.702626
# Creation time: Sat Jun  5 12:53:41 2010


@<TRIPOS>MOLECULE
frag5-529-288/138278 -- energy: -0.702626
   17    17     1     1     1
SMALL
USER_CHARGES


@<TRIPOS>ATOM
      1 C14        -0.9147   -0.8423    0.3506 C.ar       1 <1>        0.000
      2 C16        -0.9458    0.5476    0.2777 C.ar       1 <1>        0.000
      3 C17        -2.0834   -1.5671    0.1416 C.ar       1 <1>        0.000
      4 C20        -2.1550    1.2136    0.0553 C.ar       1 <1>        0.000
      5 C21        -3.2866   -0.8972   -0.0870 C.ar       1 <1>        0.000
      6 C23        -3.3691    0.4998   -0.0865 C.ar       1 <1>        0.000
      7 C26        -4.7004    1.1640   -0.2495 C.2        1 <1>        0.000
      8 N4         -5.8590    0.5695    0.1352 N.pl3      1 <1>        0.000
      9 N5         -4.7132    2.3286   -0.7708 N.2        1 <1>        0.000
     10 H           0.0195   -1.3593    0.5700 H.spc      1 <1>        0.000
     11 H          -0.0246    1.1185    0.3944 H.spc      1 <1>        0.000
     12 H          -2.0597   -2.6567    0.1563 H.spc      1 <1>        0.000
     13 H          -2.1628    2.3016   -0.0100 H.spc      1 <1>        0.000
     14 H          -4.1891   -1.4799   -0.2715 H.spc      1 <1>        0.000
     15 H          -6.7475    1.0541    0.0082 H.spc      1 <1>        0.000
     16 H          -5.8408   -0.3616    0.5512 H.spc      1 <1>        0.000
     17 H          -5.5978    2.8194   -0.9010 H.spc      1 <1>        0.000
@<TRIPOS>BOND
     1    6    7 1  
     2    7    9 2  
     3    7    8 1  
     4    1    2 ar 
     5    1    3 ar 
     6    2    4 ar 
     7    3    5 ar 
     8    4    6 ar 
     9    5    6 ar 
    10    1   10 1  
    11    2   11 1  
    12    3   12 1  
    13    4   13 1  
    14    5   14 1  
    15    8   15 1  
    16    8   16 1  
    17    9   17 1  
