#      Rotatable Fragment
#      Build by yxyuan
#
# Name:          frag4-311-1039/150395
# Creation time: Sat Jun  5 12:53:30 2010


@<TRIPOS>MOLECULE
frag4-311-1039/150395
   18    18     1     1     1
SMALL
USER_CHARGES


@<TRIPOS>ATOM
      1 N1          1.8624    0.2507   -0.3120 N.4        1 <1>        0.000
      2 C4          0.6254    0.9422    0.1180 C.3        1 <1>        0.000
      3 C5          1.8651   -1.1682    0.1122 C.3        1 <1>        0.000
      4 C10        -0.6324    0.2047   -0.3756 C.3        1 <1>        0.000
      5 C11         0.6081   -1.9060   -0.3829 C.3        1 <1>        0.000
      6 N2         -0.6284   -1.2144    0.0482 N.4        1 <1>        0.000
      7 H           2.6605    0.7183    0.1178 H.spc      1 <1>        0.000
      8 H           1.9144    0.2840   -1.3301 H.spc      1 <1>        0.000
      9 H           0.6258    1.9466   -0.3055 H.spc      1 <1>        0.000
     10 H           0.6052    0.9690    1.2075 H.spc      1 <1>        0.000
     11 H           1.8801   -1.2034    1.2015 H.spc      1 <1>        0.000
     12 H           2.7422   -1.6549   -0.3143 H.spc      1 <1>        0.000
     13 H          -1.5090    0.6911    0.0523 H.spc      1 <1>        0.000
     14 H          -0.6494    0.2405   -1.4649 H.spc      1 <1>        0.000
     15 H           0.6284   -1.9323   -1.4724 H.spc      1 <1>        0.000
     16 H           0.6078   -2.9112    0.0387 H.spc      1 <1>        0.000
     17 H          -1.4267   -1.6821   -0.3812 H.spc      1 <1>        0.000
     18 H          -0.6790   -1.2477    1.0664 H.spc      1 <1>        0.000
@<TRIPOS>BOND
     1    4    6 1  
     2    5    6 1  
     3    1    2 1  
     4    1    3 1  
     5    2    4 1  
     6    3    5 1  
     7    1    7 1  
     8    1    8 1  
     9    2    9 1  
    10    2   10 1  
    11    3   11 1  
    12    3   12 1  
    13    4   13 1  
    14    4   14 1  
    15    5   15 1  
    16    5   16 1  
    17    6   17 1  
    18    6   18 1  
# Name:          frag4-311-1039/150395 -- energy: -1.598225
# Creation time: Sat Jun  5 12:53:30 2010


@<TRIPOS>MOLECULE
frag4-311-1039/150395 -- energy: -1.598225
   18    18     1     1     1
SMALL
USER_CHARGES


@<TRIPOS>ATOM
      1 N1          1.8624    0.2507   -0.3120 N.4        1 <1>        0.000
      2 C4          0.6254    0.9422    0.1180 C.3        1 <1>        0.000
      3 C5          1.8651   -1.1682    0.1122 C.3        1 <1>        0.000
      4 C10        -0.6324    0.2047   -0.3756 C.3        1 <1>        0.000
      5 C11         0.6081   -1.9060   -0.3829 C.3        1 <1>        0.000
      6 N2         -0.6284   -1.2144    0.0482 N.4        1 <1>        0.000
      7 H           2.6605    0.7183    0.1178 H.spc      1 <1>        0.000
      8 H           1.9144    0.2840   -1.3301 H.spc      1 <1>        0.000
      9 H           0.6258    1.9466   -0.3055 H.spc      1 <1>        0.000
     10 H           0.6052    0.9690    1.2075 H.spc      1 <1>        0.000
     11 H           1.8801   -1.2034    1.2015 H.spc      1 <1>        0.000
     12 H           2.7422   -1.6549   -0.3143 H.spc      1 <1>        0.000
     13 H          -1.5090    0.6911    0.0523 H.spc      1 <1>        0.000
     14 H          -0.6494    0.2405   -1.4649 H.spc      1 <1>        0.000
     15 H           0.6284   -1.9323   -1.4724 H.spc      1 <1>        0.000
     16 H           0.6078   -2.9112    0.0387 H.spc      1 <1>        0.000
     17 H          -1.4267   -1.6821   -0.3812 H.spc      1 <1>        0.000
     18 H          -0.6790   -1.2477    1.0664 H.spc      1 <1>        0.000
@<TRIPOS>BOND
     1    4    6 1  
     2    5    6 1  
     3    1    2 1  
     4    1    3 1  
     5    2    4 1  
     6    3    5 1  
     7    1    7 1  
     8    1    8 1  
     9    2    9 1  
    10    2   10 1  
    11    3   11 1  
    12    3   12 1  
    13    4   13 1  
    14    4   14 1  
    15    5   15 1  
    16    5   16 1  
    17    6   17 1  
    18    6   18 1  
