#      Rotatable Fragment
#      Build by yxyuan
#
# Name:          frag3-112-79/31924
# Creation time: Sat Jun  5 12:52:00 2010


@<TRIPOS>MOLECULE
frag3-112-79/31924
   18    17     1     1     1
SMALL
USER_CHARGES


@<TRIPOS>ATOM
      1 P1         -4.4777   -1.3107    0.4036 P.3        1 <1>        0.000
      2 O1         -4.8351   -0.7761    1.6986 O.2        1 <1>        0.000
      3 O2         -3.3635   -0.4066   -0.2462 O.3        1 <1>        0.000
      4 P2         -3.7470    0.9455   -0.9461 P.3        1 <1>        0.000
      5 O3         -4.5161    0.6512   -2.1455 O.2        1 <1>        0.000
      6 O4         -2.5011    1.7987   -1.2634 O.3        1 <1>        0.000
      7 O7         -4.6338    1.7191    0.1336 O.3        1 <1>        0.000
      8 O8         -5.6661   -1.2375   -0.6316 O.3        1 <1>        0.000
      9 P3         -5.6006   -2.0217   -1.9937 P.3        1 <1>        0.000
     10 O9         -6.1364   -3.3568   -1.8185 O.2        1 <1>        0.000
     11 O10        -4.0231   -2.0909   -2.3545 O.3        1 <1>        0.000
     12 O11        -6.2814   -1.2117   -3.1341 O.3        1 <1>        0.000
     13 O12        -4.0365   -2.8207    0.4303 O.3        1 <1>        0.000
     14 H          -2.0190    1.9732   -0.4518 H.spc      1 <1>        0.000
     15 H          -4.1023    1.8998    0.9123 H.spc      1 <1>        0.000
     16 H          -3.6825   -1.2005   -2.4675 H.spc      1 <1>        0.000
     17 H          -5.8782   -0.3424   -3.1923 H.spc      1 <1>        0.000
     18 H          -3.8156   -3.1042   -0.4599 H.spc      1 <1>        0.000
@<TRIPOS>BOND
     1    9   12 1  
     2    8    9 1  
     3    9   11 1  
     4    9   10 2  
     5    1    2 2  
     6    1    3 1  
     7    1    8 1  
     8    1   13 1  
     9    3    4 1  
    10    4    5 2  
    11    4    6 1  
    12    4    7 1  
    13    6   14 1  
    14    7   15 1  
    15   11   16 1  
    16   12   17 1  
    17   13   18 1  
# Name:          frag3-112-79/31924
# Creation time: Sat Jun  5 12:52:01 2010


@<TRIPOS>MOLECULE
frag3-112-79/31924
   18    17     1     1     1
SMALL
USER_CHARGES


@<TRIPOS>ATOM
      1 P1         -4.4562   -1.3308    0.3834 P.3        1 <1>        0.000
      2 O1         -3.3163   -1.2228    1.2633 O.2        1 <1>        0.000
      3 O2         -4.0990   -1.9456   -1.0173 O.3        1 <1>        0.000
      4 P2         -5.2069   -2.2075   -2.0925 P.3        1 <1>        0.000
      5 O3         -5.7201   -3.5509   -1.9832 O.2        1 <1>        0.000
      6 O4         -4.7054   -1.8855   -3.5193 O.3        1 <1>        0.000
      7 O7         -6.3691   -1.1286   -1.7654 O.3        1 <1>        0.000
      8 O8         -4.9502    0.1273    0.0269 O.3        1 <1>        0.000
      9 P3         -4.0757    1.0645   -0.8731 P.3        1 <1>        0.000
     10 O9         -3.9621    0.4612   -2.1948 O.2        1 <1>        0.000
     11 O10        -2.6614    1.1732   -0.1496 O.3        1 <1>        0.000
     12 O11        -4.6558    2.5096   -0.9116 O.3        1 <1>        0.000
     13 O12        -5.6403   -2.1822    0.9658 O.3        1 <1>        0.000
     14 H          -4.3741   -0.9848   -3.5452 H.spc      1 <1>        0.000
     15 H          -6.0112   -0.2411   -1.8426 H.spc      1 <1>        0.000
     16 H          -2.7756    1.5739    0.7152 H.spc      1 <1>        0.000
     17 H          -4.7081    2.8561   -0.0179 H.spc      1 <1>        0.000
     18 H          -6.3576   -2.2088    0.3283 H.spc      1 <1>        0.000
@<TRIPOS>BOND
     1    9   12 1  
     2    8    9 1  
     3    9   11 1  
     4    9   10 2  
     5    1    2 2  
     6    1    3 1  
     7    1    8 1  
     8    1   13 1  
     9    3    4 1  
    10    4    5 2  
    11    4    6 1  
    12    4    7 1  
    13    6   14 1  
    14    7   15 1  
    15   11   16 1  
    16   12   17 1  
    17   13   18 1  
# Name:          frag3-112-79/31924
# Creation time: Sat Jun  5 12:52:01 2010


@<TRIPOS>MOLECULE
frag3-112-79/31924
   18    17     1     1     1
SMALL
USER_CHARGES


@<TRIPOS>ATOM
      1 P1         -4.4894   -1.1924    0.0282 P.3        1 <1>        0.000
      2 O1         -3.3988   -0.7197    0.8707 O.2        1 <1>        0.000
      3 O2         -4.0226   -2.1974   -1.0560 O.3        1 <1>        0.000
      4 P2         -5.0403   -2.6894   -2.1386 P.3        1 <1>        0.000
      5 O3         -6.3371   -2.8341   -1.4931 O.2        1 <1>        0.000
      6 O4         -4.5853   -4.0187   -2.7865 O.3        1 <1>        0.000
      7 O7         -5.0844   -1.5880   -3.2889 O.3        1 <1>        0.000
      8 O8         -5.0407    0.0857   -0.7302 O.3        1 <1>        0.000
      9 P3         -4.2978    1.4453   -0.6190 P.3        1 <1>        0.000
     10 O9         -5.0321    2.5810   -1.1259 O.2        1 <1>        0.000
     11 O10        -2.8722    1.2571   -1.3189 O.3        1 <1>        0.000
     12 O11        -3.9601    1.6021    0.9353 O.3        1 <1>        0.000
     13 O12        -5.6575   -1.8497    0.8555 O.3        1 <1>        0.000
     14 H          -3.7296   -3.8938   -3.2034 H.spc      1 <1>        0.000
     15 H          -4.2173   -1.5157   -3.6946 H.spc      1 <1>        0.000
     16 H          -2.4316    0.4910   -0.9440 H.spc      1 <1>        0.000
     17 H          -3.4734    0.8309    1.2353 H.spc      1 <1>        0.000
     18 H          -6.3473   -2.1429    0.2557 H.spc      1 <1>        0.000
@<TRIPOS>BOND
     1    9   12 1  
     2    8    9 1  
     3    9   11 1  
     4    9   10 2  
     5    1    2 2  
     6    1    3 1  
     7    1    8 1  
     8    1   13 1  
     9    3    4 1  
    10    4    5 2  
    11    4    6 1  
    12    4    7 1  
    13    6   14 1  
    14    7   15 1  
    15   11   16 1  
    16   12   17 1  
    17   13   18 1  
# Name:          frag3-112-79/31924
# Creation time: Sat Jun  5 12:52:01 2010


@<TRIPOS>MOLECULE
frag3-112-79/31924
   18    17     1     1     1
SMALL
USER_CHARGES


@<TRIPOS>ATOM
      1 P1         -4.2807   -1.3880    0.3367 P.3        1 <1>        0.000
      2 O1         -3.0373   -1.3171    1.0591 O.2        1 <1>        0.000
      3 O2         -4.1020   -1.9292   -1.1347 O.3        1 <1>        0.000
      4 P2         -5.3398   -2.1410   -2.0697 P.3        1 <1>        0.000
      5 O3         -6.2068   -3.1167   -1.4393 O.2        1 <1>        0.000
      6 O4         -4.9299   -2.5671   -3.4931 O.3        1 <1>        0.000
      7 O7         -6.0831   -0.7260   -2.1981 O.3        1 <1>        0.000
      8 O8         -4.8359    0.0642    0.1306 O.3        1 <1>        0.000
      9 P3         -4.0927    1.0619   -0.8118 P.3        1 <1>        0.000
     10 O9         -3.4069    0.2739   -1.8299 O.2        1 <1>        0.000
     11 O10        -3.0803    1.9147    0.0565 O.3        1 <1>        0.000
     12 O11        -5.0760    2.0950   -1.4600 O.3        1 <1>        0.000
     13 O12        -5.3468   -2.3427    0.9861 O.3        1 <1>        0.000
     14 H          -4.3583   -1.8967   -3.8744 H.spc      1 <1>        0.000
     15 H          -5.4948   -0.0936   -2.6171 H.spc      1 <1>        0.000
     16 H          -3.5681    2.4175    0.7128 H.spc      1 <1>        0.000
     17 H          -5.5118    2.5979   -0.7681 H.spc      1 <1>        0.000
     18 H          -6.1450   -2.3391    0.4527 H.spc      1 <1>        0.000
@<TRIPOS>BOND
     1    9   12 1  
     2    8    9 1  
     3    9   11 1  
     4    9   10 2  
     5    1    2 2  
     6    1    3 1  
     7    1    8 1  
     8    1   13 1  
     9    3    4 1  
    10    4    5 2  
    11    4    6 1  
    12    4    7 1  
    13    6   14 1  
    14    7   15 1  
    15   11   16 1  
    16   12   17 1  
    17   13   18 1  
# Name:          frag3-112-79/31924
# Creation time: Sat Jun  5 12:52:01 2010


@<TRIPOS>MOLECULE
frag3-112-79/31924
   18    17     1     1     1
SMALL
USER_CHARGES


@<TRIPOS>ATOM
      1 P1         -4.5560   -1.2852    0.3674 P.3        1 <1>        0.000
      2 O1         -3.5339   -0.8536    1.3015 O.2        1 <1>        0.000
      3 O2         -3.9319   -1.9369   -0.9226 O.3        1 <1>        0.000
      4 P2         -4.8593   -2.3177   -2.1334 P.3        1 <1>        0.000
      5 O3         -5.9531   -3.1261   -1.6214 O.2        1 <1>        0.000
      6 O4         -4.0814   -3.0472   -3.2505 O.3        1 <1>        0.000
      7 O7         -5.3996   -0.9476   -2.7489 O.3        1 <1>        0.000
      8 O8         -5.2722    0.0142   -0.1837 O.3        1 <1>        0.000
      9 P3         -4.4510    1.1853   -0.7996 P.3        1 <1>        0.000
     10 O9         -5.1426    1.9284   -1.8301 O.2        1 <1>        0.000
     11 O10        -3.1152    0.4808   -1.3879 O.3        1 <1>        0.000
     12 O11        -3.9345    2.0837    0.3847 O.3        1 <1>        0.000
     13 O12        -5.5879   -2.2962    0.9570 O.3        1 <1>        0.000
     14 H          -3.3692   -2.4844   -3.5629 H.spc      1 <1>        0.000
     15 H          -4.6598   -0.4329   -3.0795 H.spc      1 <1>        0.000
     16 H          -2.6754   -0.0049   -0.6862 H.spc      1 <1>        0.000
     17 H          -3.4871    1.5328    1.0312 H.spc      1 <1>        0.000
     18 H          -6.2268   -2.5310    0.2800 H.spc      1 <1>        0.000
@<TRIPOS>BOND
     1    9   12 1  
     2    8    9 1  
     3    9   11 1  
     4    9   10 2  
     5    1    2 2  
     6    1    3 1  
     7    1    8 1  
     8    1   13 1  
     9    3    4 1  
    10    4    5 2  
    11    4    6 1  
    12    4    7 1  
    13    6   14 1  
    14    7   15 1  
    15   11   16 1  
    16   12   17 1  
    17   13   18 1  
# Name:          frag3-112-79/31924
# Creation time: Sat Jun  5 12:52:01 2010


@<TRIPOS>MOLECULE
frag3-112-79/31924
   18    17     1     1     1
SMALL
USER_CHARGES


@<TRIPOS>ATOM
      1 P1         -4.8078   -1.3159    0.4060 P.3        1 <1>        0.000
      2 O1         -5.2351   -0.4351    1.4610 O.2        1 <1>        0.000
      3 O2         -3.5635   -0.6292   -0.2923 O.3        1 <1>        0.000
      4 P2         -3.6720    0.8454   -0.7808 P.3        1 <1>        0.000
      5 O3         -5.0028    1.0426   -1.3368 O.2        1 <1>        0.000
      6 O4         -2.5986    1.1810   -1.8559 O.3        1 <1>        0.000
      7 O7         -3.3973    1.8243    0.4320 O.3        1 <1>        0.000
      8 O8         -5.8458   -1.4405   -0.7587 O.3        1 <1>        0.000
      9 P3         -5.4446   -2.0309   -2.1496 P.3        1 <1>        0.000
     10 O9         -4.9144   -3.3653   -1.9397 O.2        1 <1>        0.000
     11 O10        -4.3004   -1.0627   -2.7441 O.3        1 <1>        0.000
     12 O11        -6.5978   -1.9696   -3.1878 O.3        1 <1>        0.000
     13 O12        -4.4383   -2.7623    0.8793 O.3        1 <1>        0.000
     14 H          -1.7232    1.0494   -1.4844 H.spc      1 <1>        0.000
     15 H          -2.5140    1.6683    0.7740 H.spc      1 <1>        0.000
     16 H          -4.6639   -0.1843   -2.8781 H.spc      1 <1>        0.000
     17 H          -6.8991   -1.0624   -3.2766 H.spc      1 <1>        0.000
     18 H          -4.1649   -3.2854    0.1222 H.spc      1 <1>        0.000
@<TRIPOS>BOND
     1    9   12 1  
     2    8    9 1  
     3    9   11 1  
     4    9   10 2  
     5    1    2 2  
     6    1    3 1  
     7    1    8 1  
     8    1   13 1  
     9    3    4 1  
    10    4    5 2  
    11    4    6 1  
    12    4    7 1  
    13    6   14 1  
    14    7   15 1  
    15   11   16 1  
    16   12   17 1  
    17   13   18 1  
# Name:          frag3-112-79/31924
# Creation time: Sat Jun  5 12:52:01 2010


@<TRIPOS>MOLECULE
frag3-112-79/31924
   18    17     1     1     1
SMALL
USER_CHARGES


@<TRIPOS>ATOM
      1 P1         -3.9810   -1.4364    0.1540 P.3        1 <1>        0.000
      2 O1         -2.6578   -1.2646    0.6810 O.2        1 <1>        0.000
      3 O2         -3.9999   -1.7365   -1.3871 O.3        1 <1>        0.000
      4 P2         -5.3484   -2.0809   -2.1183 P.3        1 <1>        0.000
      5 O3         -6.4153   -1.8038   -1.1611 O.2        1 <1>        0.000
      6 O4         -5.3307   -3.6145   -2.4356 O.3        1 <1>        0.000
      7 O7         -5.5026   -1.3015   -3.4613 O.3        1 <1>        0.000
      8 O8         -4.7644   -0.0769    0.2722 O.3        1 <1>        0.000
      9 P3         -4.3816    1.1295   -0.6450 P.3        1 <1>        0.000
     10 O9         -4.3091    0.6672   -2.0157 O.2        1 <1>        0.000
     11 O10        -2.9608    1.6709   -0.1446 O.3        1 <1>        0.000
     12 O11        -5.3677    2.3242   -0.4538 O.3        1 <1>        0.000
     13 O12        -4.7991   -2.5950    0.8477 O.3        1 <1>        0.000
     14 H          -4.6304   -3.8019   -3.0650 H.spc      1 <1>        0.000
     15 H          -4.7743   -1.5253   -4.0453 H.spc      1 <1>        0.000
     16 H          -3.0359    1.9705    0.7644 H.spc      1 <1>        0.000
     17 H          -5.3748    2.5872    0.4694 H.spc      1 <1>        0.000
     18 H          -5.6700   -2.6538    0.4482 H.spc      1 <1>        0.000
@<TRIPOS>BOND
     1    9   12 1  
     2    8    9 1  
     3    9   11 1  
     4    9   10 2  
     5    1    2 2  
     6    1    3 1  
     7    1    8 1  
     8    1   13 1  
     9    3    4 1  
    10    4    5 2  
    11    4    6 1  
    12    4    7 1  
    13    6   14 1  
    14    7   15 1  
    15   11   16 1  
    16   12   17 1  
    17   13   18 1  
# Name:          frag3-112-79/31924
# Creation time: Sat Jun  5 12:52:01 2010


@<TRIPOS>MOLECULE
frag3-112-79/31924
   18    17     1     1     1
SMALL
USER_CHARGES


@<TRIPOS>ATOM
      1 P1         -4.1222   -1.5039    0.2069 P.3        1 <1>        0.000
      2 O1         -4.8379   -2.2796    1.1746 O.2        1 <1>        0.000
      3 O2         -4.6662   -0.0340    0.0529 O.3        1 <1>        0.000
      4 P2         -3.9151    1.0088   -0.8493 P.3        1 <1>        0.000
      5 O3         -2.8604    0.2652   -1.5334 O.2        1 <1>        0.000
      6 O4         -3.2885    2.0978    0.0662 O.3        1 <1>        0.000
      7 O7         -4.9215    1.6762   -1.8495 O.3        1 <1>        0.000
      8 O8         -4.3512   -2.1240   -1.2231 O.3        1 <1>        0.000
      9 P3         -5.7581   -2.0040   -1.9002 P.3        1 <1>        0.000
     10 O9         -6.6912   -1.5993   -0.8624 O.2        1 <1>        0.000
     11 O10        -6.1671   -3.3375   -2.6138 O.3        1 <1>        0.000
     12 O11        -5.6640   -0.9023   -3.0376 O.3        1 <1>        0.000
     13 O12        -2.5750   -1.3818    0.5012 O.3        1 <1>        0.000
     14 H          -3.9882    2.5812    0.5115 H.spc      1 <1>        0.000
     15 H          -5.5937    2.1516   -1.3558 H.spc      1 <1>        0.000
     16 H          -5.5160   -3.5523   -3.2857 H.spc      1 <1>        0.000
     17 H          -5.0432   -1.1910   -3.7106 H.spc      1 <1>        0.000
     18 H          -2.1610   -0.8516   -0.1837 H.spc      1 <1>        0.000
@<TRIPOS>BOND
     1    9   12 1  
     2    8    9 1  
     3    9   11 1  
     4    9   10 2  
     5    1    2 2  
     6    1    3 1  
     7    1    8 1  
     8    1   13 1  
     9    3    4 1  
    10    4    5 2  
    11    4    6 1  
    12    4    7 1  
    13    6   14 1  
    14    7   15 1  
    15   11   16 1  
    16   12   17 1  
    17   13   18 1  
# Name:          frag3-112-79/31924
# Creation time: Sat Jun  5 12:52:01 2010


@<TRIPOS>MOLECULE
frag3-112-79/31924
   18    17     1     1     1
SMALL
USER_CHARGES


@<TRIPOS>ATOM
      1 P1         -4.3945   -1.0775   -0.2864 P.3        1 <1>        0.000
      2 O1         -3.1426   -0.8402    0.4221 O.2        1 <1>        0.000
      3 O2         -4.1630   -1.8040   -1.6459 O.3        1 <1>        0.000
      4 P2         -5.2654   -2.7773   -2.1975 P.3        1 <1>        0.000
      5 O3         -6.5191   -2.4121   -1.5423 O.2        1 <1>        0.000
      6 O4         -4.8616   -4.2287   -1.7521 O.3        1 <1>        0.000
      7 O7         -5.3483   -2.7441   -3.7534 O.3        1 <1>        0.000
      8 O8         -5.0477    0.3162   -0.5571 O.3        1 <1>        0.000
      9 P3         -4.2221    1.6088   -0.3555 P.3        1 <1>        0.000
     10 O9         -4.9191    2.8359   -0.6543 O.2        1 <1>        0.000
     11 O10        -2.8833    1.4350   -1.2333 O.3        1 <1>        0.000
     12 O11        -3.6811    1.5842    1.1464 O.3        1 <1>        0.000
     13 O12        -5.3705   -2.0145    0.5417 O.3        1 <1>        0.000
     14 H          -4.0380   -4.4757   -2.1790 H.spc      1 <1>        0.000
     15 H          -4.4979   -2.9922   -4.1234 H.spc      1 <1>        0.000
     16 H          -2.4549    0.6078   -1.0011 H.spc      1 <1>        0.000
     17 H          -3.2246    0.7552    1.3074 H.spc      1 <1>        0.000
     18 H          -6.1815   -2.1480    0.0456 H.spc      1 <1>        0.000
@<TRIPOS>BOND
     1    9   12 1  
     2    8    9 1  
     3    9   11 1  
     4    9   10 2  
     5    1    2 2  
     6    1    3 1  
     7    1    8 1  
     8    1   13 1  
     9    3    4 1  
    10    4    5 2  
    11    4    6 1  
    12    4    7 1  
    13    6   14 1  
    14    7   15 1  
    15   11   16 1  
    16   12   17 1  
    17   13   18 1  
# Name:          frag3-112-79/31924
# Creation time: Sat Jun  5 12:52:01 2010


@<TRIPOS>MOLECULE
frag3-112-79/31924
   18    17     1     1     1
SMALL
USER_CHARGES


@<TRIPOS>ATOM
      1 P1         -4.9940   -0.9486    0.0217 P.3        1 <1>        0.000
      2 O1         -5.3081   -0.4911    1.3561 O.2        1 <1>        0.000
      3 O2         -4.6963    0.2997   -0.8959 O.3        1 <1>        0.000
      4 P2         -3.4125    1.1665   -0.6872 P.3        1 <1>        0.000
      5 O3         -3.1367    2.0934   -1.7601 O.2        1 <1>        0.000
      6 O4         -2.2256    0.1284   -0.5438 O.3        1 <1>        0.000
      7 O7         -3.5704    1.8721    0.7284 O.3        1 <1>        0.000
      8 O8         -6.0358   -1.8672   -0.6344 O.3        1 <1>        0.000
      9 P3         -5.7518   -2.5346   -2.0300 P.3        1 <1>        0.000
     10 O9         -4.5844   -3.3950   -1.8888 O.2        1 <1>        0.000
     11 O10        -5.4687   -1.3433   -3.0549 O.3        1 <1>        0.000
     12 O11        -7.0214   -3.2958   -2.5141 O.3        1 <1>        0.000
     13 O12        -3.6127   -1.8029    0.0355 O.3        1 <1>        0.000
     14 H          -2.4202   -0.4816    0.1715 H.spc      1 <1>        0.000
     15 H          -3.7516    1.2078    1.3974 H.spc      1 <1>        0.000
     16 H          -6.2521   -0.7934   -3.1289 H.spc      1 <1>        0.000
     17 H          -7.7539   -2.6796   -2.5878 H.spc      1 <1>        0.000
     18 H          -3.4136   -2.1016   -0.8548 H.spc      1 <1>        0.000
@<TRIPOS>BOND
     1    9   12 1  
     2    8    9 1  
     3    9   11 1  
     4    9   10 2  
     5    1    2 2  
     6    1    3 1  
     7    1    8 1  
     8    1   13 1  
     9    3    4 1  
    10    4    5 2  
    11    4    6 1  
    12    4    7 1  
    13    6   14 1  
    14    7   15 1  
    15   11   16 1  
    16   12   17 1  
    17   13   18 1  
# Name:          frag3-112-79/31924
# Creation time: Sat Jun  5 12:52:01 2010


@<TRIPOS>MOLECULE
frag3-112-79/31924
   18    17     1     1     1
SMALL
USER_CHARGES


@<TRIPOS>ATOM
      1 P1         -4.6108   -1.1552    0.0751 P.3        1 <1>        0.000
      2 O1         -5.0196   -0.4171    1.2380 O.2        1 <1>        0.000
      3 O2         -3.5186   -0.3084   -0.6648 O.3        1 <1>        0.000
      4 P2         -3.6320    1.2441   -0.6896 P.3        1 <1>        0.000
      5 O3         -4.7906    1.6374   -1.4451 O.2        1 <1>        0.000
      6 O4         -2.3400    1.9036   -1.2248 O.3        1 <1>        0.000
      7 O7         -3.7466    1.6998    0.8473 O.3        1 <1>        0.000
      8 O8         -5.7584   -1.3797   -0.9548 O.3        1 <1>        0.000
      9 P3         -5.5874   -2.4196   -2.1093 P.3        1 <1>        0.000
     10 O9         -4.1634   -2.7344   -2.1749 O.2        1 <1>        0.000
     11 O10        -6.1643   -1.8867   -3.4619 O.3        1 <1>        0.000
     12 O11        -6.4303   -3.7053   -1.7363 O.3        1 <1>        0.000
     13 O12        -4.0564   -2.5969    0.4336 O.3        1 <1>        0.000
     14 H          -1.5925    1.6164   -0.6954 H.spc      1 <1>        0.000
     15 H          -2.9594    1.4225    1.3217 H.spc      1 <1>        0.000
     16 H          -7.0997   -1.6980   -3.3573 H.spc      1 <1>        0.000
     17 H          -7.3618   -3.4761   -1.6987 H.spc      1 <1>        0.000
     18 H          -3.7974   -3.0486   -0.3729 H.spc      1 <1>        0.000
@<TRIPOS>BOND
     1    9   12 1  
     2    8    9 1  
     3    9   11 1  
     4    9   10 2  
     5    1    2 2  
     6    1    3 1  
     7    1    8 1  
     8    1   13 1  
     9    3    4 1  
    10    4    5 2  
    11    4    6 1  
    12    4    7 1  
    13    6   14 1  
    14    7   15 1  
    15   11   16 1  
    16   12   17 1  
    17   13   18 1  
# Name:          frag3-112-79/31924
# Creation time: Sat Jun  5 12:52:01 2010


@<TRIPOS>MOLECULE
frag3-112-79/31924
   18    17     1     1     1
SMALL
USER_CHARGES


@<TRIPOS>ATOM
      1 P1         -4.3051   -0.9991   -0.6558 P.3        1 <1>        0.000
      2 O1         -4.7171   -0.5061    0.6680 O.2        1 <1>        0.000
      3 O2         -3.3674    0.0693   -1.2711 O.3        1 <1>        0.000
      4 P2         -3.2896    1.4848   -0.6494 P.3        1 <1>        0.000
      5 O3         -2.7531    2.5000   -1.5199 O.2        1 <1>        0.000
      6 O4         -2.4423    1.3693    0.6739 O.3        1 <1>        0.000
      7 O7         -4.7805    1.8455   -0.1570 O.3        1 <1>        0.000
      8 O8         -5.5628   -1.2541   -1.5393 O.3        1 <1>        0.000
      9 P3         -6.0917   -2.7098   -1.7362 P.3        1 <1>        0.000
     10 O9         -4.9793   -3.5412   -2.1838 O.2        1 <1>        0.000
     11 O10        -7.3413   -2.7824   -2.6711 O.3        1 <1>        0.000
     12 O11        -6.6047   -3.1864   -0.3005 O.3        1 <1>        0.000
     13 O12        -3.5837   -2.4080   -0.5254 O.3        1 <1>        0.000
     14 H          -2.8192    0.6880    1.2354 H.spc      1 <1>        0.000
     15 H          -5.1034    1.1486    0.4189 H.spc      1 <1>        0.000
     16 H          -8.0336   -2.2160   -2.3226 H.spc      1 <1>        0.000
     17 H          -7.3354   -2.6295   -0.0219 H.spc      1 <1>        0.000
     18 H          -3.3221   -2.7142   -1.3968 H.spc      1 <1>        0.000
@<TRIPOS>BOND
     1    9   12 1  
     2    8    9 1  
     3    9   11 1  
     4    9   10 2  
     5    1    2 2  
     6    1    3 1  
     7    1    8 1  
     8    1   13 1  
     9    3    4 1  
    10    4    5 2  
    11    4    6 1  
    12    4    7 1  
    13    6   14 1  
    14    7   15 1  
    15   11   16 1  
    16   12   17 1  
    17   13   18 1  
# Name:          frag3-112-79/31924
# Creation time: Sat Jun  5 12:52:01 2010


@<TRIPOS>MOLECULE
frag3-112-79/31924
   18    17     1     1     1
SMALL
USER_CHARGES


@<TRIPOS>ATOM
      1 P1         -4.6009   -0.8711   -0.5620 P.3        1 <1>        0.000
      2 O1         -4.8900   -1.6944    0.6095 O.2        1 <1>        0.000
      3 O2         -4.7449    0.6351   -0.2833 O.3        1 <1>        0.000
      4 P2         -3.5442    1.6026   -0.5275 P.3        1 <1>        0.000
      5 O3         -3.0675    1.4111   -1.8882 O.2        1 <1>        0.000
      6 O4         -2.4141    1.1424    0.4814 O.3        1 <1>        0.000
      7 O7         -3.9087    3.0801   -0.1849 O.3        1 <1>        0.000
      8 O8         -5.4908   -1.3823   -1.7311 O.3        1 <1>        0.000
      9 P3         -5.9661   -2.8562   -1.7743 P.3        1 <1>        0.000
     10 O9         -6.6692   -3.2302   -2.9814 O.2        1 <1>        0.000
     11 O10        -6.8186   -3.1332   -0.4530 O.3        1 <1>        0.000
     12 O11        -4.6379   -3.7256   -1.5644 O.3        1 <1>        0.000
     13 O12        -3.0657   -1.0966   -1.0084 O.3        1 <1>        0.000
     14 H          -2.7215    1.2658    1.3824 H.spc      1 <1>        0.000
     15 H          -4.2139    3.1307    0.7239 H.spc      1 <1>        0.000
     16 H          -6.3091   -2.8688    0.3165 H.spc      1 <1>        0.000
     17 H          -4.2003   -3.4492   -0.7559 H.spc      1 <1>        0.000
     18 H          -2.8748   -0.5559   -1.7783 H.spc      1 <1>        0.000
@<TRIPOS>BOND
     1    9   12 1  
     2    8    9 1  
     3    9   11 1  
     4    9   10 2  
     5    1    2 2  
     6    1    3 1  
     7    1    8 1  
     8    1   13 1  
     9    3    4 1  
    10    4    5 2  
    11    4    6 1  
    12    4    7 1  
    13    6   14 1  
    14    7   15 1  
    15   11   16 1  
    16   12   17 1  
    17   13   18 1  
# Name:          frag3-112-79/31924
# Creation time: Sat Jun  5 12:52:01 2010


@<TRIPOS>MOLECULE
frag3-112-79/31924
   18    17     1     1     1
SMALL
USER_CHARGES


@<TRIPOS>ATOM
      1 P1         -4.1508   -1.3637    0.2248 P.3        1 <1>        0.000
      2 O1         -2.9164   -1.1408    0.9402 O.2        1 <1>        0.000
      3 O2         -3.9207   -1.6666   -1.3003 O.3        1 <1>        0.000
      4 P2         -5.1102   -2.1769   -2.1742 P.3        1 <1>        0.000
      5 O3         -6.3083   -2.1195   -1.3404 O.2        1 <1>        0.000
      6 O4         -4.8461   -3.6640   -2.5893 O.3        1 <1>        0.000
      7 O7         -5.2652   -1.3602   -3.5052 O.3        1 <1>        0.000
      8 O8         -4.9840   -0.0285    0.2181 O.3        1 <1>        0.000
      9 P3         -4.5232    1.2017   -0.6300 P.3        1 <1>        0.000
     10 O9         -5.1407    1.2051   -1.9347 O.2        1 <1>        0.000
     11 O10        -2.9193    1.0216   -0.7520 O.3        1 <1>        0.000
     12 O11        -4.7226    2.5241    0.1738 O.3        1 <1>        0.000
     13 O12        -5.0109   -2.5505    0.8016 O.3        1 <1>        0.000
     14 H          -4.0593   -3.7071   -3.1377 H.spc      1 <1>        0.000
     15 H          -4.4558   -1.4279   -4.0170 H.spc      1 <1>        0.000
     16 H          -2.5307    1.0222    0.1258 H.spc      1 <1>        0.000
     17 H          -4.2870    2.4481    1.0259 H.spc      1 <1>        0.000
     18 H          -5.8134   -2.6441    0.2831 H.spc      1 <1>        0.000
@<TRIPOS>BOND
     1    9   12 1  
     2    8    9 1  
     3    9   11 1  
     4    9   10 2  
     5    1    2 2  
     6    1    3 1  
     7    1    8 1  
     8    1   13 1  
     9    3    4 1  
    10    4    5 2  
    11    4    6 1  
    12    4    7 1  
    13    6   14 1  
    14    7   15 1  
    15   11   16 1  
    16   12   17 1  
    17   13   18 1  
# Name:          frag3-112-79/31924
# Creation time: Sat Jun  5 12:52:01 2010


@<TRIPOS>MOLECULE
frag3-112-79/31924
   18    17     1     1     1
SMALL
USER_CHARGES


@<TRIPOS>ATOM
      1 P1         -4.5226   -1.3247    0.3891 P.3        1 <1>        0.000
      2 O1         -4.6440   -0.3609    1.4710 O.2        1 <1>        0.000
      3 O2         -3.4527   -0.7335   -0.6198 O.3        1 <1>        0.000
      4 P2         -3.4808    0.7698   -1.0362 P.3        1 <1>        0.000
      5 O3         -3.2286    1.0117   -2.4347 O.2        1 <1>        0.000
      6 O4         -2.4948    1.5570   -0.1220 O.3        1 <1>        0.000
      7 O7         -4.9692    1.2606   -0.6205 O.3        1 <1>        0.000
      8 O8         -5.8344   -1.4012   -0.4716 O.3        1 <1>        0.000
      9 P3         -5.7772   -1.9547   -1.9399 P.3        1 <1>        0.000
     10 O9         -5.0705   -3.2289   -1.9114 O.2        1 <1>        0.000
     11 O10        -4.9941   -0.8908   -2.8340 O.3        1 <1>        0.000
     12 O11        -7.1916   -2.0545   -2.5870 O.3        1 <1>        0.000
     13 O12        -4.1581   -2.7681    0.8496 O.3        1 <1>        0.000
     14 H          -2.6947    1.3699    0.7981 H.spc      1 <1>        0.000
     15 H          -5.1124    1.0891    0.3131 H.spc      1 <1>        0.000
     16 H          -5.4768   -0.0610   -2.8383 H.spc      1 <1>        0.000
     17 H          -7.6080   -1.1895   -2.5784 H.spc      1 <1>        0.000
     18 H          -4.0967   -3.3417    0.0822 H.spc      1 <1>        0.000
@<TRIPOS>BOND
     1    9   12 1  
     2    8    9 1  
     3    9   11 1  
     4    9   10 2  
     5    1    2 2  
     6    1    3 1  
     7    1    8 1  
     8    1   13 1  
     9    3    4 1  
    10    4    5 2  
    11    4    6 1  
    12    4    7 1  
    13    6   14 1  
    14    7   15 1  
    15   11   16 1  
    16   12   17 1  
    17   13   18 1  
# Name:          frag3-112-79/31924
# Creation time: Sat Jun  5 12:52:01 2010


@<TRIPOS>MOLECULE
frag3-112-79/31924
   18    17     1     1     1
SMALL
USER_CHARGES


@<TRIPOS>ATOM
      1 P1         -4.0668   -1.3555    0.0518 P.3        1 <1>        0.000
      2 O1         -3.2081   -1.6510   -1.1176 O.2        1 <1>        0.000
      3 O2         -5.5426   -1.4836   -0.4978 O.3        1 <1>        0.000
      4 P2         -5.8486   -2.1991   -1.8439 P.3        1 <1>        0.000
      5 O3         -7.2201   -2.6438   -1.9939 O.2        1 <1>        0.000
      6 O4         -4.8780   -3.4596   -1.8567 O.3        1 <1>        0.000
      7 O7         -5.3574   -1.2858   -3.0381 O.3        1 <1>        0.000
      8 O8         -3.8072    0.1091    0.4587 O.3        1 <1>        0.000
      9 P3         -3.9568    1.2575   -0.5875 P.3        1 <1>        0.000
     10 O9         -4.0256    0.6332   -1.9038 O.2        1 <1>        0.000
     11 O10        -2.7770    2.2879   -0.4704 O.3        1 <1>        0.000
     12 O11        -5.2762    2.0637   -0.2666 O.3        1 <1>        0.000
     13 O12        -3.8540   -2.3911    1.1982 O.3        1 <1>        0.000
     14 H          -3.9701   -3.1640   -1.7573 H.spc      1 <1>        0.000
     15 H          -4.4469   -1.0230   -2.8849 H.spc      1 <1>        0.000
     16 H          -2.7737    2.6701    0.4102 H.spc      1 <1>        0.000
     17 H          -5.2025    2.4626    0.6035 H.spc      1 <1>        0.000
     18 H          -4.4245   -2.1697    1.9378 H.spc      1 <1>        0.000
@<TRIPOS>BOND
     1    9   12 1  
     2    8    9 1  
     3    9   11 1  
     4    9   10 2  
     5    1    2 2  
     6    1    3 1  
     7    1    8 1  
     8    1   13 1  
     9    3    4 1  
    10    4    5 2  
    11    4    6 1  
    12    4    7 1  
    13    6   14 1  
    14    7   15 1  
    15   11   16 1  
    16   12   17 1  
    17   13   18 1  
# Name:          frag3-112-79/31924
# Creation time: Sat Jun  5 12:52:01 2010


@<TRIPOS>MOLECULE
frag3-112-79/31924
   18    17     1     1     1
SMALL
USER_CHARGES


@<TRIPOS>ATOM
      1 P1         -4.7544   -1.2343    0.3141 P.3        1 <1>        0.000
      2 O1         -5.1017   -0.3448    1.3943 O.2        1 <1>        0.000
      3 O2         -3.5180   -0.6138   -0.4313 O.3        1 <1>        0.000
      4 P2         -3.4912    0.8925   -0.8117 P.3        1 <1>        0.000
      5 O3         -4.2640    1.1413   -2.0006 O.2        1 <1>        0.000
      6 O4         -2.0469    1.4315   -0.9302 O.3        1 <1>        0.000
      7 O7         -4.1224    1.6657    0.4506 O.3        1 <1>        0.000
      8 O8         -5.8575   -1.3196   -0.7920 O.3        1 <1>        0.000
      9 P3         -5.5850   -2.0937   -2.1264 P.3        1 <1>        0.000
     10 O9         -4.4760   -3.0028   -1.8488 O.2        1 <1>        0.000
     11 O10        -5.2413   -1.0735   -3.2782 O.3        1 <1>        0.000
     12 O11        -6.8658   -2.8581   -2.5945 O.3        1 <1>        0.000
     13 O12        -4.4943   -2.7088    0.7872 O.3        1 <1>        0.000
     14 H          -1.5693    1.2448   -0.1186 H.spc      1 <1>        0.000
     15 H          -3.5932    1.4868    1.2313 H.spc      1 <1>        0.000
     16 H          -5.9939   -0.4967   -3.4284 H.spc      1 <1>        0.000
     17 H          -7.5688   -2.2273   -2.7660 H.spc      1 <1>        0.000
     18 H          -4.2684   -3.2520    0.0285 H.spc      1 <1>        0.000
@<TRIPOS>BOND
     1    9   12 1  
     2    8    9 1  
     3    9   11 1  
     4    9   10 2  
     5    1    2 2  
     6    1    3 1  
     7    1    8 1  
     8    1   13 1  
     9    3    4 1  
    10    4    5 2  
    11    4    6 1  
    12    4    7 1  
    13    6   14 1  
    14    7   15 1  
    15   11   16 1  
    16   12   17 1  
    17   13   18 1  
# Name:          frag3-112-79/31924
# Creation time: Sat Jun  5 12:52:01 2010


@<TRIPOS>MOLECULE
frag3-112-79/31924
   18    17     1     1     1
SMALL
USER_CHARGES


@<TRIPOS>ATOM
      1 P1         -4.5268   -1.0898   -0.1253 P.3        1 <1>        0.000
      2 O1         -4.6264   -0.3603    1.1313 O.2        1 <1>        0.000
      3 O2         -4.0633   -0.0456   -1.2121 O.3        1 <1>        0.000
      4 P2         -3.5866    1.3693   -0.7869 P.3        1 <1>        0.000
      5 O3         -3.2706    2.2625   -1.8678 O.2        1 <1>        0.000
      6 O4         -2.3258    1.1461    0.1434 O.3        1 <1>        0.000
      7 O7         -4.7283    1.9543    0.1789 O.3        1 <1>        0.000
      8 O8         -5.8544   -1.7381   -0.5819 O.3        1 <1>        0.000
      9 P3         -5.8880   -2.5781   -1.9006 P.3        1 <1>        0.000
     10 O9         -5.6275   -1.7167   -3.0357 O.2        1 <1>        0.000
     11 O10        -7.1972   -3.4235   -2.0266 O.3        1 <1>        0.000
     12 O11        -4.6966   -3.6551   -1.7451 O.3        1 <1>        0.000
     13 O12        -3.4270   -2.2434   -0.0391 O.3        1 <1>        0.000
     14 H          -2.5582    0.5478    0.8573 H.spc      1 <1>        0.000
     15 H          -4.9042    1.3251    0.8823 H.spc      1 <1>        0.000
     16 H          -7.3029   -3.9666   -1.2420 H.spc      1 <1>        0.000
     17 H          -4.8757   -4.2222   -0.9915 H.spc      1 <1>        0.000
     18 H          -3.3835   -2.7060   -0.8792 H.spc      1 <1>        0.000
@<TRIPOS>BOND
     1    9   12 1  
     2    8    9 1  
     3    9   11 1  
     4    9   10 2  
     5    1    2 2  
     6    1    3 1  
     7    1    8 1  
     8    1   13 1  
     9    3    4 1  
    10    4    5 2  
    11    4    6 1  
    12    4    7 1  
    13    6   14 1  
    14    7   15 1  
    15   11   16 1  
    16   12   17 1  
    17   13   18 1  
# Name:          frag3-112-79/31924
# Creation time: Sat Jun  5 12:52:01 2010


@<TRIPOS>MOLECULE
frag3-112-79/31924
   18    17     1     1     1
SMALL
USER_CHARGES


@<TRIPOS>ATOM
      1 P1         -4.2366   -1.2812    0.0577 P.3        1 <1>        0.000
      2 O1         -5.6420   -0.9042    0.3218 O.2        1 <1>        0.000
      3 O2         -3.3787   -0.0077    0.1936 O.3        1 <1>        0.000
      4 P2         -3.7451    1.2715   -0.6281 P.3        1 <1>        0.000
      5 O3         -4.9940    0.9963   -1.3205 O.2        1 <1>        0.000
      6 O4         -2.6120    1.5450   -1.6698 O.3        1 <1>        0.000
      7 O7         -3.8424    2.5169    0.3254 O.3        1 <1>        0.000
      8 O8         -4.2153   -1.7734   -1.4433 O.3        1 <1>        0.000
      9 P3         -5.4909   -2.3732   -2.1063 P.3        1 <1>        0.000
     10 O9         -5.2647   -2.9611   -3.4145 O.2        1 <1>        0.000
     11 O10        -6.6017   -1.2376   -2.1175 O.3        1 <1>        0.000
     12 O11        -6.0179   -3.4558   -1.0526 O.3        1 <1>        0.000
     13 O12        -3.7773   -2.4539    0.9866 O.3        1 <1>        0.000
     14 H          -1.7905    1.7259   -1.2072 H.spc      1 <1>        0.000
     15 H          -2.9959    2.6554    0.7565 H.spc      1 <1>        0.000
     16 H          -6.7082   -0.8870   -1.2302 H.spc      1 <1>        0.000
     17 H          -6.1558   -3.0323   -0.2022 H.spc      1 <1>        0.000
     18 H          -2.8637   -2.6755    0.7922 H.spc      1 <1>        0.000
@<TRIPOS>BOND
     1    9   12 1  
     2    8    9 1  
     3    9   11 1  
     4    9   10 2  
     5    1    2 2  
     6    1    3 1  
     7    1    8 1  
     8    1   13 1  
     9    3    4 1  
    10    4    5 2  
    11    4    6 1  
    12    4    7 1  
    13    6   14 1  
    14    7   15 1  
    15   11   16 1  
    16   12   17 1  
    17   13   18 1  
# Name:          frag3-112-79/31924
# Creation time: Sat Jun  5 12:52:01 2010


@<TRIPOS>MOLECULE
frag3-112-79/31924
   18    17     1     1     1
SMALL
USER_CHARGES


@<TRIPOS>ATOM
      1 P1         -4.2419   -1.3168    0.1435 P.3        1 <1>        0.000
      2 O1         -3.1526   -1.5328   -0.8390 O.2        1 <1>        0.000
      3 O2         -5.5658   -1.5580   -0.6741 O.3        1 <1>        0.000
      4 P2         -5.5570   -2.2848   -2.0453 P.3        1 <1>        0.000
      5 O3         -6.8335   -2.8349   -2.4516 O.2        1 <1>        0.000
      6 O4         -4.5046   -3.4669   -1.8616 O.3        1 <1>        0.000
      7 O7         -4.9100   -1.3285   -3.1324 O.3        1 <1>        0.000
      8 O8         -4.1791    0.1622    0.5793 O.3        1 <1>        0.000
      9 P3         -4.2334    1.3111   -0.4715 P.3        1 <1>        0.000
     10 O9         -5.3724    1.0856   -1.3479 O.2        1 <1>        0.000
     11 O10        -2.8581    1.2528   -1.2914 O.3        1 <1>        0.000
     12 O11        -4.2512    2.7202    0.1955 O.3        1 <1>        0.000
     13 O12        -4.1588   -2.3274    1.3290 O.3        1 <1>        0.000
     14 H          -3.6586   -3.1017   -1.5923 H.spc      1 <1>        0.000
     15 H          -4.0700   -0.9973   -2.8063 H.spc      1 <1>        0.000
     16 H          -2.1232    1.4042   -0.6926 H.spc      1 <1>        0.000
     17 H          -3.4809    2.8153    0.7605 H.spc      1 <1>        0.000
     18 H          -4.8771   -2.1583    1.9431 H.spc      1 <1>        0.000
@<TRIPOS>BOND
     1    9   12 1  
     2    8    9 1  
     3    9   11 1  
     4    9   10 2  
     5    1    2 2  
     6    1    3 1  
     7    1    8 1  
     8    1   13 1  
     9    3    4 1  
    10    4    5 2  
    11    4    6 1  
    12    4    7 1  
    13    6   14 1  
    14    7   15 1  
    15   11   16 1  
    16   12   17 1  
    17   13   18 1  
# Name:          frag3-112-79/31924
# Creation time: Sat Jun  5 12:52:01 2010


@<TRIPOS>MOLECULE
frag3-112-79/31924
   18    17     1     1     1
SMALL
USER_CHARGES


@<TRIPOS>ATOM
      1 P1         -4.2439   -1.4036    0.2090 P.3        1 <1>        0.000
      2 O1         -5.6183   -0.9140    0.3816 O.2        1 <1>        0.000
      3 O2         -3.3476   -0.1384    0.1670 O.3        1 <1>        0.000
      4 P2         -3.7051    1.0822   -0.7326 P.3        1 <1>        0.000
      5 O3         -4.1330    0.5777   -2.0294 O.2        1 <1>        0.000
      6 O4         -2.5147    2.0588   -0.8873 O.3        1 <1>        0.000
      7 O7         -4.8716    1.8633    0.0108 O.3        1 <1>        0.000
      8 O8         -4.2196   -2.0709   -1.2071 O.3        1 <1>        0.000
      9 P3         -5.5203   -2.2266   -2.0556 P.3        1 <1>        0.000
     10 O9         -6.4107   -3.1447   -1.3636 O.2        1 <1>        0.000
     11 O10        -5.2393   -2.6174   -3.5420 O.3        1 <1>        0.000
     12 O11        -6.1597   -0.7659   -2.1280 O.3        1 <1>        0.000
     13 O12        -3.8347   -2.4185    1.3097 O.3        1 <1>        0.000
     14 H          -2.2498    2.3783   -0.0217 H.spc      1 <1>        0.000
     15 H          -4.5531    2.1800    0.8593 H.spc      1 <1>        0.000
     16 H          -4.6477   -1.9716   -3.9351 H.spc      1 <1>        0.000
     17 H          -5.5573   -0.1765   -2.5877 H.spc      1 <1>        0.000
     18 H          -2.9328   -2.7093    1.1560 H.spc      1 <1>        0.000
@<TRIPOS>BOND
     1    9   12 1  
     2    8    9 1  
     3    9   11 1  
     4    9   10 2  
     5    1    2 2  
     6    1    3 1  
     7    1    8 1  
     8    1   13 1  
     9    3    4 1  
    10    4    5 2  
    11    4    6 1  
    12    4    7 1  
    13    6   14 1  
    14    7   15 1  
    15   11   16 1  
    16   12   17 1  
    17   13   18 1  
# Name:          frag3-112-79/31924
# Creation time: Sat Jun  5 12:52:01 2010


@<TRIPOS>MOLECULE
frag3-112-79/31924
   18    17     1     1     1
SMALL
USER_CHARGES


@<TRIPOS>ATOM
      1 P1         -4.2040   -1.2188    0.0525 P.3        1 <1>        0.000
      2 O1         -5.3300   -1.6055    0.8946 O.2        1 <1>        0.000
      3 O2         -3.7050    0.2095    0.3281 O.3        1 <1>        0.000
      4 P2         -3.4967    1.2052   -0.8558 P.3        1 <1>        0.000
      5 O3         -2.7159    0.5415   -1.8846 O.2        1 <1>        0.000
      6 O4         -2.8137    2.5124   -0.3880 O.3        1 <1>        0.000
      7 O7         -4.9508    1.6014   -1.3874 O.3        1 <1>        0.000
      8 O8         -4.7659   -1.2562   -1.4375 O.3        1 <1>        0.000
      9 P3         -5.9311   -2.1994   -1.8363 P.3        1 <1>        0.000
     10 O9         -6.2133   -2.2519   -3.2551 O.2        1 <1>        0.000
     11 O10        -7.1921   -1.7742   -0.9608 O.3        1 <1>        0.000
     12 O11        -5.4790   -3.6210   -1.2624 O.3        1 <1>        0.000
     13 O12        -3.0208   -2.2615    0.1252 O.3        1 <1>        0.000
     14 H          -3.3512    2.9279    0.2903 H.spc      1 <1>        0.000
     15 H          -5.4394    2.0368   -0.6850 H.spc      1 <1>        0.000
     16 H          -6.9451   -1.7570   -0.0333 H.spc      1 <1>        0.000
     17 H          -5.3019   -3.5436   -0.3220 H.spc      1 <1>        0.000
     18 H          -2.3031   -1.9695   -0.4416 H.spc      1 <1>        0.000
@<TRIPOS>BOND
     1    9   12 1  
     2    8    9 1  
     3    9   11 1  
     4    9   10 2  
     5    1    2 2  
     6    1    3 1  
     7    1    8 1  
     8    1   13 1  
     9    3    4 1  
    10    4    5 2  
    11    4    6 1  
    12    4    7 1  
    13    6   14 1  
    14    7   15 1  
    15   11   16 1  
    16   12   17 1  
    17   13   18 1  
# Name:          frag3-112-79/31924
# Creation time: Sat Jun  5 12:52:01 2010


@<TRIPOS>MOLECULE
frag3-112-79/31924
   18    17     1     1     1
SMALL
USER_CHARGES


@<TRIPOS>ATOM
      1 P1         -4.1603   -1.2449   -0.3565 P.3        1 <1>        0.000
      2 O1         -4.6331   -2.2782    0.5158 O.2        1 <1>        0.000
      3 O2         -4.4507    0.1911    0.1579 O.3        1 <1>        0.000
      4 P2         -3.6865    1.4207   -0.4476 P.3        1 <1>        0.000
      5 O3         -2.8866    0.9016   -1.5531 O.2        1 <1>        0.000
      6 O4         -2.7356    1.9902    0.6505 O.3        1 <1>        0.000
      7 O7         -4.6829    2.5413   -0.8839 O.3        1 <1>        0.000
      8 O8         -4.8710   -1.4245   -1.7381 O.3        1 <1>        0.000
      9 P3         -6.0518   -2.4397   -1.8544 P.3        1 <1>        0.000
     10 O9         -6.9664   -2.2013   -0.7682 O.2        1 <1>        0.000
     11 O10        -5.3955   -3.9056   -1.7805 O.3        1 <1>        0.000
     12 O11        -6.7257   -2.3578   -3.2630 O.3        1 <1>        0.000
     13 O12        -2.5724   -1.3111   -0.5463 O.3        1 <1>        0.000
     14 H          -3.2587    2.3324    1.3791 H.spc      1 <1>        0.000
     15 H          -5.1789    2.8424   -0.1191 H.spc      1 <1>        0.000
     16 H          -4.7945   -4.0235   -2.5198 H.spc      1 <1>        0.000
     17 H          -6.0675   -2.5250   -3.9416 H.spc      1 <1>        0.000
     18 H          -2.2919   -0.6064   -1.1348 H.spc      1 <1>        0.000
@<TRIPOS>BOND
     1    9   12 1  
     2    8    9 1  
     3    9   11 1  
     4    9   10 2  
     5    1    2 2  
     6    1    3 1  
     7    1    8 1  
     8    1   13 1  
     9    3    4 1  
    10    4    5 2  
    11    4    6 1  
    12    4    7 1  
    13    6   14 1  
    14    7   15 1  
    15   11   16 1  
    16   12   17 1  
    17   13   18 1  
# Name:          frag3-112-79/31924
# Creation time: Sat Jun  5 12:52:01 2010


@<TRIPOS>MOLECULE
frag3-112-79/31924
   18    17     1     1     1
SMALL
USER_CHARGES


@<TRIPOS>ATOM
      1 P1         -4.5924   -1.2258    0.3703 P.3        1 <1>        0.000
      2 O1         -4.2391   -2.1167    1.4455 O.2        1 <1>        0.000
      3 O2         -4.0343   -1.7487   -1.0046 O.3        1 <1>        0.000
      4 P2         -4.9747   -2.3695   -2.1005 P.3        1 <1>        0.000
      5 O3         -5.5548   -3.5801   -1.5627 O.2        1 <1>        0.000
      6 O4         -4.2202   -2.6230   -3.4215 O.3        1 <1>        0.000
      7 O7         -6.0935   -1.2499   -2.3524 O.3        1 <1>        0.000
      8 O8         -4.1287    0.2362    0.5362 O.3        1 <1>        0.000
      9 P3         -4.0276    1.2076   -0.6853 P.3        1 <1>        0.000
     10 O9         -5.2080    0.9844   -1.5184 O.2        1 <1>        0.000
     11 O10        -2.6958    0.8365   -1.4815 O.3        1 <1>        0.000
     12 O11        -3.8669    2.6854   -0.2292 O.3        1 <1>        0.000
     13 O12        -6.1825   -1.1548    0.1366 O.3        1 <1>        0.000
     14 H          -3.8524   -1.7963   -3.7424 H.spc      1 <1>        0.000
     15 H          -5.6798   -0.4602   -2.7085 H.spc      1 <1>        0.000
     16 H          -1.9340    0.9899   -0.9178 H.spc      1 <1>        0.000
     17 H          -3.0782    2.7682    0.3118 H.spc      1 <1>        0.000
     18 H          -6.3720   -0.5520   -0.5862 H.spc      1 <1>        0.000
@<TRIPOS>BOND
     1    9   12 1  
     2    8    9 1  
     3    9   11 1  
     4    9   10 2  
     5    1    2 2  
     6    1    3 1  
     7    1    8 1  
     8    1   13 1  
     9    3    4 1  
    10    4    5 2  
    11    4    6 1  
    12    4    7 1  
    13    6   14 1  
    14    7   15 1  
    15   11   16 1  
    16   12   17 1  
    17   13   18 1  
# Name:          frag3-112-79/31924
# Creation time: Sat Jun  5 12:52:01 2010


@<TRIPOS>MOLECULE
frag3-112-79/31924
   18    17     1     1     1
SMALL
USER_CHARGES


@<TRIPOS>ATOM
      1 P1         -4.2671   -1.1720   -0.1151 P.3        1 <1>        0.000
      2 O1         -4.9508   -0.8030    1.1163 O.2        1 <1>        0.000
      3 O2         -3.1012   -0.1967   -0.3797 O.3        1 <1>        0.000
      4 P2         -3.3905    1.2768   -0.7617 P.3        1 <1>        0.000
      5 O3         -3.6911    1.3978   -2.1740 O.2        1 <1>        0.000
      6 O4         -2.2409    2.2233   -0.3377 O.3        1 <1>        0.000
      7 O7         -4.6633    1.7025    0.1311 O.3        1 <1>        0.000
      8 O8         -5.2743   -1.0837   -1.3242 O.3        1 <1>        0.000
      9 P3         -5.9369   -2.3689   -1.9155 P.3        1 <1>        0.000
     10 O9         -4.8594   -3.3141   -2.2141 O.2        1 <1>        0.000
     11 O10        -6.8876   -2.1021   -3.1134 O.3        1 <1>        0.000
     12 O11        -6.7508   -2.9919   -0.6876 O.3        1 <1>        0.000
     13 O12        -3.8044   -2.6861   -0.0918 O.3        1 <1>        0.000
     14 H          -2.0696    2.1165    0.6008 H.spc      1 <1>        0.000
     15 H          -4.4436    1.6154    1.0616 H.spc      1 <1>        0.000
     16 H          -7.5664   -1.4769   -2.8487 H.spc      1 <1>        0.000
     17 H          -7.4730   -2.4045   -0.4529 H.spc      1 <1>        0.000
     18 H          -3.3585   -2.8960   -0.9157 H.spc      1 <1>        0.000
@<TRIPOS>BOND
     1    9   12 1  
     2    8    9 1  
     3    9   11 1  
     4    9   10 2  
     5    1    2 2  
     6    1    3 1  
     7    1    8 1  
     8    1   13 1  
     9    3    4 1  
    10    4    5 2  
    11    4    6 1  
    12    4    7 1  
    13    6   14 1  
    14    7   15 1  
    15   11   16 1  
    16   12   17 1  
    17   13   18 1  
# Name:          frag3-112-79/31924
# Creation time: Sat Jun  5 12:52:01 2010


@<TRIPOS>MOLECULE
frag3-112-79/31924
   18    17     1     1     1
SMALL
USER_CHARGES


@<TRIPOS>ATOM
      1 P1         -4.5188   -0.9934   -0.2012 P.3        1 <1>        0.000
      2 O1         -4.8537   -1.9199    0.8670 O.2        1 <1>        0.000
      3 O2         -4.3889    0.4709    0.2323 O.3        1 <1>        0.000
      4 P2         -3.5143    1.4525   -0.6064 P.3        1 <1>        0.000
      5 O3         -3.3470    0.8716   -1.9347 O.2        1 <1>        0.000
      6 O4         -2.1092    1.5587    0.0921 O.3        1 <1>        0.000
      7 O7         -4.1220    2.8960   -0.6469 O.3        1 <1>        0.000
      8 O8         -5.5841   -1.1720   -1.3439 O.3        1 <1>        0.000
      9 P3         -6.0011   -2.5884   -1.8384 P.3        1 <1>        0.000
     10 O9         -5.9533   -2.7303   -3.2775 O.2        1 <1>        0.000
     11 O10        -7.3859   -2.9896   -1.1974 O.3        1 <1>        0.000
     12 O11        -4.9263   -3.5579   -1.1334 O.3        1 <1>        0.000
     13 O12        -3.1138   -1.4165   -0.8788 O.3        1 <1>        0.000
     14 H          -2.2158    1.9406    0.9664 H.spc      1 <1>        0.000
     15 H          -4.2106    3.2299    0.2488 H.spc      1 <1>        0.000
     16 H          -7.3432   -2.8705   -0.2458 H.spc      1 <1>        0.000
     17 H          -4.9745   -3.4483   -0.1809 H.spc      1 <1>        0.000
     18 H          -2.9007   -0.7995   -1.5827 H.spc      1 <1>        0.000
@<TRIPOS>BOND
     1    9   12 1  
     2    8    9 1  
     3    9   11 1  
     4    9   10 2  
     5    1    2 2  
     6    1    3 1  
     7    1    8 1  
     8    1   13 1  
     9    3    4 1  
    10    4    5 2  
    11    4    6 1  
    12    4    7 1  
    13    6   14 1  
    14    7   15 1  
    15   11   16 1  
    16   12   17 1  
    17   13   18 1  
# Name:          frag3-112-79/31924
# Creation time: Sat Jun  5 12:52:01 2010


@<TRIPOS>MOLECULE
frag3-112-79/31924
   18    17     1     1     1
SMALL
USER_CHARGES


@<TRIPOS>ATOM
      1 P1         -4.7445   -0.9266   -0.4093 P.3        1 <1>        0.000
      2 O1         -3.6561   -1.0096   -1.4355 O.2        1 <1>        0.000
      3 O2         -5.9402   -1.7237   -0.9714 O.3        1 <1>        0.000
      4 P2         -5.7294   -2.8778   -1.9879 P.3        1 <1>        0.000
      5 O3         -6.7460   -3.9000   -1.9411 O.2        1 <1>        0.000
      6 O4         -4.3170   -3.5097   -1.6038 O.3        1 <1>        0.000
      7 O7         -5.5280   -2.2536   -3.4351 O.3        1 <1>        0.000
      8 O8         -4.9956    0.5808   -0.1571 O.3        1 <1>        0.000
      9 P3         -3.8280    1.6075   -0.1929 P.3        1 <1>        0.000
     10 O9         -4.2289    2.9698    0.0829 O.2        1 <1>        0.000
     11 O10        -3.1213    1.4488   -1.6187 O.3        1 <1>        0.000
     12 O11        -2.7566    1.0683    0.8600 O.3        1 <1>        0.000
     13 O12        -4.2266   -1.5924    0.9424 O.3        1 <1>        0.000
     14 H          -3.6429   -2.8270   -1.6359 H.spc      1 <1>        0.000
     15 H          -4.8418   -1.5831   -3.4005 H.spc      1 <1>        0.000
     16 H          -2.8758    0.5304   -1.7524 H.spc      1 <1>        0.000
     17 H          -2.5199    0.1644    0.6396 H.spc      1 <1>        0.000
     18 H          -4.9178   -1.5441    1.6069 H.spc      1 <1>        0.000
@<TRIPOS>BOND
     1    9   12 1  
     2    8    9 1  
     3    9   11 1  
     4    9   10 2  
     5    1    2 2  
     6    1    3 1  
     7    1    8 1  
     8    1   13 1  
     9    3    4 1  
    10    4    5 2  
    11    4    6 1  
    12    4    7 1  
    13    6   14 1  
    14    7   15 1  
    15   11   16 1  
    16   12   17 1  
    17   13   18 1  
# Name:          frag3-112-79/31924
# Creation time: Sat Jun  5 12:52:01 2010


@<TRIPOS>MOLECULE
frag3-112-79/31924
   18    17     1     1     1
SMALL
USER_CHARGES


@<TRIPOS>ATOM
      1 P1         -4.3526   -1.0781   -0.3976 P.3        1 <1>        0.000
      2 O1         -5.3478   -0.4197    0.4513 O.2        1 <1>        0.000
      3 O2         -3.1379   -0.1443   -0.5170 O.3        1 <1>        0.000
      4 P2         -3.3462    1.3974   -0.4873 P.3        1 <1>        0.000
      5 O3         -4.3404    1.7525   -1.4791 O.2        1 <1>        0.000
      6 O4         -2.0169    2.1543   -0.7181 O.3        1 <1>        0.000
      7 O7         -3.8395    1.7481    0.9936 O.3        1 <1>        0.000
      8 O8         -5.0033   -1.3610   -1.7915 O.3        1 <1>        0.000
      9 P3         -5.8617   -2.6433   -2.0392 P.3        1 <1>        0.000
     10 O9         -4.9833   -3.8007   -2.0195 O.2        1 <1>        0.000
     11 O10        -6.7809   -2.5492   -3.2887 O.3        1 <1>        0.000
     12 O11        -6.8261   -2.6669   -0.7527 O.3        1 <1>        0.000
     13 O12        -3.9819   -2.5072    0.1784 O.3        1 <1>        0.000
     14 H          -1.3822    1.8965   -0.0456 H.spc      1 <1>        0.000
     15 H          -3.1587    1.5006    1.6235 H.spc      1 <1>        0.000
     16 H          -7.3261   -1.7616   -3.2249 H.spc      1 <1>        0.000
     17 H          -7.4030   -1.8999   -0.7726 H.spc      1 <1>        0.000
     18 H          -3.3295   -2.9212   -0.3913 H.spc      1 <1>        0.000
@<TRIPOS>BOND
     1    9   12 1  
     2    8    9 1  
     3    9   11 1  
     4    9   10 2  
     5    1    2 2  
     6    1    3 1  
     7    1    8 1  
     8    1   13 1  
     9    3    4 1  
    10    4    5 2  
    11    4    6 1  
    12    4    7 1  
    13    6   14 1  
    14    7   15 1  
    15   11   16 1  
    16   12   17 1  
    17   13   18 1  
# Name:          frag3-112-79/31924
# Creation time: Sat Jun  5 12:52:01 2010


@<TRIPOS>MOLECULE
frag3-112-79/31924
   18    17     1     1     1
SMALL
USER_CHARGES


@<TRIPOS>ATOM
      1 P1         -4.1490   -1.1604   -0.3236 P.3        1 <1>        0.000
      2 O1         -2.7531   -1.2062   -0.7263 O.2        1 <1>        0.000
      3 O2         -5.0579   -1.2175   -1.6062 O.3        1 <1>        0.000
      4 P2         -5.7072   -2.5512   -2.1004 P.3        1 <1>        0.000
      5 O3         -6.8707   -2.8459   -1.3010 O.2        1 <1>        0.000
      6 O4         -4.5801   -3.6320   -1.7767 O.3        1 <1>        0.000
      7 O7         -5.9324   -2.5583   -3.6355 O.3        1 <1>        0.000
      8 O8         -4.4198    0.1415    0.4408 O.3        1 <1>        0.000
      9 P3         -4.0834    1.5132   -0.2170 P.3        1 <1>        0.000
     10 O9         -4.6474    1.5297   -1.5511 O.2        1 <1>        0.000
     11 O10        -2.4878    1.6210   -0.2520 O.3        1 <1>        0.000
     12 O11        -4.5700    2.6958    0.6751 O.3        1 <1>        0.000
     13 O12        -4.5596   -2.4479    0.5065 O.3        1 <1>        0.000
     14 H          -3.7994   -3.4461   -2.3035 H.spc      1 <1>        0.000
     15 H          -5.1066   -2.3528   -4.0799 H.spc      1 <1>        0.000
     16 H          -2.1475    1.6073    0.6456 H.spc      1 <1>        0.000
     17 H          -4.1633    2.6295    1.5421 H.spc      1 <1>        0.000
     18 H          -5.4846   -2.3851    0.7556 H.spc      1 <1>        0.000
@<TRIPOS>BOND
     1    9   12 1  
     2    8    9 1  
     3    9   11 1  
     4    9   10 2  
     5    1    2 2  
     6    1    3 1  
     7    1    8 1  
     8    1   13 1  
     9    3    4 1  
    10    4    5 2  
    11    4    6 1  
    12    4    7 1  
    13    6   14 1  
    14    7   15 1  
    15   11   16 1  
    16   12   17 1  
    17   13   18 1  
# Name:          frag3-112-79/31924
# Creation time: Sat Jun  5 12:52:01 2010


@<TRIPOS>MOLECULE
frag3-112-79/31924
   18    17     1     1     1
SMALL
USER_CHARGES


@<TRIPOS>ATOM
      1 P1         -4.6169   -1.3386    0.3969 P.3        1 <1>        0.000
      2 O1         -4.2960   -2.7195    0.6055 O.2        1 <1>        0.000
      3 O2         -5.7348   -1.2668   -0.7142 O.3        1 <1>        0.000
      4 P2         -5.5421   -2.0302   -2.0652 P.3        1 <1>        0.000
      5 O3         -5.5096   -3.4451   -1.8068 O.2        1 <1>        0.000
      6 O4         -4.1121   -1.5805   -2.6149 O.3        1 <1>        0.000
      7 O7         -6.5821   -1.6037   -3.1556 O.3        1 <1>        0.000
      8 O8         -3.4226   -0.5207   -0.2343 O.3        1 <1>        0.000
      9 P3         -3.6767    0.8720   -0.9008 P.3        1 <1>        0.000
     10 O9         -4.7258    0.7303   -1.8976 O.2        1 <1>        0.000
     11 O10        -2.3722    1.5204   -1.4591 O.3        1 <1>        0.000
     12 O11        -4.1646    1.8354    0.2836 O.3        1 <1>        0.000
     13 O12        -5.0628   -0.5715    1.6951 O.3        1 <1>        0.000
     14 H          -4.1207   -0.6369   -2.7915 H.spc      1 <1>        0.000
     15 H          -6.5476   -0.6517   -3.2741 H.spc      1 <1>        0.000
     16 H          -1.7222    1.5856   -0.7556 H.spc      1 <1>        0.000
     17 H          -3.4640    1.9207    0.9343 H.spc      1 <1>        0.000
     18 H          -5.2593    0.3418    1.4742 H.spc      1 <1>        0.000
@<TRIPOS>BOND
     1    9   12 1  
     2    8    9 1  
     3    9   11 1  
     4    9   10 2  
     5    1    2 2  
     6    1    3 1  
     7    1    8 1  
     8    1   13 1  
     9    3    4 1  
    10    4    5 2  
    11    4    6 1  
    12    4    7 1  
    13    6   14 1  
    14    7   15 1  
    15   11   16 1  
    16   12   17 1  
    17   13   18 1  
# Name:          frag3-112-79/31924
# Creation time: Sat Jun  5 12:52:01 2010


@<TRIPOS>MOLECULE
frag3-112-79/31924
   18    17     1     1     1
SMALL
USER_CHARGES


@<TRIPOS>ATOM
      1 P1         -4.4246   -1.2173    0.0961 P.3        1 <1>        0.000
      2 O1         -5.7528   -0.8355    0.5594 O.2        1 <1>        0.000
      3 O2         -3.4528   -0.0466    0.3263 O.3        1 <1>        0.000
      4 P2         -3.4109    1.1763   -0.6405 P.3        1 <1>        0.000
      5 O3         -3.4396    0.6678   -1.9982 O.2        1 <1>        0.000
      6 O4         -2.1471    2.0277   -0.3970 O.3        1 <1>        0.000
      7 O7         -4.6920    2.0466   -0.3094 O.3        1 <1>        0.000
      8 O8         -4.5625   -1.4542   -1.4556 O.3        1 <1>        0.000
      9 P3         -5.6894   -2.3279   -2.0657 P.3        1 <1>        0.000
     10 O9         -5.4703   -3.6952   -1.6332 O.2        1 <1>        0.000
     11 O10        -5.8201   -2.1550   -3.6080 O.3        1 <1>        0.000
     12 O11        -7.0263   -1.7314   -1.4365 O.3        1 <1>        0.000
     13 O12        -3.9299   -2.5734    0.6948 O.3        1 <1>        0.000
     14 H          -2.1506    2.3524    0.5064 H.spc      1 <1>        0.000
     15 H          -4.6367    2.3643    0.5948 H.spc      1 <1>        0.000
     16 H          -5.9626   -1.2283   -3.8140 H.spc      1 <1>        0.000
     17 H          -7.1457   -0.8281   -1.7389 H.spc      1 <1>        0.000
     18 H          -3.0541   -2.7713    0.3551 H.spc      1 <1>        0.000
@<TRIPOS>BOND
     1    9   12 1  
     2    8    9 1  
     3    9   11 1  
     4    9   10 2  
     5    1    2 2  
     6    1    3 1  
     7    1    8 1  
     8    1   13 1  
     9    3    4 1  
    10    4    5 2  
    11    4    6 1  
    12    4    7 1  
    13    6   14 1  
    14    7   15 1  
    15   11   16 1  
    16   12   17 1  
    17   13   18 1  
# Name:          frag3-112-79/31924
# Creation time: Sat Jun  5 12:52:01 2010


@<TRIPOS>MOLECULE
frag3-112-79/31924
   18    17     1     1     1
SMALL
USER_CHARGES


@<TRIPOS>ATOM
      1 P1         -4.5548   -1.2356   -0.1147 P.3        1 <1>        0.000
      2 O1         -5.8386   -0.5368    0.0495 O.2        1 <1>        0.000
      3 O2         -3.6440   -0.3011   -0.9801 O.3        1 <1>        0.000
      4 P2         -3.3280    1.1443   -0.4938 P.3        1 <1>        0.000
      5 O3         -3.8751    1.2756    0.8422 O.2        1 <1>        0.000
      6 O4         -3.9992    2.1785   -1.4503 O.3        1 <1>        0.000
      7 O7         -1.7734    1.4127   -0.5319 O.3        1 <1>        0.000
      8 O8         -4.8398   -2.5583   -0.8587 O.3        1 <1>        0.000
      9 P3         -5.7670   -2.5894   -2.0918 P.3        1 <1>        0.000
     10 O9         -5.5629   -3.7033   -2.9763 O.2        1 <1>        0.000
     11 O10        -5.5498   -1.2412   -2.9589 O.3        1 <1>        0.000
     12 O11        -7.2572   -2.4891   -1.5620 O.3        1 <1>        0.000
     13 O12        -3.8287   -1.4746    1.2592 O.3        1 <1>        0.000
     14 H          -3.6306    2.0837   -2.3316 H.spc      1 <1>        0.000
     15 H          -1.4550    1.3153   -1.4323 H.spc      1 <1>        0.000
     16 H          -5.6795   -0.4751   -2.3951 H.spc      1 <1>        0.000
     17 H          -7.3377   -1.7313   -0.9781 H.spc      1 <1>        0.000
     18 H          -2.9985   -1.9315    1.1058 H.spc      1 <1>        0.000
@<TRIPOS>BOND
     1    9   12 1  
     2    8    9 1  
     3    9   11 1  
     4    9   10 2  
     5    1    2 2  
     6    1    3 1  
     7    1    8 1  
     8    1   13 1  
     9    3    4 1  
    10    4    5 2  
    11    4    6 1  
    12    4    7 1  
    13    6   14 1  
    14    7   15 1  
    15   11   16 1  
    16   12   17 1  
    17   13   18 1  
# Name:          frag3-112-79/31924
# Creation time: Sat Jun  5 12:52:01 2010


@<TRIPOS>MOLECULE
frag3-112-79/31924
   18    17     1     1     1
SMALL
USER_CHARGES


@<TRIPOS>ATOM
      1 P1         -4.6500   -0.7270   -0.9656 P.3        1 <1>        0.000
      2 O1         -5.0312   -0.7286    0.4541 O.2        1 <1>        0.000
      3 O2         -4.2491    0.7185   -1.3450 O.3        1 <1>        0.000
      4 P2         -3.2981    1.5570   -0.4398 P.3        1 <1>        0.000
      5 O3         -2.6483    2.6499   -1.1268 O.2        1 <1>        0.000
      6 O4         -2.2121    0.5158    0.0638 O.3        1 <1>        0.000
      7 O7         -4.1215    2.0043    0.8358 O.3        1 <1>        0.000
      8 O8         -5.7531   -1.3878   -1.8047 O.3        1 <1>        0.000
      9 P3         -6.0292   -2.9148   -1.6903 P.3        1 <1>        0.000
     10 O9         -4.8852   -3.6479   -2.2064 O.2        1 <1>        0.000
     11 O10        -7.3875   -3.3147   -2.3601 O.3        1 <1>        0.000
     12 O11        -6.2258   -3.2050   -0.1307 O.3        1 <1>        0.000
     13 O12        -3.3273   -1.6379   -1.1517 O.3        1 <1>        0.000
     14 H          -2.6503   -0.2070    0.5189 H.spc      1 <1>        0.000
     15 H          -4.5247    1.2333    1.2416 H.spc      1 <1>        0.000
     16 H          -8.0977   -2.7959   -1.9754 H.spc      1 <1>        0.000
     17 H          -6.9845   -2.7133    0.1920 H.spc      1 <1>        0.000
     18 H          -3.0709   -1.6426   -2.0768 H.spc      1 <1>        0.000
@<TRIPOS>BOND
     1    9   12 1  
     2    8    9 1  
     3    9   11 1  
     4    9   10 2  
     5    1    2 2  
     6    1    3 1  
     7    1    8 1  
     8    1   13 1  
     9    3    4 1  
    10    4    5 2  
    11    4    6 1  
    12    4    7 1  
    13    6   14 1  
    14    7   15 1  
    15   11   16 1  
    16   12   17 1  
    17   13   18 1  
# Name:          frag3-112-79/31924
# Creation time: Sat Jun  5 12:52:01 2010


@<TRIPOS>MOLECULE
frag3-112-79/31924
   18    17     1     1     1
SMALL
USER_CHARGES


@<TRIPOS>ATOM
      1 P1         -4.7294   -1.0862    0.0468 P.3        1 <1>        0.000
      2 O1         -4.6157   -2.2536    0.8768 O.2        1 <1>        0.000
      3 O2         -4.3500   -1.4927   -1.4221 O.3        1 <1>        0.000
      4 P2         -5.0906   -2.6612   -2.1453 P.3        1 <1>        0.000
      5 O3         -5.2851   -3.7180   -1.1792 O.2        1 <1>        0.000
      6 O4         -4.3053   -3.1622   -3.3781 O.3        1 <1>        0.000
      7 O7         -6.4798   -2.0629   -2.6510 O.3        1 <1>        0.000
      8 O8         -3.8809    0.1179    0.4843 O.3        1 <1>        0.000
      9 P3         -3.7770    1.4049   -0.4022 P.3        1 <1>        0.000
     10 O9         -5.1218    1.7067   -0.8752 O.2        1 <1>        0.000
     11 O10        -2.7934    1.0761   -1.6088 O.3        1 <1>        0.000
     12 O11        -3.1459    2.5633    0.4235 O.3        1 <1>        0.000
     13 O12        -6.2436   -0.5504   -0.0368 O.3        1 <1>        0.000
     14 H          -4.1926   -2.4394   -3.9997 H.spc      1 <1>        0.000
     15 H          -6.3132   -1.3656   -3.2895 H.spc      1 <1>        0.000
     16 H          -1.9188    0.8824   -1.2636 H.spc      1 <1>        0.000
     17 H          -2.2647    2.3093    0.7073 H.spc      1 <1>        0.000
     18 H          -6.2761    0.2274   -0.5986 H.spc      1 <1>        0.000
@<TRIPOS>BOND
     1    9   12 1  
     2    8    9 1  
     3    9   11 1  
     4    9   10 2  
     5    1    2 2  
     6    1    3 1  
     7    1    8 1  
     8    1   13 1  
     9    3    4 1  
    10    4    5 2  
    11    4    6 1  
    12    4    7 1  
    13    6   14 1  
    14    7   15 1  
    15   11   16 1  
    16   12   17 1  
    17   13   18 1  
# Name:          frag3-112-79/31924
# Creation time: Sat Jun  5 12:52:01 2010


@<TRIPOS>MOLECULE
frag3-112-79/31924
   18    17     1     1     1
SMALL
USER_CHARGES


@<TRIPOS>ATOM
      1 P1         -4.6887   -1.0949   -0.0073 P.3        1 <1>        0.000
      2 O1         -3.7423   -0.7036    1.0274 O.2        1 <1>        0.000
      3 O2         -4.1550   -2.2215   -0.9299 O.3        1 <1>        0.000
      4 P2         -5.0656   -2.8198   -2.0471 P.3        1 <1>        0.000
      5 O3         -5.9578   -3.8123   -1.4953 O.2        1 <1>        0.000
      6 O4         -4.2306   -3.3729   -3.2242 O.3        1 <1>        0.000
      7 O7         -5.8988   -1.5742   -2.6391 O.3        1 <1>        0.000
      8 O8         -4.9107    0.1932   -0.9030 O.3        1 <1>        0.000
      9 P3         -4.0419    1.4594   -0.6892 P.3        1 <1>        0.000
     10 O9         -4.5096    2.6403   -1.3740 O.2        1 <1>        0.000
     11 O10        -2.5348    1.0811   -1.0578 O.3        1 <1>        0.000
     12 O11        -4.0049    1.6663    0.8948 O.3        1 <1>        0.000
     13 O12        -6.0777   -1.5593    0.5773 O.3        1 <1>        0.000
     14 H          -3.6541   -2.6819   -3.5586 H.spc      1 <1>        0.000
     15 H          -5.2898   -0.9262   -3.0007 H.spc      1 <1>        0.000
     16 H          -2.2773    0.2916   -0.5761 H.spc      1 <1>        0.000
     17 H          -3.6897    0.8623    1.3141 H.spc      1 <1>        0.000
     18 H          -6.6613   -1.8050   -0.1443 H.spc      1 <1>        0.000
@<TRIPOS>BOND
     1    9   12 1  
     2    8    9 1  
     3    9   11 1  
     4    9   10 2  
     5    1    2 2  
     6    1    3 1  
     7    1    8 1  
     8    1   13 1  
     9    3    4 1  
    10    4    5 2  
    11    4    6 1  
    12    4    7 1  
    13    6   14 1  
    14    7   15 1  
    15   11   16 1  
    16   12   17 1  
    17   13   18 1  
# Name:          frag3-112-79/31924
# Creation time: Sat Jun  5 12:52:01 2010


@<TRIPOS>MOLECULE
frag3-112-79/31924
   18    17     1     1     1
SMALL
USER_CHARGES


@<TRIPOS>ATOM
      1 P1         -4.9219   -1.1156    0.1829 P.3        1 <1>        0.000
      2 O1         -5.4079   -0.6516    1.4587 O.2        1 <1>        0.000
      3 O2         -4.7443    0.1300   -0.7787 O.3        1 <1>        0.000
      4 P2         -3.4563    1.0148   -0.7392 P.3        1 <1>        0.000
      5 O3         -2.3030    0.1523   -0.9129 O.2        1 <1>        0.000
      6 O4         -3.4312    1.6388    0.7105 O.3        1 <1>        0.000
      7 O7         -3.5153    2.1980   -1.7560 O.3        1 <1>        0.000
      8 O8         -5.7982   -2.1530   -0.5284 O.3        1 <1>        0.000
      9 P3         -5.6783   -2.3921   -2.0637 P.3        1 <1>        0.000
     10 O9         -4.2798   -2.6138   -2.3902 O.2        1 <1>        0.000
     11 O10        -6.2362   -1.0806   -2.7999 O.3        1 <1>        0.000
     12 O11        -6.6139   -3.5460   -2.5383 O.3        1 <1>        0.000
     13 O12        -3.4321   -1.6993    0.2876 O.3        1 <1>        0.000
     14 H          -4.1945    2.2096    0.8252 H.spc      1 <1>        0.000
     15 H          -4.2988    2.7260   -1.5858 H.spc      1 <1>        0.000
     16 H          -7.1597   -0.9544   -2.5700 H.spc      1 <1>        0.000
     17 H          -7.5199   -3.3424   -2.2949 H.spc      1 <1>        0.000
     18 H          -3.1447   -1.9970   -0.5786 H.spc      1 <1>        0.000
@<TRIPOS>BOND
     1    9   12 1  
     2    8    9 1  
     3    9   11 1  
     4    9   10 2  
     5    1    2 2  
     6    1    3 1  
     7    1    8 1  
     8    1   13 1  
     9    3    4 1  
    10    4    5 2  
    11    4    6 1  
    12    4    7 1  
    13    6   14 1  
    14    7   15 1  
    15   11   16 1  
    16   12   17 1  
    17   13   18 1  
# Name:          frag3-112-79/31924
# Creation time: Sat Jun  5 12:52:01 2010


@<TRIPOS>MOLECULE
frag3-112-79/31924
   18    17     1     1     1
SMALL
USER_CHARGES


@<TRIPOS>ATOM
      1 P1         -4.8560   -1.1861    0.1720 P.3        1 <1>        0.000
      2 O1         -5.2212   -0.8352    1.5218 O.2        1 <1>        0.000
      3 O2         -4.7567    0.1272   -0.6970 O.3        1 <1>        0.000
      4 P2         -3.4768    1.0183   -0.7025 P.3        1 <1>        0.000
      5 O3         -2.3399    0.1810   -1.0421 O.2        1 <1>        0.000
      6 O4         -3.3233    1.5256    0.7857 O.3        1 <1>        0.000
      7 O7         -3.6212    2.2800   -1.6085 O.3        1 <1>        0.000
      8 O8         -5.7920   -2.1729   -0.5408 O.3        1 <1>        0.000
      9 P3         -5.8303   -2.2635   -2.1008 P.3        1 <1>        0.000
     10 O9         -6.3399   -1.0135   -2.6336 O.2        1 <1>        0.000
     11 O10        -6.6045   -3.5277   -2.5887 O.3        1 <1>        0.000
     12 O11        -4.3005   -2.4787   -2.5313 O.3        1 <1>        0.000
     13 O12        -3.3561   -1.7727    0.0984 O.3        1 <1>        0.000
     14 H          -4.0738    2.0795    1.0128 H.spc      1 <1>        0.000
     15 H          -4.3884    2.7859   -1.3308 H.spc      1 <1>        0.000
     16 H          -6.2131   -4.3121   -2.1973 H.spc      1 <1>        0.000
     17 H          -3.9814   -3.3091   -2.1703 H.spc      1 <1>        0.000
     18 H          -3.1452   -1.9957   -0.8112 H.spc      1 <1>        0.000
@<TRIPOS>BOND
     1    9   12 1  
     2    8    9 1  
     3    9   11 1  
     4    9   10 2  
     5    1    2 2  
     6    1    3 1  
     7    1    8 1  
     8    1   13 1  
     9    3    4 1  
    10    4    5 2  
    11    4    6 1  
    12    4    7 1  
    13    6   14 1  
    14    7   15 1  
    15   11   16 1  
    16   12   17 1  
    17   13   18 1  
# Name:          frag3-112-79/31924
# Creation time: Sat Jun  5 12:52:01 2010


@<TRIPOS>MOLECULE
frag3-112-79/31924
   18    17     1     1     1
SMALL
USER_CHARGES


@<TRIPOS>ATOM
      1 P1         -4.3289   -1.4073    0.3244 P.3        1 <1>        0.000
      2 O1         -5.2075   -2.0997    1.2225 O.2        1 <1>        0.000
      3 O2         -4.8352    0.0393   -0.0428 O.3        1 <1>        0.000
      4 P2         -3.9656    0.9972   -0.9189 P.3        1 <1>        0.000
      5 O3         -3.5768    0.2971   -2.1332 O.2        1 <1>        0.000
      6 O4         -2.6648    1.2819   -0.0629 O.3        1 <1>        0.000
      7 O7         -4.6473    2.3729   -1.1840 O.3        1 <1>        0.000
      8 O8         -4.2998   -2.1531   -1.0580 O.3        1 <1>        0.000
      9 P3         -5.5612   -2.1447   -1.9772 P.3        1 <1>        0.000
     10 O9         -6.6368   -2.8448   -1.3156 O.2        1 <1>        0.000
     11 O10        -5.2853   -2.6324   -3.4373 O.3        1 <1>        0.000
     12 O11        -5.9510   -0.5888   -2.1609 O.3        1 <1>        0.000
     13 O12        -2.8582   -1.2359    0.8764 O.3        1 <1>        0.000
     14 H          -2.9079    1.7443    0.7425 H.spc      1 <1>        0.000
     15 H          -4.8780    2.7811   -0.3463 H.spc      1 <1>        0.000
     16 H          -4.5616   -2.1247   -3.8117 H.spc      1 <1>        0.000
     17 H          -5.2319   -0.1297   -2.6011 H.spc      1 <1>        0.000
     18 H          -2.3271   -0.7670    0.2286 H.spc      1 <1>        0.000
@<TRIPOS>BOND
     1    9   12 1  
     2    8    9 1  
     3    9   11 1  
     4    9   10 2  
     5    1    2 2  
     6    1    3 1  
     7    1    8 1  
     8    1   13 1  
     9    3    4 1  
    10    4    5 2  
    11    4    6 1  
    12    4    7 1  
    13    6   14 1  
    14    7   15 1  
    15   11   16 1  
    16   12   17 1  
    17   13   18 1  
# Name:          frag3-112-79/31924
# Creation time: Sat Jun  5 12:52:01 2010


@<TRIPOS>MOLECULE
frag3-112-79/31924
   18    17     1     1     1
SMALL
USER_CHARGES


@<TRIPOS>ATOM
      1 P1         -4.2644   -1.0561   -0.8259 P.3        1 <1>        0.000
      2 O1         -5.5388   -0.4864   -0.3188 O.2        1 <1>        0.000
      3 O2         -3.3768    0.1246   -1.2667 O.3        1 <1>        0.000
      4 P2         -3.1977    1.3708   -0.3536 P.3        1 <1>        0.000
      5 O3         -2.5176    0.9853    0.8658 O.2        1 <1>        0.000
      6 O4         -4.6702    1.8461    0.0050 O.3        1 <1>        0.000
      7 O7         -2.5288    2.5757   -1.0946 O.3        1 <1>        0.000
      8 O8         -4.6568   -2.0594   -1.9381 O.3        1 <1>        0.000
      9 P3         -6.0309   -2.7817   -1.9105 P.3        1 <1>        0.000
     10 O9         -6.1278   -3.9055   -2.8195 O.2        1 <1>        0.000
     11 O10        -7.1505   -1.6750   -2.1668 O.3        1 <1>        0.000
     12 O11        -6.2392   -3.2259   -0.3901 O.3        1 <1>        0.000
     13 O12        -3.5189   -1.8307    0.3463 O.3        1 <1>        0.000
     14 H          -5.1270    2.1033   -0.7992 H.spc      1 <1>        0.000
     15 H          -3.0274    2.7776   -1.8897 H.spc      1 <1>        0.000
     16 H          -7.0389   -0.9572   -1.5391 H.spc      1 <1>        0.000
     17 H          -6.1681   -2.4564    0.1795 H.spc      1 <1>        0.000
     18 H          -2.6962   -2.1969    0.0137 H.spc      1 <1>        0.000
@<TRIPOS>BOND
     1    9   12 1  
     2    8    9 1  
     3    9   11 1  
     4    9   10 2  
     5    1    2 2  
     6    1    3 1  
     7    1    8 1  
     8    1   13 1  
     9    3    4 1  
    10    4    5 2  
    11    4    6 1  
    12    4    7 1  
    13    6   14 1  
    14    7   15 1  
    15   11   16 1  
    16   12   17 1  
    17   13   18 1  
# Name:          frag3-112-79/31924
# Creation time: Sat Jun  5 12:52:01 2010


@<TRIPOS>MOLECULE
frag3-112-79/31924
   18    17     1     1     1
SMALL
USER_CHARGES


@<TRIPOS>ATOM
      1 P1         -3.9098   -1.3432   -0.2029 P.3        1 <1>        0.000
      2 O1         -2.5072   -1.6280   -0.3033 O.2        1 <1>        0.000
      3 O2         -4.5931   -1.3148   -1.6319 O.3        1 <1>        0.000
      4 P2         -5.8102   -2.2327   -1.9711 P.3        1 <1>        0.000
      5 O3         -6.8588   -1.9669   -1.0082 O.2        1 <1>        0.000
      6 O4         -5.2708   -3.7067   -1.7418 O.3        1 <1>        0.000
      7 O7         -6.2478   -2.1181   -3.4570 O.3        1 <1>        0.000
      8 O8         -4.1533    0.0467    0.4276 O.3        1 <1>        0.000
      9 P3         -3.9330    1.3238   -0.4360 P.3        1 <1>        0.000
     10 O9         -3.0229    0.9766   -1.5100 O.2        1 <1>        0.000
     11 O10        -3.4479    2.5519    0.4089 O.3        1 <1>        0.000
     12 O11        -5.3499    1.7673   -1.0196 O.3        1 <1>        0.000
     13 O12        -4.7136   -2.4741    0.5777 O.3        1 <1>        0.000
     14 H          -4.5744   -3.8936   -2.3756 H.spc      1 <1>        0.000
     15 H          -5.4982   -2.3083   -4.0258 H.spc      1 <1>        0.000
     16 H          -4.0868    2.7347    1.1017 H.spc      1 <1>        0.000
     17 H          -5.9371    1.9927   -0.2943 H.spc      1 <1>        0.000
     18 H          -5.6427   -2.2358    0.6165 H.spc      1 <1>        0.000
@<TRIPOS>BOND
     1    9   12 1  
     2    8    9 1  
     3    9   11 1  
     4    9   10 2  
     5    1    2 2  
     6    1    3 1  
     7    1    8 1  
     8    1   13 1  
     9    3    4 1  
    10    4    5 2  
    11    4    6 1  
    12    4    7 1  
    13    6   14 1  
    14    7   15 1  
    15   11   16 1  
    16   12   17 1  
    17   13   18 1  
# Name:          frag3-112-79/31924
# Creation time: Sat Jun  5 12:52:01 2010


@<TRIPOS>MOLECULE
frag3-112-79/31924
   18    17     1     1     1
SMALL
USER_CHARGES


@<TRIPOS>ATOM
      1 P1         -4.5580   -1.1446   -0.0223 P.3        1 <1>        0.000
      2 O1         -4.7066   -0.3054    1.1554 O.2        1 <1>        0.000
      3 O2         -4.0111   -0.1839   -1.1719 O.3        1 <1>        0.000
      4 P2         -3.5207    1.2524   -0.8188 P.3        1 <1>        0.000
      5 O3         -3.0066    2.0025   -1.9339 O.2        1 <1>        0.000
      6 O4         -2.4085    1.0609    0.2881 O.3        1 <1>        0.000
      7 O7         -4.7307    1.9908   -0.0835 O.3        1 <1>        0.000
      8 O8         -5.8747   -1.7849   -0.5199 O.3        1 <1>        0.000
      9 P3         -5.9218   -2.5602   -1.8763 P.3        1 <1>        0.000
     10 O9         -6.0680   -3.9849   -1.6777 O.2        1 <1>        0.000
     11 O10        -4.5059   -2.2257   -2.5915 O.3        1 <1>        0.000
     12 O11        -7.0077   -1.9320   -2.8106 O.3        1 <1>        0.000
     13 O12        -3.4981   -2.3033    0.1955 O.3        1 <1>        0.000
     14 H          -2.7716    0.5590    1.0215 H.spc      1 <1>        0.000
     15 H          -5.0356    1.4510    0.6495 H.spc      1 <1>        0.000
     16 H          -4.4272   -1.2769   -2.7147 H.spc      1 <1>        0.000
     17 H          -6.8482   -0.9892   -2.8959 H.spc      1 <1>        0.000
     18 H          -3.4328   -2.8302   -0.6043 H.spc      1 <1>        0.000
@<TRIPOS>BOND
     1    9   12 1  
     2    8    9 1  
     3    9   11 1  
     4    9   10 2  
     5    1    2 2  
     6    1    3 1  
     7    1    8 1  
     8    1   13 1  
     9    3    4 1  
    10    4    5 2  
    11    4    6 1  
    12    4    7 1  
    13    6   14 1  
    14    7   15 1  
    15   11   16 1  
    16   12   17 1  
    17   13   18 1  
# Name:          frag3-112-79/31924
# Creation time: Sat Jun  5 12:52:01 2010


@<TRIPOS>MOLECULE
frag3-112-79/31924
   18    17     1     1     1
SMALL
USER_CHARGES


@<TRIPOS>ATOM
      1 P1         -4.7815   -1.0401    0.0459 P.3        1 <1>        0.000
      2 O1         -4.8104   -2.1743    0.9279 O.2        1 <1>        0.000
      3 O2         -4.3784   -1.5404   -1.3875 O.3        1 <1>        0.000
      4 P2         -5.1782   -2.6745   -2.0933 P.3        1 <1>        0.000
      5 O3         -4.7895   -3.9569   -1.5675 O.2        1 <1>        0.000
      6 O4         -5.0093   -2.6088   -3.6338 O.3        1 <1>        0.000
      7 O7         -6.7253   -2.3618   -1.8087 O.3        1 <1>        0.000
      8 O8         -3.8540    0.1072    0.4719 O.3        1 <1>        0.000
      9 P3         -3.6083    1.3308   -0.4650 P.3        1 <1>        0.000
     10 O9         -4.7329    1.3768   -1.3978 O.2        1 <1>        0.000
     11 O10        -2.2270    1.1478   -1.2149 O.3        1 <1>        0.000
     12 O11        -3.4800    2.6479    0.3665 O.3        1 <1>        0.000
     13 O12        -6.2436   -0.3719   -0.1111 O.3        1 <1>        0.000
     14 H          -5.2773   -1.7419   -3.9473 H.spc      1 <1>        0.000
     15 H          -6.9488   -1.5017   -2.1719 H.spc      1 <1>        0.000
     16 H          -1.5155    1.1223   -0.5709 H.spc      1 <1>        0.000
     17 H          -2.7322    2.5761    0.9642 H.spc      1 <1>        0.000
     18 H          -6.1883    0.3804   -0.7049 H.spc      1 <1>        0.000
@<TRIPOS>BOND
     1    9   12 1  
     2    8    9 1  
     3    9   11 1  
     4    9   10 2  
     5    1    2 2  
     6    1    3 1  
     7    1    8 1  
     8    1   13 1  
     9    3    4 1  
    10    4    5 2  
    11    4    6 1  
    12    4    7 1  
    13    6   14 1  
    14    7   15 1  
    15   11   16 1  
    16   12   17 1  
    17   13   18 1  
# Name:          frag3-112-79/31924
# Creation time: Sat Jun  5 12:52:01 2010


@<TRIPOS>MOLECULE
frag3-112-79/31924
   18    17     1     1     1
SMALL
USER_CHARGES


@<TRIPOS>ATOM
      1 P1         -4.4323   -1.2084    0.2072 P.3        1 <1>        0.000
      2 O1         -4.4102   -2.0842    1.3479 O.2        1 <1>        0.000
      3 O2         -4.1284   -1.9981   -1.1130 O.3        1 <1>        0.000
      4 P2         -5.2707   -2.5533   -2.0275 P.3        1 <1>        0.000
      5 O3         -6.0295   -3.5354   -1.2869 O.2        1 <1>        0.000
      6 O4         -4.7300   -3.1198   -3.3590 O.3        1 <1>        0.000
      7 O7         -6.1839   -1.2736   -2.3926 O.3        1 <1>        0.000
      8 O8         -3.5335    0.0368    0.2947 O.3        1 <1>        0.000
      9 P3         -3.7367    1.2467   -0.6724 P.3        1 <1>        0.000
     10 O9         -4.4248    0.7372   -1.8639 O.2        1 <1>        0.000
     11 O10        -2.3781    1.9541   -1.0144 O.3        1 <1>        0.000
     12 O11        -4.6214    2.3291    0.0686 O.3        1 <1>        0.000
     13 O12        -5.9390   -0.6494   -0.0562 O.3        1 <1>        0.000
     14 H          -4.2340   -2.4378   -3.8177 H.spc      1 <1>        0.000
     15 H          -5.6590   -0.6368   -2.8832 H.spc      1 <1>        0.000
     16 H          -1.9693    2.2681   -0.2045 H.spc      1 <1>        0.000
     17 H          -4.1527    2.6480    0.8433 H.spc      1 <1>        0.000
     18 H          -5.9343   -0.0677   -0.8199 H.spc      1 <1>        0.000
@<TRIPOS>BOND
     1    9   12 1  
     2    8    9 1  
     3    9   11 1  
     4    9   10 2  
     5    1    2 2  
     6    1    3 1  
     7    1    8 1  
     8    1   13 1  
     9    3    4 1  
    10    4    5 2  
    11    4    6 1  
    12    4    7 1  
    13    6   14 1  
    14    7   15 1  
    15   11   16 1  
    16   12   17 1  
    17   13   18 1  
# Name:          frag3-112-79/31924
# Creation time: Sat Jun  5 12:52:01 2010


@<TRIPOS>MOLECULE
frag3-112-79/31924
   18    17     1     1     1
SMALL
USER_CHARGES


@<TRIPOS>ATOM
      1 P1         -4.7958   -1.0628    0.0564 P.3        1 <1>        0.000
      2 O1         -4.9342   -0.7385    1.4581 O.2        1 <1>        0.000
      3 O2         -4.8755    0.2683   -0.7866 O.3        1 <1>        0.000
      4 P2         -3.7516    1.3415   -0.7330 P.3        1 <1>        0.000
      5 O3         -3.7116    2.2412   -1.8627 O.2        1 <1>        0.000
      6 O4         -2.3937    0.5120   -0.6659 O.3        1 <1>        0.000
      7 O7         -3.8529    2.0867    0.6642 O.3        1 <1>        0.000
      8 O8         -5.7672   -2.1082   -0.4940 O.3        1 <1>        0.000
      9 P3         -5.6351   -2.5976   -1.9713 P.3        1 <1>        0.000
     10 O9         -4.6544   -1.7345   -2.6292 O.2        1 <1>        0.000
     11 O10        -7.0195   -2.6127   -2.7132 O.3        1 <1>        0.000
     12 O11        -5.1349   -4.0993   -1.9531 O.3        1 <1>        0.000
     13 O12        -3.2920   -1.6141   -0.2373 O.3        1 <1>        0.000
     14 H          -2.4217   -0.0853    0.0851 H.spc      1 <1>        0.000
     15 H          -3.8755    1.4374    1.3710 H.spc      1 <1>        0.000
     16 H          -7.6260   -3.1908   -2.2447 H.spc      1 <1>        0.000
     17 H          -5.7910   -4.6487   -1.5181 H.spc      1 <1>        0.000
     18 H          -3.2070   -1.8275   -1.1694 H.spc      1 <1>        0.000
@<TRIPOS>BOND
     1    9   12 1  
     2    8    9 1  
     3    9   11 1  
     4    9   10 2  
     5    1    2 2  
     6    1    3 1  
     7    1    8 1  
     8    1   13 1  
     9    3    4 1  
    10    4    5 2  
    11    4    6 1  
    12    4    7 1  
    13    6   14 1  
    14    7   15 1  
    15   11   16 1  
    16   12   17 1  
    17   13   18 1  
# Name:          frag3-112-79/31924
# Creation time: Sat Jun  5 12:52:01 2010


@<TRIPOS>MOLECULE
frag3-112-79/31924
   18    17     1     1     1
SMALL
USER_CHARGES


@<TRIPOS>ATOM
      1 P1         -4.3300   -1.1992   -0.0115 P.3        1 <1>        0.000
      2 O1         -3.1245   -1.7743   -0.6159 O.2        1 <1>        0.000
      3 O2         -5.4108   -1.1190   -1.1645 O.3        1 <1>        0.000
      4 P2         -5.7430   -2.3575   -2.0449 P.3        1 <1>        0.000
      5 O3         -6.6825   -2.1123   -3.1108 O.2        1 <1>        0.000
      6 O4         -6.3014   -3.4426   -1.0432 O.3        1 <1>        0.000
      7 O7         -4.3355   -2.8940   -2.5719 O.3        1 <1>        0.000
      8 O8         -4.0230    0.2154    0.5055 O.3        1 <1>        0.000
      9 P3         -3.7906    1.3726   -0.5207 P.3        1 <1>        0.000
     10 O9         -3.9123    0.7970   -1.8533 O.2        1 <1>        0.000
     11 O10        -2.3856    2.0410   -0.2819 O.3        1 <1>        0.000
     12 O11        -4.8699    2.4945   -0.2708 O.3        1 <1>        0.000
     13 O12        -4.9093   -2.1397    1.1164 O.3        1 <1>        0.000
     14 H          -5.6612   -3.5898   -0.3432 H.spc      1 <1>        0.000
     15 H          -3.7501   -3.0402   -1.8252 H.spc      1 <1>        0.000
     16 H          -2.3523    2.4049    0.6058 H.spc      1 <1>        0.000
     17 H          -4.7607    2.8506    0.6140 H.spc      1 <1>        0.000
     18 H          -5.6960   -1.7387    1.4931 H.spc      1 <1>        0.000
@<TRIPOS>BOND
     1    9   12 1  
     2    8    9 1  
     3    9   11 1  
     4    9   10 2  
     5    1    2 2  
     6    1    3 1  
     7    1    8 1  
     8    1   13 1  
     9    3    4 1  
    10    4    5 2  
    11    4    6 1  
    12    4    7 1  
    13    6   14 1  
    14    7   15 1  
    15   11   16 1  
    16   12   17 1  
    17   13   18 1  
# Name:          frag3-112-79/31924
# Creation time: Sat Jun  5 12:52:01 2010


@<TRIPOS>MOLECULE
frag3-112-79/31924
   18    17     1     1     1
SMALL
USER_CHARGES


@<TRIPOS>ATOM
      1 P1         -4.3056   -0.9990   -0.8333 P.3        1 <1>        0.000
      2 O1         -5.4697   -0.8545    0.0719 O.2        1 <1>        0.000
      3 O2         -4.0286    0.3792   -1.4931 O.3        1 <1>        0.000
      4 P2         -3.4394    1.5592   -0.6687 P.3        1 <1>        0.000
      5 O3         -2.9393    2.6544   -1.4605 O.2        1 <1>        0.000
      6 O4         -2.2517    0.9218    0.1786 O.3        1 <1>        0.000
      7 O7         -4.5265    2.0018    0.4043 O.3        1 <1>        0.000
      8 O8         -4.6310   -2.1383   -1.8227 O.3        1 <1>        0.000
      9 P3         -5.9546   -2.9334   -1.6871 P.3        1 <1>        0.000
     10 O9         -6.0604   -4.0707   -2.5730 O.2        1 <1>        0.000
     11 O10        -7.1568   -1.8927   -1.8673 O.3        1 <1>        0.000
     12 O11        -6.0454   -3.3708   -0.1493 O.3        1 <1>        0.000
     13 O12        -3.0095   -1.3752    0.0327 O.3        1 <1>        0.000
     14 H          -2.5901    0.1931    0.7040 H.spc      1 <1>        0.000
     15 H          -4.8195    1.2321    0.8976 H.spc      1 <1>        0.000
     16 H          -7.0384   -1.1601   -1.2583 H.spc      1 <1>        0.000
     17 H          -5.9717   -2.5929    0.4084 H.spc      1 <1>        0.000
     18 H          -2.2528   -1.4697   -0.5504 H.spc      1 <1>        0.000
@<TRIPOS>BOND
     1    9   12 1  
     2    8    9 1  
     3    9   11 1  
     4    9   10 2  
     5    1    2 2  
     6    1    3 1  
     7    1    8 1  
     8    1   13 1  
     9    3    4 1  
    10    4    5 2  
    11    4    6 1  
    12    4    7 1  
    13    6   14 1  
    14    7   15 1  
    15   11   16 1  
    16   12   17 1  
    17   13   18 1  
# Name:          frag3-112-79/31924
# Creation time: Sat Jun  5 12:52:01 2010


@<TRIPOS>MOLECULE
frag3-112-79/31924
   18    17     1     1     1
SMALL
USER_CHARGES


@<TRIPOS>ATOM
      1 P1         -4.5095   -1.1972   -0.0585 P.3        1 <1>        0.000
      2 O1         -5.6337   -0.3480   -0.5407 O.2        1 <1>        0.000
      3 O2         -3.2355   -0.3360   -0.2300 O.3        1 <1>        0.000
      4 P2         -3.3383    1.1811   -0.5643 P.3        1 <1>        0.000
      5 O3         -4.1715    1.3481   -1.7409 O.2        1 <1>        0.000
      6 O4         -1.9423    1.8216   -0.7726 O.3        1 <1>        0.000
      7 O7         -3.9793    1.8947    0.7161 O.3        1 <1>        0.000
      8 O8         -4.5192   -2.4494   -0.9807 O.3        1 <1>        0.000
      9 P3         -5.6239   -2.6488   -2.0508 P.3        1 <1>        0.000
     10 O9         -5.6044   -3.9477   -2.6982 O.2        1 <1>        0.000
     11 O10        -5.5144   -1.4421   -3.0872 O.3        1 <1>        0.000
     12 O11        -7.0109   -2.3884   -1.3011 O.3        1 <1>        0.000
     13 O12        -4.7356   -1.6062    1.4414 O.3        1 <1>        0.000
     14 H          -1.4130    1.6970    0.0186 H.spc      1 <1>        0.000
     15 H          -3.4048    1.7653    1.4743 H.spc      1 <1>        0.000
     16 H          -5.5317   -0.6093   -2.6100 H.spc      1 <1>        0.000
     17 H          -6.9909   -1.5236   -0.8848 H.spc      1 <1>        0.000
     18 H          -4.0035   -2.1524    1.7368 H.spc      1 <1>        0.000
@<TRIPOS>BOND
     1    9   12 1  
     2    8    9 1  
     3    9   11 1  
     4    9   10 2  
     5    1    2 2  
     6    1    3 1  
     7    1    8 1  
     8    1   13 1  
     9    3    4 1  
    10    4    5 2  
    11    4    6 1  
    12    4    7 1  
    13    6   14 1  
    14    7   15 1  
    15   11   16 1  
    16   12   17 1  
    17   13   18 1  
# Name:          frag3-112-79/31924
# Creation time: Sat Jun  5 12:52:01 2010


@<TRIPOS>MOLECULE
frag3-112-79/31924
   18    17     1     1     1
SMALL
USER_CHARGES


@<TRIPOS>ATOM
      1 P1         -4.7241   -1.2923    0.3293 P.3        1 <1>        0.000
      2 O1         -5.2977   -0.6334    1.4563 O.2        1 <1>        0.000
      3 O2         -3.5452   -0.4120   -0.2234 O.3        1 <1>        0.000
      4 P2         -3.8315    1.0645   -0.6334 P.3        1 <1>        0.000
      5 O3         -5.2021    1.3574   -0.2709 O.2        1 <1>        0.000
      6 O4         -3.6586    1.2273   -2.1802 O.3        1 <1>        0.000
      7 O7         -2.7985    2.0377    0.0532 O.3        1 <1>        0.000
      8 O8         -5.7139   -1.4018   -0.9007 O.3        1 <1>        0.000
      9 P3         -5.2632   -2.1239   -2.2123 P.3        1 <1>        0.000
     10 O9         -3.8223   -2.3165   -2.1126 O.2        1 <1>        0.000
     11 O10        -5.6873   -1.3286   -3.4943 O.3        1 <1>        0.000
     12 O11        -6.0078   -3.5195   -2.2977 O.3        1 <1>        0.000
     13 O12        -4.2660   -2.7771    0.6191 O.3        1 <1>        0.000
     14 H          -2.7499    1.0333   -2.4217 H.spc      1 <1>        0.000
     15 H          -1.9086    1.8017   -0.2190 H.spc      1 <1>        0.000
     16 H          -6.6423   -1.2318   -3.5081 H.spc      1 <1>        0.000
     17 H          -6.9542   -3.3725   -2.3627 H.spc      1 <1>        0.000
     18 H          -3.8916   -3.1568   -0.1791 H.spc      1 <1>        0.000
@<TRIPOS>BOND
     1    9   12 1  
     2    8    9 1  
     3    9   11 1  
     4    9   10 2  
     5    1    2 2  
     6    1    3 1  
     7    1    8 1  
     8    1   13 1  
     9    3    4 1  
    10    4    5 2  
    11    4    6 1  
    12    4    7 1  
    13    6   14 1  
    14    7   15 1  
    15   11   16 1  
    16   12   17 1  
    17   13   18 1  
# Name:          frag3-112-79/31924
# Creation time: Sat Jun  5 12:52:01 2010


@<TRIPOS>MOLECULE
frag3-112-79/31924
   18    17     1     1     1
SMALL
USER_CHARGES


@<TRIPOS>ATOM
      1 P1         -4.6339   -0.9350   -0.4188 P.3        1 <1>        0.000
      2 O1         -4.8699   -0.3842    0.9110 O.2        1 <1>        0.000
      3 O2         -3.8948    0.1688   -1.2491 O.3        1 <1>        0.000
      4 P2         -3.3524    1.4416   -0.5287 P.3        1 <1>        0.000
      5 O3         -2.6578    2.3648   -1.3889 O.2        1 <1>        0.000
      6 O4         -2.3937    0.9105    0.6112 O.3        1 <1>        0.000
      7 O7         -4.5998    2.1070    0.2171 O.3        1 <1>        0.000
      8 O8         -5.9341   -1.3977   -1.1147 O.3        1 <1>        0.000
      9 P3         -5.9757   -2.7494   -1.8978 P.3        1 <1>        0.000
     10 O9         -5.7125   -3.8362   -0.9726 O.2        1 <1>        0.000
     11 O10        -4.7935   -2.6554   -2.9964 O.3        1 <1>        0.000
     12 O11        -7.2921   -2.9160   -2.7022 O.3        1 <1>        0.000
     13 O12        -3.7082   -2.2369   -0.3376 O.3        1 <1>        0.000
     14 H          -2.8745    0.2979    1.1725 H.spc      1 <1>        0.000
     15 H          -5.0248    1.4512    0.7747 H.spc      1 <1>        0.000
     16 H          -4.9779   -1.9340   -3.6023 H.spc      1 <1>        0.000
     17 H          -7.4029   -2.1661   -3.2912 H.spc      1 <1>        0.000
     18 H          -3.5658   -2.5825   -1.2218 H.spc      1 <1>        0.000
@<TRIPOS>BOND
     1    9   12 1  
     2    8    9 1  
     3    9   11 1  
     4    9   10 2  
     5    1    2 2  
     6    1    3 1  
     7    1    8 1  
     8    1   13 1  
     9    3    4 1  
    10    4    5 2  
    11    4    6 1  
    12    4    7 1  
    13    6   14 1  
    14    7   15 1  
    15   11   16 1  
    16   12   17 1  
    17   13   18 1  
# Name:          frag3-112-79/31924
# Creation time: Sat Jun  5 12:52:01 2010


@<TRIPOS>MOLECULE
frag3-112-79/31924
   18    17     1     1     1
SMALL
USER_CHARGES


@<TRIPOS>ATOM
      1 P1         -4.3347   -1.2132   -0.0308 P.3        1 <1>        0.000
      2 O1         -5.5260   -0.8416    0.7155 O.2        1 <1>        0.000
      3 O2         -3.2759   -0.1076    0.1257 O.3        1 <1>        0.000
      4 P2         -3.4343    1.2594   -0.5947 P.3        1 <1>        0.000
      5 O3         -3.4000    1.0648   -2.0214 O.2        1 <1>        0.000
      6 O4         -2.3918    2.2953   -0.1312 O.3        1 <1>        0.000
      7 O7         -4.8636    1.8264   -0.1205 O.3        1 <1>        0.000
      8 O8         -4.7455   -1.3143   -1.5423 O.3        1 <1>        0.000
      9 P3         -5.7624   -2.3887   -2.0191 P.3        1 <1>        0.000
     10 O9         -5.9085   -3.3279   -0.9247 O.2        1 <1>        0.000
     11 O10        -5.2851   -3.0791   -3.3496 O.3        1 <1>        0.000
     12 O11        -7.1236   -1.6718   -2.3609 O.3        1 <1>        0.000
     13 O12        -3.7671   -2.6198    0.3863 O.3        1 <1>        0.000
     14 H          -2.4453    2.3971    0.8219 H.spc      1 <1>        0.000
     15 H          -4.8589    1.9465    0.8319 H.spc      1 <1>        0.000
     16 H          -5.2040   -2.4177   -4.0407 H.spc      1 <1>        0.000
     17 H          -6.9878   -1.0596   -3.0878 H.spc      1 <1>        0.000
     18 H          -2.9847   -2.8151   -0.1345 H.spc      1 <1>        0.000
@<TRIPOS>BOND
     1    9   12 1  
     2    8    9 1  
     3    9   11 1  
     4    9   10 2  
     5    1    2 2  
     6    1    3 1  
     7    1    8 1  
     8    1   13 1  
     9    3    4 1  
    10    4    5 2  
    11    4    6 1  
    12    4    7 1  
    13    6   14 1  
    14    7   15 1  
    15   11   16 1  
    16   12   17 1  
    17   13   18 1  
# Name:          frag3-112-79/31924
# Creation time: Sat Jun  5 12:52:01 2010


@<TRIPOS>MOLECULE
frag3-112-79/31924
   18    17     1     1     1
SMALL
USER_CHARGES


@<TRIPOS>ATOM
      1 P1         -4.3632   -1.3693    0.2635 P.3        1 <1>        0.000
      2 O1         -3.3704   -2.0756   -0.5415 O.2        1 <1>        0.000
      3 O2         -5.6349   -1.2474   -0.6644 O.3        1 <1>        0.000
      4 P2         -5.7686   -2.0690   -1.9902 P.3        1 <1>        0.000
      5 O3         -6.0917   -3.4338   -1.6717 O.2        1 <1>        0.000
      6 O4         -4.3237   -2.0138   -2.6435 O.3        1 <1>        0.000
      7 O7         -6.7277   -1.3907   -3.0177 O.3        1 <1>        0.000
      8 O8         -3.8270    0.0645    0.4948 O.3        1 <1>        0.000
      9 P3         -3.7469    1.1012   -0.6662 P.3        1 <1>        0.000
     10 O9         -3.8816    0.3543   -1.9104 O.2        1 <1>        0.000
     11 O10        -2.4285    1.9398   -0.5922 O.3        1 <1>        0.000
     12 O11        -4.9313    2.1356   -0.4992 O.3        1 <1>        0.000
     13 O12        -4.7229   -2.1139    1.5710 O.3        1 <1>        0.000
     14 H          -4.1050   -1.1038   -2.8573 H.spc      1 <1>        0.000
     15 H          -6.4418   -0.4874   -3.1726 H.spc      1 <1>        0.000
     16 H          -2.3949    2.4079    0.2453 H.spc      1 <1>        0.000
     17 H          -4.8221    2.6150    0.3253 H.spc      1 <1>        0.000
     18 H          -5.3765   -1.6063    2.0576 H.spc      1 <1>        0.000
@<TRIPOS>BOND
     1    9   12 1  
     2    8    9 1  
     3    9   11 1  
     4    9   10 2  
     5    1    2 2  
     6    1    3 1  
     7    1    8 1  
     8    1   13 1  
     9    3    4 1  
    10    4    5 2  
    11    4    6 1  
    12    4    7 1  
    13    6   14 1  
    14    7   15 1  
    15   11   16 1  
    16   12   17 1  
    17   13   18 1  
# Name:          frag3-112-79/31924
# Creation time: Sat Jun  5 12:52:01 2010


@<TRIPOS>MOLECULE
frag3-112-79/31924
   18    17     1     1     1
SMALL
USER_CHARGES


@<TRIPOS>ATOM
      1 P1         -4.6015   -0.8125   -0.8380 P.3        1 <1>        0.000
      2 O1         -5.7575   -0.0806   -1.3680 O.2        1 <1>        0.000
      3 O2         -5.0710   -2.2333   -0.4502 O.3        1 <1>        0.000
      4 P2         -5.8870   -3.1073   -1.4368 P.3        1 <1>        0.000
      5 O3         -6.3212   -4.3772   -0.9032 O.2        1 <1>        0.000
      6 O4         -4.9708   -3.3244   -2.7061 O.3        1 <1>        0.000
      7 O7         -7.1040   -2.2056   -1.9437 O.3        1 <1>        0.000
      8 O8         -3.9245    0.0198    0.2586 O.3        1 <1>        0.000
      9 P3         -3.3059    1.4143   -0.0759 P.3        1 <1>        0.000
     10 O9         -3.2194    1.5062   -1.5274 O.2        1 <1>        0.000
     11 O10        -1.8993    1.5619    0.6172 O.3        1 <1>        0.000
     12 O11        -4.2466    2.5245    0.5239 O.3        1 <1>        0.000
     13 O12        -3.5096   -1.0040   -2.0176 O.3        1 <1>        0.000
     14 H          -4.6916   -2.4717   -3.0474 H.spc      1 <1>        0.000
     15 H          -6.7646   -1.3760   -2.2876 H.spc      1 <1>        0.000
     16 H          -2.0043    1.4952    1.5691 H.spc      1 <1>        0.000
     17 H          -4.2791    2.4330    1.4790 H.spc      1 <1>        0.000
     18 H          -2.7511   -1.4826   -1.6753 H.spc      1 <1>        0.000
@<TRIPOS>BOND
     1    9   12 1  
     2    8    9 1  
     3    9   11 1  
     4    9   10 2  
     5    1    2 2  
     6    1    3 1  
     7    1    8 1  
     8    1   13 1  
     9    3    4 1  
    10    4    5 2  
    11    4    6 1  
    12    4    7 1  
    13    6   14 1  
    14    7   15 1  
    15   11   16 1  
    16   12   17 1  
    17   13   18 1  
# Name:          frag3-112-79/31924
# Creation time: Sat Jun  5 12:52:01 2010


@<TRIPOS>MOLECULE
frag3-112-79/31924
   18    17     1     1     1
SMALL
USER_CHARGES


@<TRIPOS>ATOM
      1 P1         -4.7279   -1.2724    0.3256 P.3        1 <1>        0.000
      2 O1         -3.5094   -1.9659   -0.1040 O.2        1 <1>        0.000
      3 O2         -5.6545   -1.2793   -0.9469 O.3        1 <1>        0.000
      4 P2         -5.3452   -2.1797   -2.1823 P.3        1 <1>        0.000
      5 O3         -5.1401   -3.5305   -1.7046 O.2        1 <1>        0.000
      6 O4         -3.9894   -1.6315   -2.7827 O.3        1 <1>        0.000
      7 O7         -6.4017   -2.0662   -3.3215 O.3        1 <1>        0.000
      8 O8         -4.3509    0.2006    0.6115 O.3        1 <1>        0.000
      9 P3         -3.9787    1.1989   -0.5157 P.3        1 <1>        0.000
     10 O9         -5.1727    1.6917   -1.1719 O.2        1 <1>        0.000
     11 O10        -3.0758    0.3711   -1.5625 O.3        1 <1>        0.000
     12 O11        -3.0243    2.3214   -0.0180 O.3        1 <1>        0.000
     13 O12        -5.4480   -1.9765    1.5056 O.3        1 <1>        0.000
     14 H          -4.1208   -0.7354   -3.1009 H.spc      1 <1>        0.000
     15 H          -6.4859   -1.1478   -3.5879 H.spc      1 <1>        0.000
     16 H          -2.2878    0.0490   -1.1189 H.spc      1 <1>        0.000
     17 H          -2.2587    1.9250    0.4042 H.spc      1 <1>        0.000
     18 H          -6.2345   -1.4792    1.7416 H.spc      1 <1>        0.000
@<TRIPOS>BOND
     1    9   12 1  
     2    8    9 1  
     3    9   11 1  
     4    9   10 2  
     5    1    2 2  
     6    1    3 1  
     7    1    8 1  
     8    1   13 1  
     9    3    4 1  
    10    4    5 2  
    11    4    6 1  
    12    4    7 1  
    13    6   14 1  
    14    7   15 1  
    15   11   16 1  
    16   12   17 1  
    17   13   18 1  
# Name:          frag3-112-79/31924
# Creation time: Sat Jun  5 12:52:01 2010


@<TRIPOS>MOLECULE
frag3-112-79/31924
   18    17     1     1     1
SMALL
USER_CHARGES


@<TRIPOS>ATOM
      1 P1         -4.3034   -1.2556   -0.0566 P.3        1 <1>        0.000
      2 O1         -3.4961   -1.1351   -1.3034 O.2        1 <1>        0.000
      3 O2         -5.5683   -2.0549   -0.4685 O.3        1 <1>        0.000
      4 P2         -5.7583   -2.5732   -1.9182 P.3        1 <1>        0.000
      5 O3         -7.0245   -3.2279   -2.1665 O.2        1 <1>        0.000
      6 O4         -4.5604   -3.5703   -2.1867 O.3        1 <1>        0.000
      7 O7         -5.5048   -1.3430   -2.9000 O.3        1 <1>        0.000
      8 O8         -4.6325    0.2002    0.3602 O.3        1 <1>        0.000
      9 P3         -4.0694    1.4276   -0.4246 P.3        1 <1>        0.000
     10 O9         -4.5789    1.3874   -1.7850 O.2        1 <1>        0.000
     11 O10        -2.4745    1.2478   -0.3929 O.3        1 <1>        0.000
     12 O11        -4.3705    2.7643    0.3155 O.3        1 <1>        0.000
     13 O12        -3.4768   -1.9856    1.0593 O.3        1 <1>        0.000
     14 H          -3.7284   -3.1220   -2.0179 H.spc      1 <1>        0.000
     15 H          -4.6561   -0.9428   -2.6972 H.spc      1 <1>        0.000
     16 H          -2.1681    1.2786    0.5164 H.spc      1 <1>        0.000
     17 H          -4.0090    2.7253    1.2040 H.spc      1 <1>        0.000
     18 H          -4.0086   -2.0560    1.8555 H.spc      1 <1>        0.000
@<TRIPOS>BOND
     1    9   12 1  
     2    8    9 1  
     3    9   11 1  
     4    9   10 2  
     5    1    2 2  
     6    1    3 1  
     7    1    8 1  
     8    1   13 1  
     9    3    4 1  
    10    4    5 2  
    11    4    6 1  
    12    4    7 1  
    13    6   14 1  
    14    7   15 1  
    15   11   16 1  
    16   12   17 1  
    17   13   18 1  
# Name:          frag3-112-79/31924
# Creation time: Sat Jun  5 12:52:01 2010


@<TRIPOS>MOLECULE
frag3-112-79/31924
   18    17     1     1     1
SMALL
USER_CHARGES


@<TRIPOS>ATOM
      1 P1         -4.7321   -1.0073   -0.1731 P.3        1 <1>        0.000
      2 O1         -5.9496   -0.2402    0.0424 O.2        1 <1>        0.000
      3 O2         -3.5311   -0.1381    0.2184 O.3        1 <1>        0.000
      4 P2         -3.4667    1.3458   -0.2600 P.3        1 <1>        0.000
      5 O3         -4.7059    1.6278   -0.9516 O.2        1 <1>        0.000
      6 O4         -2.2686    1.5052   -1.2477 O.3        1 <1>        0.000
      7 O7         -3.2174    2.2909    0.9692 O.3        1 <1>        0.000
      8 O8         -4.6502   -1.4031   -1.6936 O.3        1 <1>        0.000
      9 P3         -5.3819   -2.6706   -2.2318 P.3        1 <1>        0.000
     10 O9         -4.7143   -3.8473   -1.7262 O.2        1 <1>        0.000
     11 O10        -5.5629   -2.6416   -3.7818 O.3        1 <1>        0.000
     12 O11        -6.8650   -2.5525   -1.6312 O.3        1 <1>        0.000
     13 O12        -4.7727   -2.3873    0.5994 O.3        1 <1>        0.000
     14 H          -1.4479    1.3176   -0.7864 H.spc      1 <1>        0.000
     15 H          -2.3849    2.0581    1.3867 H.spc      1 <1>        0.000
     16 H          -6.0121   -1.8320   -4.0353 H.spc      1 <1>        0.000
     17 H          -7.2886   -1.7649   -1.9803 H.spc      1 <1>        0.000
     18 H          -3.9576   -2.8677    0.4371 H.spc      1 <1>        0.000
@<TRIPOS>BOND
     1    9   12 1  
     2    8    9 1  
     3    9   11 1  
     4    9   10 2  
     5    1    2 2  
     6    1    3 1  
     7    1    8 1  
     8    1   13 1  
     9    3    4 1  
    10    4    5 2  
    11    4    6 1  
    12    4    7 1  
    13    6   14 1  
    14    7   15 1  
    15   11   16 1  
    16   12   17 1  
    17   13   18 1  
# Name:          frag3-112-79/31924
# Creation time: Sat Jun  5 12:52:01 2010


@<TRIPOS>MOLECULE
frag3-112-79/31924
   18    17     1     1     1
SMALL
USER_CHARGES


@<TRIPOS>ATOM
      1 P1         -4.3869   -1.2437    0.2715 P.3        1 <1>        0.000
      2 O1         -5.0567   -1.5068    1.5202 O.2        1 <1>        0.000
      3 O2         -3.4536   -0.0158    0.3017 O.3        1 <1>        0.000
      4 P2         -3.5314    1.0844   -0.8016 P.3        1 <1>        0.000
      5 O3         -3.3342    0.4591   -2.0973 O.2        1 <1>        0.000
      6 O4         -2.5217    2.2257   -0.5556 O.3        1 <1>        0.000
      7 O7         -4.9923    1.7268   -0.6860 O.3        1 <1>        0.000
      8 O8         -5.4494   -0.9861   -0.8644 O.3        1 <1>        0.000
      9 P3         -5.8533   -2.0882   -1.8864 P.3        1 <1>        0.000
     10 O9         -6.3987   -3.2094   -1.1474 O.2        1 <1>        0.000
     11 O10        -4.4933   -2.5043   -2.6492 O.3        1 <1>        0.000
     12 O11        -6.7934   -1.5657   -3.0099 O.3        1 <1>        0.000
     13 O12        -3.5535   -2.4942   -0.2630 O.3        1 <1>        0.000
     14 H          -2.6828    2.6134    0.3077 H.spc      1 <1>        0.000
     15 H          -5.0949    2.1321    0.1782 H.spc      1 <1>        0.000
     16 H          -4.1527   -1.7464   -3.1301 H.spc      1 <1>        0.000
     17 H          -6.3748   -0.8271   -3.4581 H.spc      1 <1>        0.000
     18 H          -3.1303   -2.2640   -1.0933 H.spc      1 <1>        0.000
@<TRIPOS>BOND
     1    9   12 1  
     2    8    9 1  
     3    9   11 1  
     4    9   10 2  
     5    1    2 2  
     6    1    3 1  
     7    1    8 1  
     8    1   13 1  
     9    3    4 1  
    10    4    5 2  
    11    4    6 1  
    12    4    7 1  
    13    6   14 1  
    14    7   15 1  
    15   11   16 1  
    16   12   17 1  
    17   13   18 1  
# Name:          frag3-112-79/31924
# Creation time: Sat Jun  5 12:52:01 2010


@<TRIPOS>MOLECULE
frag3-112-79/31924
   18    17     1     1     1
SMALL
USER_CHARGES


@<TRIPOS>ATOM
      1 P1         -4.2670   -1.3903    0.2997 P.3        1 <1>        0.000
      2 O1         -5.6657   -1.1741    0.6566 O.2        1 <1>        0.000
      3 O2         -3.5324   -0.0298    0.3426 O.3        1 <1>        0.000
      4 P2         -3.5742    0.9695   -0.8452 P.3        1 <1>        0.000
      5 O3         -3.1845    0.2683   -2.0541 O.2        1 <1>        0.000
      6 O4         -2.6873    2.2083   -0.6049 O.3        1 <1>        0.000
      7 O7         -5.0808    1.4849   -0.9489 O.3        1 <1>        0.000
      8 O8         -4.3078   -1.8239   -1.2168 O.3        1 <1>        0.000
      9 P3         -5.6427   -2.0537   -1.9786 P.3        1 <1>        0.000
     10 O9         -6.2715   -3.2456   -1.4368 O.2        1 <1>        0.000
     11 O10        -5.4883   -2.0629   -3.5307 O.3        1 <1>        0.000
     12 O11        -6.5288   -0.7575   -1.6778 O.3        1 <1>        0.000
     13 O12        -3.5875   -2.5114    1.1275 O.3        1 <1>        0.000
     14 H          -2.9682    2.6504    0.1996 H.spc      1 <1>        0.000
     15 H          -5.3169    1.9449   -0.1400 H.spc      1 <1>        0.000
     16 H          -5.0673   -1.2480   -3.8141 H.spc      1 <1>        0.000
     17 H          -6.0955    0.0170   -2.0439 H.spc      1 <1>        0.000
     18 H          -2.6740   -2.6053    0.8478 H.spc      1 <1>        0.000
@<TRIPOS>BOND
     1    9   12 1  
     2    8    9 1  
     3    9   11 1  
     4    9   10 2  
     5    1    2 2  
     6    1    3 1  
     7    1    8 1  
     8    1   13 1  
     9    3    4 1  
    10    4    5 2  
    11    4    6 1  
    12    4    7 1  
    13    6   14 1  
    14    7   15 1  
    15   11   16 1  
    16   12   17 1  
    17   13   18 1  
# Name:          frag3-112-79/31924
# Creation time: Sat Jun  5 12:52:01 2010


@<TRIPOS>MOLECULE
frag3-112-79/31924
   18    17     1     1     1
SMALL
USER_CHARGES


@<TRIPOS>ATOM
      1 P1         -4.2188   -1.3136    0.3205 P.3        1 <1>        0.000
      2 O1         -3.8676   -2.1635    1.4308 O.2        1 <1>        0.000
      3 O2         -4.1340   -2.0601   -1.0513 O.3        1 <1>        0.000
      4 P2         -5.3957   -2.2807   -1.9633 P.3        1 <1>        0.000
      5 O3         -6.4256   -2.8965   -1.1493 O.2        1 <1>        0.000
      6 O4         -5.0652   -3.1255   -3.2084 O.3        1 <1>        0.000
      7 O7         -5.8460   -0.8144   -2.4246 O.3        1 <1>        0.000
      8 O8         -3.4253    0.0095    0.2111 O.3        1 <1>        0.000
      9 P3         -3.7549    1.0775   -0.8810 P.3        1 <1>        0.000
     10 O9         -3.5025    0.5101   -2.1987 O.2        1 <1>        0.000
     11 O10        -3.0702    2.4526   -0.6302 O.3        1 <1>        0.000
     12 O11        -5.3327    1.3514   -0.7173 O.3        1 <1>        0.000
     13 O12        -5.7800   -0.8652    0.3941 O.3        1 <1>        0.000
     14 H          -4.3817   -2.6861   -3.7196 H.spc      1 <1>        0.000
     15 H          -5.1535   -0.4223   -2.9616 H.spc      1 <1>        0.000
     16 H          -3.2832    2.7582    0.2546 H.spc      1 <1>        0.000
     17 H          -5.5031    1.7255    0.1502 H.spc      1 <1>        0.000
     18 H          -5.9856   -0.3016   -0.3553 H.spc      1 <1>        0.000
@<TRIPOS>BOND
     1    9   12 1  
     2    8    9 1  
     3    9   11 1  
     4    9   10 2  
     5    1    2 2  
     6    1    3 1  
     7    1    8 1  
     8    1   13 1  
     9    3    4 1  
    10    4    5 2  
    11    4    6 1  
    12    4    7 1  
    13    6   14 1  
    14    7   15 1  
    15   11   16 1  
    16   12   17 1  
    17   13   18 1  
# Name:          frag3-112-79/31924
# Creation time: Sat Jun  5 12:52:01 2010


@<TRIPOS>MOLECULE
frag3-112-79/31924
   18    17     1     1     1
SMALL
USER_CHARGES


@<TRIPOS>ATOM
      1 P1         -4.6223   -1.3056    0.3969 P.3        1 <1>        0.000
      2 O1         -4.9272   -0.4643    1.5355 O.2        1 <1>        0.000
      3 O2         -3.4272   -0.6341   -0.3892 O.3        1 <1>        0.000
      4 P2         -3.5206    0.8372   -0.8834 P.3        1 <1>        0.000
      5 O3         -2.3423    1.3481   -1.5305 O.2        1 <1>        0.000
      6 O4         -3.8895    1.6951    0.3838 O.3        1 <1>        0.000
      7 O7         -4.8220    0.9294   -1.8386 O.3        1 <1>        0.000
      8 O8         -5.8051   -1.3021   -0.6578 O.3        1 <1>        0.000
      9 P3         -5.6125   -1.9998   -2.0626 P.3        1 <1>        0.000
     10 O9         -5.4913   -3.4315   -1.8549 O.2        1 <1>        0.000
     11 O10        -4.2567   -1.3948   -2.6706 O.3        1 <1>        0.000
     12 O11        -6.7448   -1.5943   -3.0483 O.3        1 <1>        0.000
     13 O12        -4.3568   -2.8016    0.7524 O.3        1 <1>        0.000
     14 H          -4.6776    1.3332    0.7955 H.spc      1 <1>        0.000
     15 H          -5.5851    0.5800   -1.3725 H.spc      1 <1>        0.000
     16 H          -4.3592   -0.4490   -2.7995 H.spc      1 <1>        0.000
     17 H          -6.7646   -0.6385   -3.1354 H.spc      1 <1>        0.000
     18 H          -4.1631   -3.2907   -0.0507 H.spc      1 <1>        0.000
@<TRIPOS>BOND
     1    9   12 1  
     2    8    9 1  
     3    9   11 1  
     4    9   10 2  
     5    1    2 2  
     6    1    3 1  
     7    1    8 1  
     8    1   13 1  
     9    3    4 1  
    10    4    5 2  
    11    4    6 1  
    12    4    7 1  
    13    6   14 1  
    14    7   15 1  
    15   11   16 1  
    16   12   17 1  
    17   13   18 1  
# Name:          frag3-112-79/31924
# Creation time: Sat Jun  5 12:52:01 2010


@<TRIPOS>MOLECULE
frag3-112-79/31924
   18    17     1     1     1
SMALL
USER_CHARGES


@<TRIPOS>ATOM
      1 P1         -4.6168   -1.3720    0.3393 P.3        1 <1>        0.000
      2 O1         -5.6922   -1.9644    1.0793 O.2        1 <1>        0.000
      3 O2         -4.9537    0.0782   -0.1785 O.3        1 <1>        0.000
      4 P2         -3.8323    0.9843   -0.7655 P.3        1 <1>        0.000
      5 O3         -2.6300    0.1618   -0.8621 O.2        1 <1>        0.000
      6 O4         -3.5721    2.1870    0.1838 O.3        1 <1>        0.000
      7 O7         -4.2310    1.5862   -2.1721 O.3        1 <1>        0.000
      8 O8         -4.3729   -2.1943   -0.9784 O.3        1 <1>        0.000
      9 P3         -5.4352   -2.1759   -2.1260 P.3        1 <1>        0.000
     10 O9         -6.6648   -2.7467   -1.6337 O.2        1 <1>        0.000
     11 O10        -4.9075   -2.8125   -3.4501 O.3        1 <1>        0.000
     12 O11        -5.6363   -0.6140   -2.4635 O.3        1 <1>        0.000
     13 O12        -3.2737   -1.2360    1.1602 O.3        1 <1>        0.000
     14 H          -4.3658    2.7238    0.2433 H.spc      1 <1>        0.000
     15 H          -5.0228    2.1207   -2.0774 H.spc      1 <1>        0.000
     16 H          -4.0908   -2.3793   -3.7088 H.spc      1 <1>        0.000
     17 H          -4.8103   -0.2493   -2.7895 H.spc      1 <1>        0.000
     18 H          -2.6007   -0.8338    0.6062 H.spc      1 <1>        0.000
@<TRIPOS>BOND
     1    9   12 1  
     2    8    9 1  
     3    9   11 1  
     4    9   10 2  
     5    1    2 2  
     6    1    3 1  
     7    1    8 1  
     8    1   13 1  
     9    3    4 1  
    10    4    5 2  
    11    4    6 1  
    12    4    7 1  
    13    6   14 1  
    14    7   15 1  
    15   11   16 1  
    16   12   17 1  
    17   13   18 1  
# Name:          frag3-112-79/31924
# Creation time: Sat Jun  5 12:52:01 2010


@<TRIPOS>MOLECULE
frag3-112-79/31924
   18    17     1     1     1
SMALL
USER_CHARGES


@<TRIPOS>ATOM
      1 P1         -4.5987   -1.2541    0.0721 P.3        1 <1>        0.000
      2 O1         -5.7080   -1.4383    0.9659 O.2        1 <1>        0.000
      3 O2         -4.7402    0.1000   -0.7351 O.3        1 <1>        0.000
      4 P2         -3.6220    1.1909   -0.6984 P.3        1 <1>        0.000
      5 O3         -2.3726    0.5505   -1.0640 O.2        1 <1>        0.000
      6 O4         -3.5519    1.6471    0.8078 O.3        1 <1>        0.000
      7 O7         -3.9863    2.4209   -1.5771 O.3        1 <1>        0.000
      8 O8         -4.5438   -2.3952   -0.9715 O.3        1 <1>        0.000
      9 P3         -5.6468   -2.5045   -2.0668 P.3        1 <1>        0.000
     10 O9         -6.9216   -2.7306   -1.4352 O.2        1 <1>        0.000
     11 O10        -5.2838   -3.5349   -3.1841 O.3        1 <1>        0.000
     12 O11        -5.6291   -1.0753   -2.8121 O.3        1 <1>        0.000
     13 O12        -3.2137   -1.0948    0.8310 O.3        1 <1>        0.000
     14 H          -4.3780    2.0711    1.0513 H.spc      1 <1>        0.000
     15 H          -4.8204    2.7904   -1.2783 H.spc      1 <1>        0.000
     16 H          -4.4248   -3.3161   -3.5528 H.spc      1 <1>        0.000
     17 H          -4.7734   -0.9423   -3.2264 H.spc      1 <1>        0.000
     18 H          -2.5102   -0.9751    0.1889 H.spc      1 <1>        0.000
@<TRIPOS>BOND
     1    9   12 1  
     2    8    9 1  
     3    9   11 1  
     4    9   10 2  
     5    1    2 2  
     6    1    3 1  
     7    1    8 1  
     8    1   13 1  
     9    3    4 1  
    10    4    5 2  
    11    4    6 1  
    12    4    7 1  
    13    6   14 1  
    14    7   15 1  
    15   11   16 1  
    16   12   17 1  
    17   13   18 1  
# Name:          frag3-112-79/31924
# Creation time: Sat Jun  5 12:52:01 2010


@<TRIPOS>MOLECULE
frag3-112-79/31924
   18    17     1     1     1
SMALL
USER_CHARGES


@<TRIPOS>ATOM
      1 P1         -4.3285   -1.1085   -0.3977 P.3        1 <1>        0.000
      2 O1         -5.2918   -0.4023    0.4678 O.2        1 <1>        0.000
      3 O2         -3.0689   -0.2251   -0.5169 O.3        1 <1>        0.000
      4 P2         -3.1765    1.3167   -0.4398 P.3        1 <1>        0.000
      5 O3         -1.9199    2.0014   -0.2602 O.2        1 <1>        0.000
      6 O4         -4.1341    1.6146    0.7887 O.3        1 <1>        0.000
      7 O7         -3.9858    1.8122   -1.7214 O.3        1 <1>        0.000
      8 O8         -5.0244   -1.3159   -1.7901 O.3        1 <1>        0.000
      9 P3         -5.9502   -2.5564   -2.0468 P.3        1 <1>        0.000
     10 O9         -5.1292   -3.7554   -2.0642 O.2        1 <1>        0.000
     11 O10        -6.8798   -2.3882   -3.2811 O.3        1 <1>        0.000
     12 O11        -6.8940   -2.5533   -0.7479 O.3        1 <1>        0.000
     13 O12        -4.0352   -2.5579    0.1420 O.3        1 <1>        0.000
     14 H          -4.9677    1.1557    0.6618 H.spc      1 <1>        0.000
     15 H          -4.8089    1.3225   -1.7877 H.spc      1 <1>        0.000
     16 H          -7.3846   -1.5765   -3.1919 H.spc      1 <1>        0.000
     17 H          -7.4315   -1.7579   -0.7462 H.spc      1 <1>        0.000
     18 H          -3.4070   -2.9934   -0.4388 H.spc      1 <1>        0.000
@<TRIPOS>BOND
     1    9   12 1  
     2    8    9 1  
     3    9   11 1  
     4    9   10 2  
     5    1    2 2  
     6    1    3 1  
     7    1    8 1  
     8    1   13 1  
     9    3    4 1  
    10    4    5 2  
    11    4    6 1  
    12    4    7 1  
    13    6   14 1  
    14    7   15 1  
    15   11   16 1  
    16   12   17 1  
    17   13   18 1  
# Name:          frag3-112-79/31924
# Creation time: Sat Jun  5 12:52:01 2010


@<TRIPOS>MOLECULE
frag3-112-79/31924
   18    17     1     1     1
SMALL
USER_CHARGES


@<TRIPOS>ATOM
      1 P1         -4.1910   -1.2673    0.0132 P.3        1 <1>        0.000
      2 O1         -5.1609   -1.6242    1.0265 O.2        1 <1>        0.000
      3 O2         -3.4846    0.0678    0.2934 O.3        1 <1>        0.000
      4 P2         -3.3914    1.1837   -0.7957 P.3        1 <1>        0.000
      5 O3         -3.0504    0.5398   -2.0491 O.2        1 <1>        0.000
      6 O4         -2.3429    2.2457   -0.4075 O.3        1 <1>        0.000
      7 O7         -4.8250    1.8664   -0.8463 O.3        1 <1>        0.000
      8 O8         -5.0079   -1.1027   -1.3344 O.3        1 <1>        0.000
      9 P3         -6.0167   -2.1754   -1.8227 P.3        1 <1>        0.000
     10 O9         -5.2855   -3.3872   -2.1345 O.2        1 <1>        0.000
     11 O10        -6.9428   -1.6666   -2.9676 O.3        1 <1>        0.000
     12 O11        -6.9754   -2.3902   -0.5646 O.3        1 <1>        0.000
     13 O12        -3.1438   -2.4081   -0.2783 O.3        1 <1>        0.000
     14 H          -2.5950    2.6536    0.4242 H.spc      1 <1>        0.000
     15 H          -5.0114    2.2797   -0.0001 H.spc      1 <1>        0.000
     16 H          -7.3890   -0.8652   -2.6844 H.spc      1 <1>        0.000
     17 H          -7.4467   -1.5745   -0.3799 H.spc      1 <1>        0.000
     18 H          -2.5307   -2.1128   -0.9555 H.spc      1 <1>        0.000
@<TRIPOS>BOND
     1    9   12 1  
     2    8    9 1  
     3    9   11 1  
     4    9   10 2  
     5    1    2 2  
     6    1    3 1  
     7    1    8 1  
     8    1   13 1  
     9    3    4 1  
    10    4    5 2  
    11    4    6 1  
    12    4    7 1  
    13    6   14 1  
    14    7   15 1  
    15   11   16 1  
    16   12   17 1  
    17   13   18 1  
# Name:          frag3-112-79/31924
# Creation time: Sat Jun  5 12:52:01 2010


@<TRIPOS>MOLECULE
frag3-112-79/31924
   18    17     1     1     1
SMALL
USER_CHARGES


@<TRIPOS>ATOM
      1 P1         -4.6798   -0.9634   -0.4237 P.3        1 <1>        0.000
      2 O1         -5.6602   -0.3083   -1.3193 O.2        1 <1>        0.000
      3 O2         -3.3376   -0.2122   -0.5822 O.3        1 <1>        0.000
      4 P2         -3.2636    1.3234   -0.3341 P.3        1 <1>        0.000
      5 O3         -4.2649    1.9819   -1.1464 O.2        1 <1>        0.000
      6 O4         -1.8480    1.8852   -0.6204 O.3        1 <1>        0.000
      7 O7         -3.5378    1.5498    1.2288 O.3        1 <1>        0.000
      8 O8         -4.6354   -2.4533   -0.8469 O.3        1 <1>        0.000
      9 P3         -5.5872   -2.9872   -1.9487 P.3        1 <1>        0.000
     10 O9         -5.5339   -4.4206   -2.1423 O.2        1 <1>        0.000
     11 O10        -5.2714   -2.1711   -3.2869 O.3        1 <1>        0.000
     12 O11        -7.0519   -2.4999   -1.5350 O.3        1 <1>        0.000
     13 O12        -5.1468   -0.8426    1.0895 O.3        1 <1>        0.000
     14 H          -1.2070    1.4308   -0.0688 H.spc      1 <1>        0.000
     15 H          -2.8592    1.1025    1.7397 H.spc      1 <1>        0.000
     16 H          -5.3195   -1.2297   -3.1051 H.spc      1 <1>        0.000
     17 H          -7.0492   -1.5474   -1.4155 H.spc      1 <1>        0.000
     18 H          -4.5022   -1.2712    1.6573 H.spc      1 <1>        0.000
@<TRIPOS>BOND
     1    9   12 1  
     2    8    9 1  
     3    9   11 1  
     4    9   10 2  
     5    1    2 2  
     6    1    3 1  
     7    1    8 1  
     8    1   13 1  
     9    3    4 1  
    10    4    5 2  
    11    4    6 1  
    12    4    7 1  
    13    6   14 1  
    14    7   15 1  
    15   11   16 1  
    16   12   17 1  
    17   13   18 1  
# Name:          frag3-112-79/31924
# Creation time: Sat Jun  5 12:52:01 2010


@<TRIPOS>MOLECULE
frag3-112-79/31924
   18    17     1     1     1
SMALL
USER_CHARGES


@<TRIPOS>ATOM
      1 P1         -4.1754   -1.3218   -0.0143 P.3        1 <1>        0.000
      2 O1         -5.4501   -0.6545    0.3219 O.2        1 <1>        0.000
      3 O2         -3.1203   -0.1921   -0.0751 O.3        1 <1>        0.000
      4 P2         -3.4099    1.1799   -0.7329 P.3        1 <1>        0.000
      5 O3         -2.6453    1.3944   -1.9396 O.2        1 <1>        0.000
      6 O4         -3.2084    2.3188    0.2993 O.3        1 <1>        0.000
      7 O7         -4.9862    1.1679   -1.0532 O.3        1 <1>        0.000
      8 O8         -4.3889   -1.9409   -1.4300 O.3        1 <1>        0.000
      9 P3         -5.7933   -2.3790   -1.9339 P.3        1 <1>        0.000
     10 O9         -6.2547   -3.4809   -1.1071 O.2        1 <1>        0.000
     11 O10        -5.8313   -2.6701   -3.4656 O.3        1 <1>        0.000
     12 O11        -6.7212   -1.0955   -1.7433 O.3        1 <1>        0.000
     13 O12        -3.8335   -2.4446    1.0062 O.3        1 <1>        0.000
     14 H          -3.7328    2.1359    1.0823 H.spc      1 <1>        0.000
     15 H          -5.4758    1.0243   -0.2400 H.spc      1 <1>        0.000
     16 H          -5.5139   -1.9009   -3.9443 H.spc      1 <1>        0.000
     17 H          -6.3971   -0.3825   -2.2984 H.spc      1 <1>        0.000
     18 H          -3.0022   -2.8569    0.7600 H.spc      1 <1>        0.000
@<TRIPOS>BOND
     1    9   12 1  
     2    8    9 1  
     3    9   11 1  
     4    9   10 2  
     5    1    2 2  
     6    1    3 1  
     7    1    8 1  
     8    1   13 1  
     9    3    4 1  
    10    4    5 2  
    11    4    6 1  
    12    4    7 1  
    13    6   14 1  
    14    7   15 1  
    15   11   16 1  
    16   12   17 1  
    17   13   18 1  
# Name:          frag3-112-79/31924
# Creation time: Sat Jun  5 12:52:01 2010


@<TRIPOS>MOLECULE
frag3-112-79/31924
   18    17     1     1     1
SMALL
USER_CHARGES


@<TRIPOS>ATOM
      1 P1         -4.3445   -1.2982   -0.0932 P.3        1 <1>        0.000
      2 O1         -5.5102   -0.4457    0.2558 O.2        1 <1>        0.000
      3 O2         -3.5074   -0.4417   -1.1166 O.3        1 <1>        0.000
      4 P2         -3.2494    1.0746   -0.8867 P.3        1 <1>        0.000
      5 O3         -2.2142    1.6478   -1.7114 O.2        1 <1>        0.000
      6 O4         -2.8549    1.1887    0.6454 O.3        1 <1>        0.000
      7 O7         -4.6465    1.8280   -1.0156 O.3        1 <1>        0.000
      8 O8         -4.8890   -2.5751   -0.7687 O.3        1 <1>        0.000
      9 P3         -5.9943   -2.4941   -1.8552 P.3        1 <1>        0.000
     10 O9         -5.9187   -3.5435   -2.8502 O.2        1 <1>        0.000
     11 O10        -5.8321   -1.0314   -2.5148 O.3        1 <1>        0.000
     12 O11        -7.3947   -2.4348   -1.1247 O.3        1 <1>        0.000
     13 O12        -3.4626   -1.5928    1.1683 O.3        1 <1>        0.000
     14 H          -3.5509    0.8043    1.1834 H.spc      1 <1>        0.000
     15 H          -5.2919    1.4027   -0.4462 H.spc      1 <1>        0.000
     16 H          -5.8873   -0.3637   -1.8273 H.spc      1 <1>        0.000
     17 H          -7.3878   -1.7243   -0.4791 H.spc      1 <1>        0.000
     18 H          -2.7184   -2.1440    0.9154 H.spc      1 <1>        0.000
@<TRIPOS>BOND
     1    9   12 1  
     2    8    9 1  
     3    9   11 1  
     4    9   10 2  
     5    1    2 2  
     6    1    3 1  
     7    1    8 1  
     8    1   13 1  
     9    3    4 1  
    10    4    5 2  
    11    4    6 1  
    12    4    7 1  
    13    6   14 1  
    14    7   15 1  
    15   11   16 1  
    16   12   17 1  
    17   13   18 1  
# Name:          frag3-112-79/31924
# Creation time: Sat Jun  5 12:52:01 2010


@<TRIPOS>MOLECULE
frag3-112-79/31924
   18    17     1     1     1
SMALL
USER_CHARGES


@<TRIPOS>ATOM
      1 P1         -4.8594   -1.2191    0.2469 P.3        1 <1>        0.000
      2 O1         -5.4722   -0.5231    1.3370 O.2        1 <1>        0.000
      3 O2         -3.5483   -0.4461   -0.1524 O.3        1 <1>        0.000
      4 P2         -3.6390    1.0617   -0.5412 P.3        1 <1>        0.000
      5 O3         -5.0065    1.4774   -0.3216 O.2        1 <1>        0.000
      6 O4         -3.2943    1.2175   -2.0660 O.3        1 <1>        0.000
      7 O7         -2.5967    1.9196    0.2550 O.3        1 <1>        0.000
      8 O8         -5.7186   -1.2348   -1.0620 O.3        1 <1>        0.000
      9 P3         -5.4098   -2.2240   -2.2248 P.3        1 <1>        0.000
     10 O9         -5.2314   -3.5414   -1.6545 O.2        1 <1>        0.000
     11 O10        -4.0462   -1.7210   -2.9201 O.3        1 <1>        0.000
     12 O11        -6.4867   -2.1646   -3.3415 O.3        1 <1>        0.000
     13 O12        -4.5092   -2.7204    0.5776 O.3        1 <1>        0.000
     14 H          -2.3870    0.9427   -2.2175 H.spc      1 <1>        0.000
     15 H          -1.7113    1.5981    0.0699 H.spc      1 <1>        0.000
     16 H          -4.1819   -0.8468   -3.2928 H.spc      1 <1>        0.000
     17 H          -6.5526   -1.2662   -3.6735 H.spc      1 <1>        0.000
     18 H          -4.1030   -3.1296   -0.1900 H.spc      1 <1>        0.000
@<TRIPOS>BOND
     1    9   12 1  
     2    8    9 1  
     3    9   11 1  
     4    9   10 2  
     5    1    2 2  
     6    1    3 1  
     7    1    8 1  
     8    1   13 1  
     9    3    4 1  
    10    4    5 2  
    11    4    6 1  
    12    4    7 1  
    13    6   14 1  
    14    7   15 1  
    15   11   16 1  
    16   12   17 1  
    17   13   18 1  
# Name:          frag3-112-79/31924
# Creation time: Sat Jun  5 12:52:01 2010


@<TRIPOS>MOLECULE
frag3-112-79/31924
   18    17     1     1     1
SMALL
USER_CHARGES


@<TRIPOS>ATOM
      1 P1         -4.4745   -1.0729   -0.0718 P.3        1 <1>        0.000
      2 O1         -5.3507   -1.8802    0.7587 O.2        1 <1>        0.000
      3 O2         -4.4568    0.4257    0.2936 O.3        1 <1>        0.000
      4 P2         -3.7310    1.4507   -0.6375 P.3        1 <1>        0.000
      5 O3         -4.2042    1.2717   -1.9932 O.2        1 <1>        0.000
      6 O4         -2.1926    1.0461   -0.5779 O.3        1 <1>        0.000
      7 O7         -3.8413    2.9135   -0.1131 O.3        1 <1>        0.000
      8 O8         -4.9680   -1.2392   -1.5530 O.3        1 <1>        0.000
      9 P3         -5.7311   -2.5030   -1.9998 P.3        1 <1>        0.000
     10 O9         -6.0262   -2.5888   -3.4095 O.2        1 <1>        0.000
     11 O10        -7.0424   -2.6208   -1.0882 O.3        1 <1>        0.000
     12 O11        -4.8375   -3.7372   -1.5017 O.3        1 <1>        0.000
     13 O12        -2.9621   -1.5839    0.0257 O.3        1 <1>        0.000
     14 H          -1.8672    1.1609    0.3179 H.spc      1 <1>        0.000
     15 H          -3.5108    2.9553    0.7872 H.spc      1 <1>        0.000
     16 H          -6.7942   -2.5582   -0.1630 H.spc      1 <1>        0.000
     17 H          -4.6624   -3.6455   -0.5623 H.spc      1 <1>        0.000
     18 H          -2.4038   -1.0358   -0.5306 H.spc      1 <1>        0.000
@<TRIPOS>BOND
     1    9   12 1  
     2    8    9 1  
     3    9   11 1  
     4    9   10 2  
     5    1    2 2  
     6    1    3 1  
     7    1    8 1  
     8    1   13 1  
     9    3    4 1  
    10    4    5 2  
    11    4    6 1  
    12    4    7 1  
    13    6   14 1  
    14    7   15 1  
    15   11   16 1  
    16   12   17 1  
    17   13   18 1  
# Name:          frag3-112-79/31924
# Creation time: Sat Jun  5 12:52:01 2010


@<TRIPOS>MOLECULE
frag3-112-79/31924
   18    17     1     1     1
SMALL
USER_CHARGES


@<TRIPOS>ATOM
      1 P1         -4.0911   -1.2786   -0.1397 P.3        1 <1>        0.000
      2 O1         -2.9778   -1.7389   -0.9659 O.2        1 <1>        0.000
      3 O2         -5.3304   -1.1252   -1.1065 O.3        1 <1>        0.000
      4 P2         -5.8717   -2.3069   -1.9464 P.3        1 <1>        0.000
      5 O3         -6.9597   -2.9736   -1.2846 O.2        1 <1>        0.000
      6 O4         -4.6266   -3.3167   -2.0071 O.3        1 <1>        0.000
      7 O7         -6.1531   -1.9554   -3.4438 O.3        1 <1>        0.000
      8 O8         -3.7536    0.0956    0.4587 O.3        1 <1>        0.000
      9 P3         -3.8556    1.3824   -0.4242 P.3        1 <1>        0.000
     10 O9         -3.9059    0.9399   -1.8084 O.2        1 <1>        0.000
     11 O10        -2.6270    2.3168   -0.1359 O.3        1 <1>        0.000
     12 O11        -5.1565    2.1726   -0.0156 O.3        1 <1>        0.000
     13 O12        -4.5094   -2.3302    0.9518 O.3        1 <1>        0.000
     14 H          -3.8890   -2.8874   -2.4468 H.spc      1 <1>        0.000
     15 H          -5.3864   -1.5147   -3.8174 H.spc      1 <1>        0.000
     16 H          -2.6373    2.5815    0.7868 H.spc      1 <1>        0.000
     17 H          -5.0875    2.4479    0.9015 H.spc      1 <1>        0.000
     18 H          -5.2415   -1.9820    1.4660 H.spc      1 <1>        0.000
@<TRIPOS>BOND
     1    9   12 1  
     2    8    9 1  
     3    9   11 1  
     4    9   10 2  
     5    1    2 2  
     6    1    3 1  
     7    1    8 1  
     8    1   13 1  
     9    3    4 1  
    10    4    5 2  
    11    4    6 1  
    12    4    7 1  
    13    6   14 1  
    14    7   15 1  
    15   11   16 1  
    16   12   17 1  
    17   13   18 1  
# Name:          frag3-112-79/31924
# Creation time: Sat Jun  5 12:52:01 2010


@<TRIPOS>MOLECULE
frag3-112-79/31924
   18    17     1     1     1
SMALL
USER_CHARGES


@<TRIPOS>ATOM
      1 P1         -4.2402   -0.9722   -1.0158 P.3        1 <1>        0.000
      2 O1         -5.1801   -0.5254    0.0568 O.2        1 <1>        0.000
      3 O2         -3.5126    0.2839   -1.5259 O.3        1 <1>        0.000
      4 P2         -3.2939    1.5055   -0.6050 P.3        1 <1>        0.000
      5 O3         -2.3518    2.4793   -1.1014 O.2        1 <1>        0.000
      6 O4         -2.7932    0.9264    0.7859 O.3        1 <1>        0.000
      7 O7         -4.7251    2.1430   -0.2828 O.3        1 <1>        0.000
      8 O8         -5.0849   -1.7459   -2.0606 O.3        1 <1>        0.000
      9 P3         -6.1101   -2.8360   -1.6292 P.3        1 <1>        0.000
     10 O9         -5.9318   -4.0855   -2.3369 O.2        1 <1>        0.000
     11 O10        -7.5728   -2.2535   -1.7050 O.3        1 <1>        0.000
     12 O11        -5.8179   -3.0247   -0.0567 O.3        1 <1>        0.000
     13 O12        -3.2042   -2.0131   -0.3909 O.3        1 <1>        0.000
     14 H          -3.4255    0.2800    1.1083 H.spc      1 <1>        0.000
     15 H          -5.3134    1.4578    0.0429 H.spc      1 <1>        0.000
     16 H          -7.6134   -1.4288   -1.2152 H.spc      1 <1>        0.000
     17 H          -5.9415   -2.1859    0.3935 H.spc      1 <1>        0.000
     18 H          -2.5957   -2.3060   -1.0732 H.spc      1 <1>        0.000
@<TRIPOS>BOND
     1    9   12 1  
     2    8    9 1  
     3    9   11 1  
     4    9   10 2  
     5    1    2 2  
     6    1    3 1  
     7    1    8 1  
     8    1   13 1  
     9    3    4 1  
    10    4    5 2  
    11    4    6 1  
    12    4    7 1  
    13    6   14 1  
    14    7   15 1  
    15   11   16 1  
    16   12   17 1  
    17   13   18 1  
# Name:          frag3-112-79/31924
# Creation time: Sat Jun  5 12:52:01 2010


@<TRIPOS>MOLECULE
frag3-112-79/31924
   18    17     1     1     1
SMALL
USER_CHARGES


@<TRIPOS>ATOM
      1 P1         -4.4524   -1.3055    0.2315 P.3        1 <1>        0.000
      2 O1         -5.8759   -0.9872    0.3117 O.2        1 <1>        0.000
      3 O2         -3.6718    0.0013    0.4585 O.3        1 <1>        0.000
      4 P2         -3.7256    1.1581   -0.5738 P.3        1 <1>        0.000
      5 O3         -4.7052    0.7943   -1.5868 O.2        1 <1>        0.000
      6 O4         -2.3234    1.3165   -1.2508 O.3        1 <1>        0.000
      7 O7         -4.0457    2.5299    0.1151 O.3        1 <1>        0.000
      8 O8         -4.2129   -1.7610   -1.2652 O.3        1 <1>        0.000
      9 P3         -5.3775   -2.2959   -2.1535 P.3        1 <1>        0.000
     10 O9         -5.7470   -3.6133   -1.6879 O.2        1 <1>        0.000
     11 O10        -5.0617   -2.2167   -3.6822 O.3        1 <1>        0.000
     12 O11        -6.5725   -1.2548   -1.9412 O.3        1 <1>        0.000
     13 O12        -4.0467   -2.4842    1.1571 O.3        1 <1>        0.000
     14 H          -1.6737    1.5566   -0.5861 H.spc      1 <1>        0.000
     15 H          -3.3722    2.7218    0.7717 H.spc      1 <1>        0.000
     16 H          -4.8260   -1.3151   -3.9128 H.spc      1 <1>        0.000
     17 H          -6.3019   -0.3899   -2.2578 H.spc      1 <1>        0.000
     18 H          -3.1057   -2.6515    1.0665 H.spc      1 <1>        0.000
@<TRIPOS>BOND
     1    9   12 1  
     2    8    9 1  
     3    9   11 1  
     4    9   10 2  
     5    1    2 2  
     6    1    3 1  
     7    1    8 1  
     8    1   13 1  
     9    3    4 1  
    10    4    5 2  
    11    4    6 1  
    12    4    7 1  
    13    6   14 1  
    14    7   15 1  
    15   11   16 1  
    16   12   17 1  
    17   13   18 1  
# Name:          frag3-112-79/31924 -- energy: 0.748883
# Creation time: Sat Jun  5 12:52:01 2010


@<TRIPOS>MOLECULE
frag3-112-79/31924 -- energy: 0.748883
   18    17     1     1     1
SMALL
USER_CHARGES


@<TRIPOS>ATOM
      1 P1         -4.4777   -1.3107    0.4036 P.3        1 <1>        0.000
      2 O1         -4.8351   -0.7761    1.6986 O.2        1 <1>        0.000
      3 O2         -3.3635   -0.4066   -0.2462 O.3        1 <1>        0.000
      4 P2         -3.7470    0.9455   -0.9461 P.3        1 <1>        0.000
      5 O3         -4.5161    0.6512   -2.1455 O.2        1 <1>        0.000
      6 O4         -2.5011    1.7987   -1.2634 O.3        1 <1>        0.000
      7 O7         -4.6338    1.7191    0.1336 O.3        1 <1>        0.000
      8 O8         -5.6661   -1.2375   -0.6316 O.3        1 <1>        0.000
      9 P3         -5.6006   -2.0217   -1.9937 P.3        1 <1>        0.000
     10 O9         -6.1364   -3.3568   -1.8185 O.2        1 <1>        0.000
     11 O10        -4.0231   -2.0909   -2.3545 O.3        1 <1>        0.000
     12 O11        -6.2814   -1.2117   -3.1341 O.3        1 <1>        0.000
     13 O12        -4.0365   -2.8207    0.4303 O.3        1 <1>        0.000
     14 H          -2.0190    1.9732   -0.4518 H.spc      1 <1>        0.000
     15 H          -4.1023    1.8998    0.9123 H.spc      1 <1>        0.000
     16 H          -3.6825   -1.2005   -2.4675 H.spc      1 <1>        0.000
     17 H          -5.8782   -0.3424   -3.1923 H.spc      1 <1>        0.000
     18 H          -3.8156   -3.1042   -0.4599 H.spc      1 <1>        0.000
@<TRIPOS>BOND
     1    9   12 1  
     2    8    9 1  
     3    9   11 1  
     4    9   10 2  
     5    1    2 2  
     6    1    3 1  
     7    1    8 1  
     8    1   13 1  
     9    3    4 1  
    10    4    5 2  
    11    4    6 1  
    12    4    7 1  
    13    6   14 1  
    14    7   15 1  
    15   11   16 1  
    16   12   17 1  
    17   13   18 1  
# Name:          frag3-112-79/31924 -- energy: -0.590757
# Creation time: Sat Jun  5 12:52:01 2010


@<TRIPOS>MOLECULE
frag3-112-79/31924 -- energy: -0.590757
   18    17     1     1     1
SMALL
USER_CHARGES


@<TRIPOS>ATOM
      1 P1         -4.4562   -1.3308    0.3834 P.3        1 <1>        0.000
      2 O1         -3.3163   -1.2228    1.2633 O.2        1 <1>        0.000
      3 O2         -4.0990   -1.9456   -1.0173 O.3        1 <1>        0.000
      4 P2         -5.2069   -2.2075   -2.0925 P.3        1 <1>        0.000
      5 O3         -5.7201   -3.5509   -1.9832 O.2        1 <1>        0.000
      6 O4         -4.7054   -1.8855   -3.5193 O.3        1 <1>        0.000
      7 O7         -6.3691   -1.1286   -1.7654 O.3        1 <1>        0.000
      8 O8         -4.9502    0.1273    0.0269 O.3        1 <1>        0.000
      9 P3         -4.0757    1.0645   -0.8731 P.3        1 <1>        0.000
     10 O9         -3.9621    0.4612   -2.1948 O.2        1 <1>        0.000
     11 O10        -2.6614    1.1732   -0.1496 O.3        1 <1>        0.000
     12 O11        -4.6558    2.5096   -0.9116 O.3        1 <1>        0.000
     13 O12        -5.6403   -2.1822    0.9658 O.3        1 <1>        0.000
     14 H          -4.3741   -0.9848   -3.5452 H.spc      1 <1>        0.000
     15 H          -6.0112   -0.2411   -1.8426 H.spc      1 <1>        0.000
     16 H          -2.7756    1.5739    0.7152 H.spc      1 <1>        0.000
     17 H          -4.7081    2.8561   -0.0179 H.spc      1 <1>        0.000
     18 H          -6.3576   -2.2088    0.3283 H.spc      1 <1>        0.000
@<TRIPOS>BOND
     1    9   12 1  
     2    8    9 1  
     3    9   11 1  
     4    9   10 2  
     5    1    2 2  
     6    1    3 1  
     7    1    8 1  
     8    1   13 1  
     9    3    4 1  
    10    4    5 2  
    11    4    6 1  
    12    4    7 1  
    13    6   14 1  
    14    7   15 1  
    15   11   16 1  
    16   12   17 1  
    17   13   18 1  
# Name:          frag3-112-79/31924 -- energy: -0.687286
# Creation time: Sat Jun  5 12:52:01 2010


@<TRIPOS>MOLECULE
frag3-112-79/31924 -- energy: -0.687286
   18    17     1     1     1
SMALL
USER_CHARGES


@<TRIPOS>ATOM
      1 P1         -4.2807   -1.3880    0.3367 P.3        1 <1>        0.000
      2 O1         -3.0373   -1.3171    1.0591 O.2        1 <1>        0.000
      3 O2         -4.1020   -1.9292   -1.1347 O.3        1 <1>        0.000
      4 P2         -5.3398   -2.1410   -2.0697 P.3        1 <1>        0.000
      5 O3         -6.2068   -3.1167   -1.4393 O.2        1 <1>        0.000
      6 O4         -4.9299   -2.5671   -3.4931 O.3        1 <1>        0.000
      7 O7         -6.0831   -0.7260   -2.1981 O.3        1 <1>        0.000
      8 O8         -4.8359    0.0642    0.1306 O.3        1 <1>        0.000
      9 P3         -4.0927    1.0619   -0.8118 P.3        1 <1>        0.000
     10 O9         -3.4069    0.2739   -1.8299 O.2        1 <1>        0.000
     11 O10        -3.0803    1.9147    0.0565 O.3        1 <1>        0.000
     12 O11        -5.0760    2.0950   -1.4600 O.3        1 <1>        0.000
     13 O12        -5.3468   -2.3427    0.9861 O.3        1 <1>        0.000
     14 H          -4.3583   -1.8967   -3.8744 H.spc      1 <1>        0.000
     15 H          -5.4948   -0.0936   -2.6171 H.spc      1 <1>        0.000
     16 H          -3.5681    2.4175    0.7128 H.spc      1 <1>        0.000
     17 H          -5.5118    2.5979   -0.7681 H.spc      1 <1>        0.000
     18 H          -6.1450   -2.3391    0.4527 H.spc      1 <1>        0.000
@<TRIPOS>BOND
     1    9   12 1  
     2    8    9 1  
     3    9   11 1  
     4    9   10 2  
     5    1    2 2  
     6    1    3 1  
     7    1    8 1  
     8    1   13 1  
     9    3    4 1  
    10    4    5 2  
    11    4    6 1  
    12    4    7 1  
    13    6   14 1  
    14    7   15 1  
    15   11   16 1  
    16   12   17 1  
    17   13   18 1  
# Name:          frag3-112-79/31924 -- energy: -1.283430
# Creation time: Sat Jun  5 12:52:02 2010


@<TRIPOS>MOLECULE
frag3-112-79/31924 -- energy: -1.283430
   18    17     1     1     1
SMALL
USER_CHARGES


@<TRIPOS>ATOM
      1 P1         -4.5560   -1.2852    0.3674 P.3        1 <1>        0.000
      2 O1         -3.5339   -0.8536    1.3015 O.2        1 <1>        0.000
      3 O2         -3.9319   -1.9369   -0.9226 O.3        1 <1>        0.000
      4 P2         -4.8593   -2.3177   -2.1334 P.3        1 <1>        0.000
      5 O3         -5.9531   -3.1261   -1.6214 O.2        1 <1>        0.000
      6 O4         -4.0814   -3.0472   -3.2505 O.3        1 <1>        0.000
      7 O7         -5.3996   -0.9476   -2.7489 O.3        1 <1>        0.000
      8 O8         -5.2722    0.0142   -0.1837 O.3        1 <1>        0.000
      9 P3         -4.4510    1.1853   -0.7996 P.3        1 <1>        0.000
     10 O9         -5.1426    1.9284   -1.8301 O.2        1 <1>        0.000
     11 O10        -3.1152    0.4808   -1.3879 O.3        1 <1>        0.000
     12 O11        -3.9345    2.0837    0.3847 O.3        1 <1>        0.000
     13 O12        -5.5879   -2.2962    0.9570 O.3        1 <1>        0.000
     14 H          -3.3692   -2.4844   -3.5629 H.spc      1 <1>        0.000
     15 H          -4.6598   -0.4329   -3.0795 H.spc      1 <1>        0.000
     16 H          -2.6754   -0.0049   -0.6862 H.spc      1 <1>        0.000
     17 H          -3.4871    1.5328    1.0312 H.spc      1 <1>        0.000
     18 H          -6.2268   -2.5310    0.2800 H.spc      1 <1>        0.000
@<TRIPOS>BOND
     1    9   12 1  
     2    8    9 1  
     3    9   11 1  
     4    9   10 2  
     5    1    2 2  
     6    1    3 1  
     7    1    8 1  
     8    1   13 1  
     9    3    4 1  
    10    4    5 2  
    11    4    6 1  
    12    4    7 1  
    13    6   14 1  
    14    7   15 1  
    15   11   16 1  
    16   12   17 1  
    17   13   18 1  
# Name:          frag3-112-79/31924 -- energy: -0.250679
# Creation time: Sat Jun  5 12:52:02 2010


@<TRIPOS>MOLECULE
frag3-112-79/31924 -- energy: -0.250679
   18    17     1     1     1
SMALL
USER_CHARGES


@<TRIPOS>ATOM
      1 P1         -4.8078   -1.3159    0.4060 P.3        1 <1>        0.000
      2 O1         -5.2351   -0.4351    1.4610 O.2        1 <1>        0.000
      3 O2         -3.5635   -0.6292   -0.2923 O.3        1 <1>        0.000
      4 P2         -3.6720    0.8454   -0.7808 P.3        1 <1>        0.000
      5 O3         -5.0028    1.0426   -1.3368 O.2        1 <1>        0.000
      6 O4         -2.5986    1.1810   -1.8559 O.3        1 <1>        0.000
      7 O7         -3.3973    1.8243    0.4320 O.3        1 <1>        0.000
      8 O8         -5.8458   -1.4405   -0.7587 O.3        1 <1>        0.000
      9 P3         -5.4446   -2.0309   -2.1496 P.3        1 <1>        0.000
     10 O9         -4.9144   -3.3653   -1.9397 O.2        1 <1>        0.000
     11 O10        -4.3004   -1.0627   -2.7441 O.3        1 <1>        0.000
     12 O11        -6.5978   -1.9696   -3.1878 O.3        1 <1>        0.000
     13 O12        -4.4383   -2.7623    0.8793 O.3        1 <1>        0.000
     14 H          -1.7232    1.0494   -1.4844 H.spc      1 <1>        0.000
     15 H          -2.5140    1.6683    0.7740 H.spc      1 <1>        0.000
     16 H          -4.6639   -0.1843   -2.8781 H.spc      1 <1>        0.000
     17 H          -6.8991   -1.0624   -3.2766 H.spc      1 <1>        0.000
     18 H          -4.1649   -3.2854    0.1222 H.spc      1 <1>        0.000
@<TRIPOS>BOND
     1    9   12 1  
     2    8    9 1  
     3    9   11 1  
     4    9   10 2  
     5    1    2 2  
     6    1    3 1  
     7    1    8 1  
     8    1   13 1  
     9    3    4 1  
    10    4    5 2  
    11    4    6 1  
    12    4    7 1  
    13    6   14 1  
    14    7   15 1  
    15   11   16 1  
    16   12   17 1  
    17   13   18 1  
# Name:          frag3-112-79/31924 -- energy: -0.003534
# Creation time: Sat Jun  5 12:52:02 2010


@<TRIPOS>MOLECULE
frag3-112-79/31924 -- energy: -0.003534
   18    17     1     1     1
SMALL
USER_CHARGES


@<TRIPOS>ATOM
      1 P1         -3.9810   -1.4364    0.1540 P.3        1 <1>        0.000
      2 O1         -2.6578   -1.2646    0.6810 O.2        1 <1>        0.000
      3 O2         -3.9999   -1.7365   -1.3871 O.3        1 <1>        0.000
      4 P2         -5.3484   -2.0809   -2.1183 P.3        1 <1>        0.000
      5 O3         -6.4153   -1.8038   -1.1611 O.2        1 <1>        0.000
      6 O4         -5.3307   -3.6145   -2.4356 O.3        1 <1>        0.000
      7 O7         -5.5026   -1.3015   -3.4613 O.3        1 <1>        0.000
      8 O8         -4.7644   -0.0769    0.2722 O.3        1 <1>        0.000
      9 P3         -4.3816    1.1295   -0.6450 P.3        1 <1>        0.000
     10 O9         -4.3091    0.6672   -2.0157 O.2        1 <1>        0.000
     11 O10        -2.9608    1.6709   -0.1446 O.3        1 <1>        0.000
     12 O11        -5.3677    2.3242   -0.4538 O.3        1 <1>        0.000
     13 O12        -4.7991   -2.5950    0.8477 O.3        1 <1>        0.000
     14 H          -4.6304   -3.8019   -3.0650 H.spc      1 <1>        0.000
     15 H          -4.7743   -1.5253   -4.0453 H.spc      1 <1>        0.000
     16 H          -3.0359    1.9705    0.7644 H.spc      1 <1>        0.000
     17 H          -5.3748    2.5872    0.4694 H.spc      1 <1>        0.000
     18 H          -5.6700   -2.6538    0.4482 H.spc      1 <1>        0.000
@<TRIPOS>BOND
     1    9   12 1  
     2    8    9 1  
     3    9   11 1  
     4    9   10 2  
     5    1    2 2  
     6    1    3 1  
     7    1    8 1  
     8    1   13 1  
     9    3    4 1  
    10    4    5 2  
    11    4    6 1  
    12    4    7 1  
    13    6   14 1  
    14    7   15 1  
    15   11   16 1  
    16   12   17 1  
    17   13   18 1  
# Name:          frag3-112-79/31924 -- energy: 1.456932
# Creation time: Sat Jun  5 12:52:02 2010


@<TRIPOS>MOLECULE
frag3-112-79/31924 -- energy: 1.456932
   18    17     1     1     1
SMALL
USER_CHARGES


@<TRIPOS>ATOM
      1 P1         -4.1222   -1.5039    0.2069 P.3        1 <1>        0.000
      2 O1         -4.8379   -2.2796    1.1746 O.2        1 <1>        0.000
      3 O2         -4.6662   -0.0340    0.0529 O.3        1 <1>        0.000
      4 P2         -3.9151    1.0088   -0.8493 P.3        1 <1>        0.000
      5 O3         -2.8604    0.2652   -1.5334 O.2        1 <1>        0.000
      6 O4         -3.2885    2.0978    0.0662 O.3        1 <1>        0.000
      7 O7         -4.9215    1.6762   -1.8495 O.3        1 <1>        0.000
      8 O8         -4.3512   -2.1240   -1.2231 O.3        1 <1>        0.000
      9 P3         -5.7581   -2.0040   -1.9002 P.3        1 <1>        0.000
     10 O9         -6.6912   -1.5993   -0.8624 O.2        1 <1>        0.000
     11 O10        -6.1671   -3.3375   -2.6138 O.3        1 <1>        0.000
     12 O11        -5.6640   -0.9023   -3.0376 O.3        1 <1>        0.000
     13 O12        -2.5750   -1.3818    0.5012 O.3        1 <1>        0.000
     14 H          -3.9882    2.5812    0.5115 H.spc      1 <1>        0.000
     15 H          -5.5937    2.1516   -1.3558 H.spc      1 <1>        0.000
     16 H          -5.5160   -3.5523   -3.2857 H.spc      1 <1>        0.000
     17 H          -5.0432   -1.1910   -3.7106 H.spc      1 <1>        0.000
     18 H          -2.1610   -0.8516   -0.1837 H.spc      1 <1>        0.000
@<TRIPOS>BOND
     1    9   12 1  
     2    8    9 1  
     3    9   11 1  
     4    9   10 2  
     5    1    2 2  
     6    1    3 1  
     7    1    8 1  
     8    1   13 1  
     9    3    4 1  
    10    4    5 2  
    11    4    6 1  
    12    4    7 1  
    13    6   14 1  
    14    7   15 1  
    15   11   16 1  
    16   12   17 1  
    17   13   18 1  
# Name:          frag3-112-79/31924 -- energy: 1.140814
# Creation time: Sat Jun  5 12:52:02 2010


@<TRIPOS>MOLECULE
frag3-112-79/31924 -- energy: 1.140814
   18    17     1     1     1
SMALL
USER_CHARGES


@<TRIPOS>ATOM
      1 P1         -4.5226   -1.3247    0.3891 P.3        1 <1>        0.000
      2 O1         -4.6440   -0.3609    1.4710 O.2        1 <1>        0.000
      3 O2         -3.4527   -0.7335   -0.6198 O.3        1 <1>        0.000
      4 P2         -3.4808    0.7698   -1.0362 P.3        1 <1>        0.000
      5 O3         -3.2286    1.0117   -2.4347 O.2        1 <1>        0.000
      6 O4         -2.4948    1.5570   -0.1220 O.3        1 <1>        0.000
      7 O7         -4.9692    1.2606   -0.6205 O.3        1 <1>        0.000
      8 O8         -5.8344   -1.4012   -0.4716 O.3        1 <1>        0.000
      9 P3         -5.7772   -1.9547   -1.9399 P.3        1 <1>        0.000
     10 O9         -5.0705   -3.2289   -1.9114 O.2        1 <1>        0.000
     11 O10        -4.9941   -0.8908   -2.8340 O.3        1 <1>        0.000
     12 O11        -7.1916   -2.0545   -2.5870 O.3        1 <1>        0.000
     13 O12        -4.1581   -2.7681    0.8496 O.3        1 <1>        0.000
     14 H          -2.6947    1.3699    0.7981 H.spc      1 <1>        0.000
     15 H          -5.1124    1.0891    0.3131 H.spc      1 <1>        0.000
     16 H          -5.4768   -0.0610   -2.8383 H.spc      1 <1>        0.000
     17 H          -7.6080   -1.1895   -2.5784 H.spc      1 <1>        0.000
     18 H          -4.0967   -3.3417    0.0822 H.spc      1 <1>        0.000
@<TRIPOS>BOND
     1    9   12 1  
     2    8    9 1  
     3    9   11 1  
     4    9   10 2  
     5    1    2 2  
     6    1    3 1  
     7    1    8 1  
     8    1   13 1  
     9    3    4 1  
    10    4    5 2  
    11    4    6 1  
    12    4    7 1  
    13    6   14 1  
    14    7   15 1  
    15   11   16 1  
    16   12   17 1  
    17   13   18 1  
# Name:          frag3-112-79/31924 -- energy: 1.625951
# Creation time: Sat Jun  5 12:52:02 2010


@<TRIPOS>MOLECULE
frag3-112-79/31924 -- energy: 1.625951
   18    17     1     1     1
SMALL
USER_CHARGES


@<TRIPOS>ATOM
      1 P1         -4.7544   -1.2343    0.3141 P.3        1 <1>        0.000
      2 O1         -5.1017   -0.3448    1.3943 O.2        1 <1>        0.000
      3 O2         -3.5180   -0.6138   -0.4313 O.3        1 <1>        0.000
      4 P2         -3.4912    0.8925   -0.8117 P.3        1 <1>        0.000
      5 O3         -4.2640    1.1413   -2.0006 O.2        1 <1>        0.000
      6 O4         -2.0469    1.4315   -0.9302 O.3        1 <1>        0.000
      7 O7         -4.1224    1.6657    0.4506 O.3        1 <1>        0.000
      8 O8         -5.8575   -1.3196   -0.7920 O.3        1 <1>        0.000
      9 P3         -5.5850   -2.0937   -2.1264 P.3        1 <1>        0.000
     10 O9         -4.4760   -3.0028   -1.8488 O.2        1 <1>        0.000
     11 O10        -5.2413   -1.0735   -3.2782 O.3        1 <1>        0.000
     12 O11        -6.8658   -2.8581   -2.5945 O.3        1 <1>        0.000
     13 O12        -4.4943   -2.7088    0.7872 O.3        1 <1>        0.000
     14 H          -1.5693    1.2448   -0.1186 H.spc      1 <1>        0.000
     15 H          -3.5932    1.4868    1.2313 H.spc      1 <1>        0.000
     16 H          -5.9939   -0.4967   -3.4284 H.spc      1 <1>        0.000
     17 H          -7.5688   -2.2273   -2.7660 H.spc      1 <1>        0.000
     18 H          -4.2684   -3.2520    0.0285 H.spc      1 <1>        0.000
@<TRIPOS>BOND
     1    9   12 1  
     2    8    9 1  
     3    9   11 1  
     4    9   10 2  
     5    1    2 2  
     6    1    3 1  
     7    1    8 1  
     8    1   13 1  
     9    3    4 1  
    10    4    5 2  
    11    4    6 1  
    12    4    7 1  
    13    6   14 1  
    14    7   15 1  
    15   11   16 1  
    16   12   17 1  
    17   13   18 1  
# Name:          frag3-112-79/31924 -- energy: 2.383765
# Creation time: Sat Jun  5 12:52:02 2010


@<TRIPOS>MOLECULE
frag3-112-79/31924 -- energy: 2.383765
   18    17     1     1     1
SMALL
USER_CHARGES


@<TRIPOS>ATOM
      1 P1         -4.2366   -1.2812    0.0577 P.3        1 <1>        0.000
      2 O1         -5.6420   -0.9042    0.3218 O.2        1 <1>        0.000
      3 O2         -3.3787   -0.0077    0.1936 O.3        1 <1>        0.000
      4 P2         -3.7451    1.2715   -0.6281 P.3        1 <1>        0.000
      5 O3         -4.9940    0.9963   -1.3205 O.2        1 <1>        0.000
      6 O4         -2.6120    1.5450   -1.6698 O.3        1 <1>        0.000
      7 O7         -3.8424    2.5169    0.3254 O.3        1 <1>        0.000
      8 O8         -4.2153   -1.7734   -1.4433 O.3        1 <1>        0.000
      9 P3         -5.4909   -2.3732   -2.1063 P.3        1 <1>        0.000
     10 O9         -5.2647   -2.9611   -3.4145 O.2        1 <1>        0.000
     11 O10        -6.6017   -1.2376   -2.1175 O.3        1 <1>        0.000
     12 O11        -6.0179   -3.4558   -1.0526 O.3        1 <1>        0.000
     13 O12        -3.7773   -2.4539    0.9866 O.3        1 <1>        0.000
     14 H          -1.7905    1.7259   -1.2072 H.spc      1 <1>        0.000
     15 H          -2.9959    2.6554    0.7565 H.spc      1 <1>        0.000
     16 H          -6.7082   -0.8870   -1.2302 H.spc      1 <1>        0.000
     17 H          -6.1558   -3.0323   -0.2022 H.spc      1 <1>        0.000
     18 H          -2.8637   -2.6755    0.7922 H.spc      1 <1>        0.000
@<TRIPOS>BOND
     1    9   12 1  
     2    8    9 1  
     3    9   11 1  
     4    9   10 2  
     5    1    2 2  
     6    1    3 1  
     7    1    8 1  
     8    1   13 1  
     9    3    4 1  
    10    4    5 2  
    11    4    6 1  
    12    4    7 1  
    13    6   14 1  
    14    7   15 1  
    15   11   16 1  
    16   12   17 1  
    17   13   18 1  
# Name:          frag3-112-79/31924 -- energy: 2.443821
# Creation time: Sat Jun  5 12:52:02 2010


@<TRIPOS>MOLECULE
frag3-112-79/31924 -- energy: 2.443821
   18    17     1     1     1
SMALL
USER_CHARGES


@<TRIPOS>ATOM
      1 P1         -4.2040   -1.2188    0.0525 P.3        1 <1>        0.000
      2 O1         -5.3300   -1.6055    0.8946 O.2        1 <1>        0.000
      3 O2         -3.7050    0.2095    0.3281 O.3        1 <1>        0.000
      4 P2         -3.4967    1.2052   -0.8558 P.3        1 <1>        0.000
      5 O3         -2.7159    0.5415   -1.8846 O.2        1 <1>        0.000
      6 O4         -2.8137    2.5124   -0.3880 O.3        1 <1>        0.000
      7 O7         -4.9508    1.6014   -1.3874 O.3        1 <1>        0.000
      8 O8         -4.7659   -1.2562   -1.4375 O.3        1 <1>        0.000
      9 P3         -5.9311   -2.1994   -1.8363 P.3        1 <1>        0.000
     10 O9         -6.2133   -2.2519   -3.2551 O.2        1 <1>        0.000
     11 O10        -7.1921   -1.7742   -0.9608 O.3        1 <1>        0.000
     12 O11        -5.4790   -3.6210   -1.2624 O.3        1 <1>        0.000
     13 O12        -3.0208   -2.2615    0.1252 O.3        1 <1>        0.000
     14 H          -3.3512    2.9279    0.2903 H.spc      1 <1>        0.000
     15 H          -5.4394    2.0368   -0.6850 H.spc      1 <1>        0.000
     16 H          -6.9451   -1.7570   -0.0333 H.spc      1 <1>        0.000
     17 H          -5.3019   -3.5436   -0.3220 H.spc      1 <1>        0.000
     18 H          -2.3031   -1.9695   -0.4416 H.spc      1 <1>        0.000
@<TRIPOS>BOND
     1    9   12 1  
     2    8    9 1  
     3    9   11 1  
     4    9   10 2  
     5    1    2 2  
     6    1    3 1  
     7    1    8 1  
     8    1   13 1  
     9    3    4 1  
    10    4    5 2  
    11    4    6 1  
    12    4    7 1  
    13    6   14 1  
    14    7   15 1  
    15   11   16 1  
    16   12   17 1  
    17   13   18 1  
# Name:          frag3-112-79/31924 -- energy: -0.445740
# Creation time: Sat Jun  5 12:52:02 2010


@<TRIPOS>MOLECULE
frag3-112-79/31924 -- energy: -0.445740
   18    17     1     1     1
SMALL
USER_CHARGES


@<TRIPOS>ATOM
      1 P1         -4.2671   -1.1720   -0.1151 P.3        1 <1>        0.000
      2 O1         -4.9508   -0.8030    1.1163 O.2        1 <1>        0.000
      3 O2         -3.1012   -0.1967   -0.3797 O.3        1 <1>        0.000
      4 P2         -3.3905    1.2768   -0.7617 P.3        1 <1>        0.000
      5 O3         -3.6911    1.3978   -2.1740 O.2        1 <1>        0.000
      6 O4         -2.2409    2.2233   -0.3377 O.3        1 <1>        0.000
      7 O7         -4.6633    1.7025    0.1311 O.3        1 <1>        0.000
      8 O8         -5.2743   -1.0837   -1.3242 O.3        1 <1>        0.000
      9 P3         -5.9369   -2.3689   -1.9155 P.3        1 <1>        0.000
     10 O9         -4.8594   -3.3141   -2.2141 O.2        1 <1>        0.000
     11 O10        -6.8876   -2.1021   -3.1134 O.3        1 <1>        0.000
     12 O11        -6.7508   -2.9919   -0.6876 O.3        1 <1>        0.000
     13 O12        -3.8044   -2.6861   -0.0918 O.3        1 <1>        0.000
     14 H          -2.0696    2.1165    0.6008 H.spc      1 <1>        0.000
     15 H          -4.4436    1.6154    1.0616 H.spc      1 <1>        0.000
     16 H          -7.5664   -1.4769   -2.8487 H.spc      1 <1>        0.000
     17 H          -7.4730   -2.4045   -0.4529 H.spc      1 <1>        0.000
     18 H          -3.3585   -2.8960   -0.9157 H.spc      1 <1>        0.000
@<TRIPOS>BOND
     1    9   12 1  
     2    8    9 1  
     3    9   11 1  
     4    9   10 2  
     5    1    2 2  
     6    1    3 1  
     7    1    8 1  
     8    1   13 1  
     9    3    4 1  
    10    4    5 2  
    11    4    6 1  
    12    4    7 1  
    13    6   14 1  
    14    7   15 1  
    15   11   16 1  
    16   12   17 1  
    17   13   18 1  
# Name:          frag3-112-79/31924 -- energy: -2.615725
# Creation time: Sat Jun  5 12:52:02 2010


@<TRIPOS>MOLECULE
frag3-112-79/31924 -- energy: -2.615725
   18    17     1     1     1
SMALL
USER_CHARGES


@<TRIPOS>ATOM
      1 P1         -4.3526   -1.0781   -0.3976 P.3        1 <1>        0.000
      2 O1         -5.3478   -0.4197    0.4513 O.2        1 <1>        0.000
      3 O2         -3.1379   -0.1443   -0.5170 O.3        1 <1>        0.000
      4 P2         -3.3462    1.3974   -0.4873 P.3        1 <1>        0.000
      5 O3         -4.3404    1.7525   -1.4791 O.2        1 <1>        0.000
      6 O4         -2.0169    2.1543   -0.7181 O.3        1 <1>        0.000
      7 O7         -3.8395    1.7481    0.9936 O.3        1 <1>        0.000
      8 O8         -5.0033   -1.3610   -1.7915 O.3        1 <1>        0.000
      9 P3         -5.8617   -2.6433   -2.0392 P.3        1 <1>        0.000
     10 O9         -4.9833   -3.8007   -2.0195 O.2        1 <1>        0.000
     11 O10        -6.7809   -2.5492   -3.2887 O.3        1 <1>        0.000
     12 O11        -6.8261   -2.6669   -0.7527 O.3        1 <1>        0.000
     13 O12        -3.9819   -2.5072    0.1784 O.3        1 <1>        0.000
     14 H          -1.3822    1.8965   -0.0456 H.spc      1 <1>        0.000
     15 H          -3.1587    1.5006    1.6235 H.spc      1 <1>        0.000
     16 H          -7.3261   -1.7616   -3.2249 H.spc      1 <1>        0.000
     17 H          -7.4030   -1.8999   -0.7726 H.spc      1 <1>        0.000
     18 H          -3.3295   -2.9212   -0.3913 H.spc      1 <1>        0.000
@<TRIPOS>BOND
     1    9   12 1  
     2    8    9 1  
     3    9   11 1  
     4    9   10 2  
     5    1    2 2  
     6    1    3 1  
     7    1    8 1  
     8    1   13 1  
     9    3    4 1  
    10    4    5 2  
    11    4    6 1  
    12    4    7 1  
    13    6   14 1  
    14    7   15 1  
    15   11   16 1  
    16   12   17 1  
    17   13   18 1  
# Name:          frag3-112-79/31924 -- energy: -2.561886
# Creation time: Sat Jun  5 12:52:02 2010


@<TRIPOS>MOLECULE
frag3-112-79/31924 -- energy: -2.561886
   18    17     1     1     1
SMALL
USER_CHARGES


@<TRIPOS>ATOM
      1 P1         -4.1490   -1.1604   -0.3236 P.3        1 <1>        0.000
      2 O1         -2.7531   -1.2062   -0.7263 O.2        1 <1>        0.000
      3 O2         -5.0579   -1.2175   -1.6062 O.3        1 <1>        0.000
      4 P2         -5.7072   -2.5512   -2.1004 P.3        1 <1>        0.000
      5 O3         -6.8707   -2.8459   -1.3010 O.2        1 <1>        0.000
      6 O4         -4.5801   -3.6320   -1.7767 O.3        1 <1>        0.000
      7 O7         -5.9324   -2.5583   -3.6355 O.3        1 <1>        0.000
      8 O8         -4.4198    0.1415    0.4408 O.3        1 <1>        0.000
      9 P3         -4.0834    1.5132   -0.2170 P.3        1 <1>        0.000
     10 O9         -4.6474    1.5297   -1.5511 O.2        1 <1>        0.000
     11 O10        -2.4878    1.6210   -0.2520 O.3        1 <1>        0.000
     12 O11        -4.5700    2.6958    0.6751 O.3        1 <1>        0.000
     13 O12        -4.5596   -2.4479    0.5065 O.3        1 <1>        0.000
     14 H          -3.7994   -3.4461   -2.3035 H.spc      1 <1>        0.000
     15 H          -5.1066   -2.3528   -4.0799 H.spc      1 <1>        0.000
     16 H          -2.1475    1.6073    0.6456 H.spc      1 <1>        0.000
     17 H          -4.1633    2.6295    1.5421 H.spc      1 <1>        0.000
     18 H          -5.4846   -2.3851    0.7556 H.spc      1 <1>        0.000
@<TRIPOS>BOND
     1    9   12 1  
     2    8    9 1  
     3    9   11 1  
     4    9   10 2  
     5    1    2 2  
     6    1    3 1  
     7    1    8 1  
     8    1   13 1  
     9    3    4 1  
    10    4    5 2  
    11    4    6 1  
    12    4    7 1  
    13    6   14 1  
    14    7   15 1  
    15   11   16 1  
    16   12   17 1  
    17   13   18 1  
# Name:          frag3-112-79/31924 -- energy: -2.095862
# Creation time: Sat Jun  5 12:52:02 2010


@<TRIPOS>MOLECULE
frag3-112-79/31924 -- energy: -2.095862
   18    17     1     1     1
SMALL
USER_CHARGES


@<TRIPOS>ATOM
      1 P1         -4.4246   -1.2173    0.0961 P.3        1 <1>        0.000
      2 O1         -5.7528   -0.8355    0.5594 O.2        1 <1>        0.000
      3 O2         -3.4528   -0.0466    0.3263 O.3        1 <1>        0.000
      4 P2         -3.4109    1.1763   -0.6405 P.3        1 <1>        0.000
      5 O3         -3.4396    0.6678   -1.9982 O.2        1 <1>        0.000
      6 O4         -2.1471    2.0277   -0.3970 O.3        1 <1>        0.000
      7 O7         -4.6920    2.0466   -0.3094 O.3        1 <1>        0.000
      8 O8         -4.5625   -1.4542   -1.4556 O.3        1 <1>        0.000
      9 P3         -5.6894   -2.3279   -2.0657 P.3        1 <1>        0.000
     10 O9         -5.4703   -3.6952   -1.6332 O.2        1 <1>        0.000
     11 O10        -5.8201   -2.1550   -3.6080 O.3        1 <1>        0.000
     12 O11        -7.0263   -1.7314   -1.4365 O.3        1 <1>        0.000
     13 O12        -3.9299   -2.5734    0.6948 O.3        1 <1>        0.000
     14 H          -2.1506    2.3524    0.5064 H.spc      1 <1>        0.000
     15 H          -4.6367    2.3643    0.5948 H.spc      1 <1>        0.000
     16 H          -5.9626   -1.2283   -3.8140 H.spc      1 <1>        0.000
     17 H          -7.1457   -0.8281   -1.7389 H.spc      1 <1>        0.000
     18 H          -3.0541   -2.7713    0.3551 H.spc      1 <1>        0.000
@<TRIPOS>BOND
     1    9   12 1  
     2    8    9 1  
     3    9   11 1  
     4    9   10 2  
     5    1    2 2  
     6    1    3 1  
     7    1    8 1  
     8    1   13 1  
     9    3    4 1  
    10    4    5 2  
    11    4    6 1  
    12    4    7 1  
    13    6   14 1  
    14    7   15 1  
    15   11   16 1  
    16   12   17 1  
    17   13   18 1  
# Name:          frag3-112-79/31924 -- energy: -2.229513
# Creation time: Sat Jun  5 12:52:02 2010


@<TRIPOS>MOLECULE
frag3-112-79/31924 -- energy: -2.229513
   18    17     1     1     1
SMALL
USER_CHARGES


@<TRIPOS>ATOM
      1 P1         -4.5548   -1.2356   -0.1147 P.3        1 <1>        0.000
      2 O1         -5.8386   -0.5368    0.0495 O.2        1 <1>        0.000
      3 O2         -3.6440   -0.3011   -0.9801 O.3        1 <1>        0.000
      4 P2         -3.3280    1.1443   -0.4938 P.3        1 <1>        0.000
      5 O3         -3.8751    1.2756    0.8422 O.2        1 <1>        0.000
      6 O4         -3.9992    2.1785   -1.4503 O.3        1 <1>        0.000
      7 O7         -1.7734    1.4127   -0.5319 O.3        1 <1>        0.000
      8 O8         -4.8398   -2.5583   -0.8587 O.3        1 <1>        0.000
      9 P3         -5.7670   -2.5894   -2.0918 P.3        1 <1>        0.000
     10 O9         -5.5629   -3.7033   -2.9763 O.2        1 <1>        0.000
     11 O10        -5.5498   -1.2412   -2.9589 O.3        1 <1>        0.000
     12 O11        -7.2572   -2.4891   -1.5620 O.3        1 <1>        0.000
     13 O12        -3.8287   -1.4746    1.2592 O.3        1 <1>        0.000
     14 H          -3.6306    2.0837   -2.3316 H.spc      1 <1>        0.000
     15 H          -1.4550    1.3153   -1.4323 H.spc      1 <1>        0.000
     16 H          -5.6795   -0.4751   -2.3951 H.spc      1 <1>        0.000
     17 H          -7.3377   -1.7313   -0.9781 H.spc      1 <1>        0.000
     18 H          -2.9985   -1.9315    1.1058 H.spc      1 <1>        0.000
@<TRIPOS>BOND
     1    9   12 1  
     2    8    9 1  
     3    9   11 1  
     4    9   10 2  
     5    1    2 2  
     6    1    3 1  
     7    1    8 1  
     8    1   13 1  
     9    3    4 1  
    10    4    5 2  
    11    4    6 1  
    12    4    7 1  
    13    6   14 1  
    14    7   15 1  
    15   11   16 1  
    16   12   17 1  
    17   13   18 1  
# Name:          frag3-112-79/31924 -- energy: -1.959526
# Creation time: Sat Jun  5 12:52:02 2010


@<TRIPOS>MOLECULE
frag3-112-79/31924 -- energy: -1.959526
   18    17     1     1     1
SMALL
USER_CHARGES


@<TRIPOS>ATOM
      1 P1         -4.6500   -0.7270   -0.9656 P.3        1 <1>        0.000
      2 O1         -5.0312   -0.7286    0.4541 O.2        1 <1>        0.000
      3 O2         -4.2491    0.7185   -1.3450 O.3        1 <1>        0.000
      4 P2         -3.2981    1.5570   -0.4398 P.3        1 <1>        0.000
      5 O3         -2.6483    2.6499   -1.1268 O.2        1 <1>        0.000
      6 O4         -2.2121    0.5158    0.0638 O.3        1 <1>        0.000
      7 O7         -4.1215    2.0043    0.8358 O.3        1 <1>        0.000
      8 O8         -5.7531   -1.3878   -1.8047 O.3        1 <1>        0.000
      9 P3         -6.0292   -2.9148   -1.6903 P.3        1 <1>        0.000
     10 O9         -4.8852   -3.6479   -2.2064 O.2        1 <1>        0.000
     11 O10        -7.3875   -3.3147   -2.3601 O.3        1 <1>        0.000
     12 O11        -6.2258   -3.2050   -0.1307 O.3        1 <1>        0.000
     13 O12        -3.3273   -1.6379   -1.1517 O.3        1 <1>        0.000
     14 H          -2.6503   -0.2070    0.5189 H.spc      1 <1>        0.000
     15 H          -4.5247    1.2333    1.2416 H.spc      1 <1>        0.000
     16 H          -8.0977   -2.7959   -1.9754 H.spc      1 <1>        0.000
     17 H          -6.9845   -2.7133    0.1920 H.spc      1 <1>        0.000
     18 H          -3.0709   -1.6426   -2.0768 H.spc      1 <1>        0.000
@<TRIPOS>BOND
     1    9   12 1  
     2    8    9 1  
     3    9   11 1  
     4    9   10 2  
     5    1    2 2  
     6    1    3 1  
     7    1    8 1  
     8    1   13 1  
     9    3    4 1  
    10    4    5 2  
    11    4    6 1  
    12    4    7 1  
    13    6   14 1  
    14    7   15 1  
    15   11   16 1  
    16   12   17 1  
    17   13   18 1  
# Name:          frag3-112-79/31924 -- energy: 1.347321
# Creation time: Sat Jun  5 12:52:02 2010


@<TRIPOS>MOLECULE
frag3-112-79/31924 -- energy: 1.347321
   18    17     1     1     1
SMALL
USER_CHARGES


@<TRIPOS>ATOM
      1 P1         -4.7294   -1.0862    0.0468 P.3        1 <1>        0.000
      2 O1         -4.6157   -2.2536    0.8768 O.2        1 <1>        0.000
      3 O2         -4.3500   -1.4927   -1.4221 O.3        1 <1>        0.000
      4 P2         -5.0906   -2.6612   -2.1453 P.3        1 <1>        0.000
      5 O3         -5.2851   -3.7180   -1.1792 O.2        1 <1>        0.000
      6 O4         -4.3053   -3.1622   -3.3781 O.3        1 <1>        0.000
      7 O7         -6.4798   -2.0629   -2.6510 O.3        1 <1>        0.000
      8 O8         -3.8809    0.1179    0.4843 O.3        1 <1>        0.000
      9 P3         -3.7770    1.4049   -0.4022 P.3        1 <1>        0.000
     10 O9         -5.1218    1.7067   -0.8752 O.2        1 <1>        0.000
     11 O10        -2.7934    1.0761   -1.6088 O.3        1 <1>        0.000
     12 O11        -3.1459    2.5633    0.4235 O.3        1 <1>        0.000
     13 O12        -6.2436   -0.5504   -0.0368 O.3        1 <1>        0.000
     14 H          -4.1926   -2.4394   -3.9997 H.spc      1 <1>        0.000
     15 H          -6.3132   -1.3656   -3.2895 H.spc      1 <1>        0.000
     16 H          -1.9188    0.8824   -1.2636 H.spc      1 <1>        0.000
     17 H          -2.2647    2.3093    0.7073 H.spc      1 <1>        0.000
     18 H          -6.2761    0.2274   -0.5986 H.spc      1 <1>        0.000
@<TRIPOS>BOND
     1    9   12 1  
     2    8    9 1  
     3    9   11 1  
     4    9   10 2  
     5    1    2 2  
     6    1    3 1  
     7    1    8 1  
     8    1   13 1  
     9    3    4 1  
    10    4    5 2  
    11    4    6 1  
    12    4    7 1  
    13    6   14 1  
    14    7   15 1  
    15   11   16 1  
    16   12   17 1  
    17   13   18 1  
# Name:          frag3-112-79/31924 -- energy: -2.312171
# Creation time: Sat Jun  5 12:52:02 2010


@<TRIPOS>MOLECULE
frag3-112-79/31924 -- energy: -2.312171
   18    17     1     1     1
SMALL
USER_CHARGES


@<TRIPOS>ATOM
      1 P1         -4.9219   -1.1156    0.1829 P.3        1 <1>        0.000
      2 O1         -5.4079   -0.6516    1.4587 O.2        1 <1>        0.000
      3 O2         -4.7443    0.1300   -0.7787 O.3        1 <1>        0.000
      4 P2         -3.4563    1.0148   -0.7392 P.3        1 <1>        0.000
      5 O3         -2.3030    0.1523   -0.9129 O.2        1 <1>        0.000
      6 O4         -3.4312    1.6388    0.7105 O.3        1 <1>        0.000
      7 O7         -3.5153    2.1980   -1.7560 O.3        1 <1>        0.000
      8 O8         -5.7982   -2.1530   -0.5284 O.3        1 <1>        0.000
      9 P3         -5.6783   -2.3921   -2.0637 P.3        1 <1>        0.000
     10 O9         -4.2798   -2.6138   -2.3902 O.2        1 <1>        0.000
     11 O10        -6.2362   -1.0806   -2.7999 O.3        1 <1>        0.000
     12 O11        -6.6139   -3.5460   -2.5383 O.3        1 <1>        0.000
     13 O12        -3.4321   -1.6993    0.2876 O.3        1 <1>        0.000
     14 H          -4.1945    2.2096    0.8252 H.spc      1 <1>        0.000
     15 H          -4.2988    2.7260   -1.5858 H.spc      1 <1>        0.000
     16 H          -7.1597   -0.9544   -2.5700 H.spc      1 <1>        0.000
     17 H          -7.5199   -3.3424   -2.2949 H.spc      1 <1>        0.000
     18 H          -3.1447   -1.9970   -0.5786 H.spc      1 <1>        0.000
@<TRIPOS>BOND
     1    9   12 1  
     2    8    9 1  
     3    9   11 1  
     4    9   10 2  
     5    1    2 2  
     6    1    3 1  
     7    1    8 1  
     8    1   13 1  
     9    3    4 1  
    10    4    5 2  
    11    4    6 1  
    12    4    7 1  
    13    6   14 1  
    14    7   15 1  
    15   11   16 1  
    16   12   17 1  
    17   13   18 1  
# Name:          frag3-112-79/31924 -- energy: -1.918453
# Creation time: Sat Jun  5 12:52:02 2010


@<TRIPOS>MOLECULE
frag3-112-79/31924 -- energy: -1.918453
   18    17     1     1     1
SMALL
USER_CHARGES


@<TRIPOS>ATOM
      1 P1         -4.8560   -1.1861    0.1720 P.3        1 <1>        0.000
      2 O1         -5.2212   -0.8352    1.5218 O.2        1 <1>        0.000
      3 O2         -4.7567    0.1272   -0.6970 O.3        1 <1>        0.000
      4 P2         -3.4768    1.0183   -0.7025 P.3        1 <1>        0.000
      5 O3         -2.3399    0.1810   -1.0421 O.2        1 <1>        0.000
      6 O4         -3.3233    1.5256    0.7857 O.3        1 <1>        0.000
      7 O7         -3.6212    2.2800   -1.6085 O.3        1 <1>        0.000
      8 O8         -5.7920   -2.1729   -0.5408 O.3        1 <1>        0.000
      9 P3         -5.8303   -2.2635   -2.1008 P.3        1 <1>        0.000
     10 O9         -6.3399   -1.0135   -2.6336 O.2        1 <1>        0.000
     11 O10        -6.6045   -3.5277   -2.5887 O.3        1 <1>        0.000
     12 O11        -4.3005   -2.4787   -2.5313 O.3        1 <1>        0.000
     13 O12        -3.3561   -1.7727    0.0984 O.3        1 <1>        0.000
     14 H          -4.0738    2.0795    1.0128 H.spc      1 <1>        0.000
     15 H          -4.3884    2.7859   -1.3308 H.spc      1 <1>        0.000
     16 H          -6.2131   -4.3121   -2.1973 H.spc      1 <1>        0.000
     17 H          -3.9814   -3.3091   -2.1703 H.spc      1 <1>        0.000
     18 H          -3.1452   -1.9957   -0.8112 H.spc      1 <1>        0.000
@<TRIPOS>BOND
     1    9   12 1  
     2    8    9 1  
     3    9   11 1  
     4    9   10 2  
     5    1    2 2  
     6    1    3 1  
     7    1    8 1  
     8    1   13 1  
     9    3    4 1  
    10    4    5 2  
    11    4    6 1  
    12    4    7 1  
    13    6   14 1  
    14    7   15 1  
    15   11   16 1  
    16   12   17 1  
    17   13   18 1  
# Name:          frag3-112-79/31924 -- energy: 0.756795
# Creation time: Sat Jun  5 12:52:02 2010


@<TRIPOS>MOLECULE
frag3-112-79/31924 -- energy: 0.756795
   18    17     1     1     1
SMALL
USER_CHARGES


@<TRIPOS>ATOM
      1 P1         -4.2644   -1.0561   -0.8259 P.3        1 <1>        0.000
      2 O1         -5.5388   -0.4864   -0.3188 O.2        1 <1>        0.000
      3 O2         -3.3768    0.1246   -1.2667 O.3        1 <1>        0.000
      4 P2         -3.1977    1.3708   -0.3536 P.3        1 <1>        0.000
      5 O3         -2.5176    0.9853    0.8658 O.2        1 <1>        0.000
      6 O4         -4.6702    1.8461    0.0050 O.3        1 <1>        0.000
      7 O7         -2.5288    2.5757   -1.0946 O.3        1 <1>        0.000
      8 O8         -4.6568   -2.0594   -1.9381 O.3        1 <1>        0.000
      9 P3         -6.0309   -2.7817   -1.9105 P.3        1 <1>        0.000
     10 O9         -6.1278   -3.9055   -2.8195 O.2        1 <1>        0.000
     11 O10        -7.1505   -1.6750   -2.1668 O.3        1 <1>        0.000
     12 O11        -6.2392   -3.2259   -0.3901 O.3        1 <1>        0.000
     13 O12        -3.5189   -1.8307    0.3463 O.3        1 <1>        0.000
     14 H          -5.1270    2.1033   -0.7992 H.spc      1 <1>        0.000
     15 H          -3.0274    2.7776   -1.8897 H.spc      1 <1>        0.000
     16 H          -7.0389   -0.9572   -1.5391 H.spc      1 <1>        0.000
     17 H          -6.1681   -2.4564    0.1795 H.spc      1 <1>        0.000
     18 H          -2.6962   -2.1969    0.0137 H.spc      1 <1>        0.000
@<TRIPOS>BOND
     1    9   12 1  
     2    8    9 1  
     3    9   11 1  
     4    9   10 2  
     5    1    2 2  
     6    1    3 1  
     7    1    8 1  
     8    1   13 1  
     9    3    4 1  
    10    4    5 2  
    11    4    6 1  
    12    4    7 1  
    13    6   14 1  
    14    7   15 1  
    15   11   16 1  
    16   12   17 1  
    17   13   18 1  
# Name:          frag3-112-79/31924 -- energy: -0.923210
# Creation time: Sat Jun  5 12:52:02 2010


@<TRIPOS>MOLECULE
frag3-112-79/31924 -- energy: -0.923210
   18    17     1     1     1
SMALL
USER_CHARGES


@<TRIPOS>ATOM
      1 P1         -3.9098   -1.3432   -0.2029 P.3        1 <1>        0.000
      2 O1         -2.5072   -1.6280   -0.3033 O.2        1 <1>        0.000
      3 O2         -4.5931   -1.3148   -1.6319 O.3        1 <1>        0.000
      4 P2         -5.8102   -2.2327   -1.9711 P.3        1 <1>        0.000
      5 O3         -6.8588   -1.9669   -1.0082 O.2        1 <1>        0.000
      6 O4         -5.2708   -3.7067   -1.7418 O.3        1 <1>        0.000
      7 O7         -6.2478   -2.1181   -3.4570 O.3        1 <1>        0.000
      8 O8         -4.1533    0.0467    0.4276 O.3        1 <1>        0.000
      9 P3         -3.9330    1.3238   -0.4360 P.3        1 <1>        0.000
     10 O9         -3.0229    0.9766   -1.5100 O.2        1 <1>        0.000
     11 O10        -3.4479    2.5519    0.4089 O.3        1 <1>        0.000
     12 O11        -5.3499    1.7673   -1.0196 O.3        1 <1>        0.000
     13 O12        -4.7136   -2.4741    0.5777 O.3        1 <1>        0.000
     14 H          -4.5744   -3.8936   -2.3756 H.spc      1 <1>        0.000
     15 H          -5.4982   -2.3083   -4.0258 H.spc      1 <1>        0.000
     16 H          -4.0868    2.7347    1.1017 H.spc      1 <1>        0.000
     17 H          -5.9371    1.9927   -0.2943 H.spc      1 <1>        0.000
     18 H          -5.6427   -2.2358    0.6165 H.spc      1 <1>        0.000
@<TRIPOS>BOND
     1    9   12 1  
     2    8    9 1  
     3    9   11 1  
     4    9   10 2  
     5    1    2 2  
     6    1    3 1  
     7    1    8 1  
     8    1   13 1  
     9    3    4 1  
    10    4    5 2  
    11    4    6 1  
    12    4    7 1  
    13    6   14 1  
    14    7   15 1  
    15   11   16 1  
    16   12   17 1  
    17   13   18 1  
# Name:          frag3-112-79/31924 -- energy: 1.439064
# Creation time: Sat Jun  5 12:52:02 2010


@<TRIPOS>MOLECULE
frag3-112-79/31924 -- energy: 1.439064
   18    17     1     1     1
SMALL
USER_CHARGES


@<TRIPOS>ATOM
      1 P1         -4.7815   -1.0401    0.0459 P.3        1 <1>        0.000
      2 O1         -4.8104   -2.1743    0.9279 O.2        1 <1>        0.000
      3 O2         -4.3784   -1.5404   -1.3875 O.3        1 <1>        0.000
      4 P2         -5.1782   -2.6745   -2.0933 P.3        1 <1>        0.000
      5 O3         -4.7895   -3.9569   -1.5675 O.2        1 <1>        0.000
      6 O4         -5.0093   -2.6088   -3.6338 O.3        1 <1>        0.000
      7 O7         -6.7253   -2.3618   -1.8087 O.3        1 <1>        0.000
      8 O8         -3.8540    0.1072    0.4719 O.3        1 <1>        0.000
      9 P3         -3.6083    1.3308   -0.4650 P.3        1 <1>        0.000
     10 O9         -4.7329    1.3768   -1.3978 O.2        1 <1>        0.000
     11 O10        -2.2270    1.1478   -1.2149 O.3        1 <1>        0.000
     12 O11        -3.4800    2.6479    0.3665 O.3        1 <1>        0.000
     13 O12        -6.2436   -0.3719   -0.1111 O.3        1 <1>        0.000
     14 H          -5.2773   -1.7419   -3.9473 H.spc      1 <1>        0.000
     15 H          -6.9488   -1.5017   -2.1719 H.spc      1 <1>        0.000
     16 H          -1.5155    1.1223   -0.5709 H.spc      1 <1>        0.000
     17 H          -2.7322    2.5761    0.9642 H.spc      1 <1>        0.000
     18 H          -6.1883    0.3804   -0.7049 H.spc      1 <1>        0.000
@<TRIPOS>BOND
     1    9   12 1  
     2    8    9 1  
     3    9   11 1  
     4    9   10 2  
     5    1    2 2  
     6    1    3 1  
     7    1    8 1  
     8    1   13 1  
     9    3    4 1  
    10    4    5 2  
    11    4    6 1  
    12    4    7 1  
    13    6   14 1  
    14    7   15 1  
    15   11   16 1  
    16   12   17 1  
    17   13   18 1  
# Name:          frag3-112-79/31924 -- energy: 2.688588
# Creation time: Sat Jun  5 12:52:02 2010


@<TRIPOS>MOLECULE
frag3-112-79/31924 -- energy: 2.688588
   18    17     1     1     1
SMALL
USER_CHARGES


@<TRIPOS>ATOM
      1 P1         -4.4323   -1.2084    0.2072 P.3        1 <1>        0.000
      2 O1         -4.4102   -2.0842    1.3479 O.2        1 <1>        0.000
      3 O2         -4.1284   -1.9981   -1.1130 O.3        1 <1>        0.000
      4 P2         -5.2707   -2.5533   -2.0275 P.3        1 <1>        0.000
      5 O3         -6.0295   -3.5354   -1.2869 O.2        1 <1>        0.000
      6 O4         -4.7300   -3.1198   -3.3590 O.3        1 <1>        0.000
      7 O7         -6.1839   -1.2736   -2.3926 O.3        1 <1>        0.000
      8 O8         -3.5335    0.0368    0.2947 O.3        1 <1>        0.000
      9 P3         -3.7367    1.2467   -0.6724 P.3        1 <1>        0.000
     10 O9         -4.4248    0.7372   -1.8639 O.2        1 <1>        0.000
     11 O10        -2.3781    1.9541   -1.0144 O.3        1 <1>        0.000
     12 O11        -4.6214    2.3291    0.0686 O.3        1 <1>        0.000
     13 O12        -5.9390   -0.6494   -0.0562 O.3        1 <1>        0.000
     14 H          -4.2340   -2.4378   -3.8177 H.spc      1 <1>        0.000
     15 H          -5.6590   -0.6368   -2.8832 H.spc      1 <1>        0.000
     16 H          -1.9693    2.2681   -0.2045 H.spc      1 <1>        0.000
     17 H          -4.1527    2.6480    0.8433 H.spc      1 <1>        0.000
     18 H          -5.9343   -0.0677   -0.8199 H.spc      1 <1>        0.000
@<TRIPOS>BOND
     1    9   12 1  
     2    8    9 1  
     3    9   11 1  
     4    9   10 2  
     5    1    2 2  
     6    1    3 1  
     7    1    8 1  
     8    1   13 1  
     9    3    4 1  
    10    4    5 2  
    11    4    6 1  
    12    4    7 1  
    13    6   14 1  
    14    7   15 1  
    15   11   16 1  
    16   12   17 1  
    17   13   18 1  
# Name:          frag3-112-79/31924 -- energy: -1.772997
# Creation time: Sat Jun  5 12:52:02 2010


@<TRIPOS>MOLECULE
frag3-112-79/31924 -- energy: -1.772997
   18    17     1     1     1
SMALL
USER_CHARGES


@<TRIPOS>ATOM
      1 P1         -4.7241   -1.2923    0.3293 P.3        1 <1>        0.000
      2 O1         -5.2977   -0.6334    1.4563 O.2        1 <1>        0.000
      3 O2         -3.5452   -0.4120   -0.2234 O.3        1 <1>        0.000
      4 P2         -3.8315    1.0645   -0.6334 P.3        1 <1>        0.000
      5 O3         -5.2021    1.3574   -0.2709 O.2        1 <1>        0.000
      6 O4         -3.6586    1.2273   -2.1802 O.3        1 <1>        0.000
      7 O7         -2.7985    2.0377    0.0532 O.3        1 <1>        0.000
      8 O8         -5.7139   -1.4018   -0.9007 O.3        1 <1>        0.000
      9 P3         -5.2632   -2.1239   -2.2123 P.3        1 <1>        0.000
     10 O9         -3.8223   -2.3165   -2.1126 O.2        1 <1>        0.000
     11 O10        -5.6873   -1.3286   -3.4943 O.3        1 <1>        0.000
     12 O11        -6.0078   -3.5195   -2.2977 O.3        1 <1>        0.000
     13 O12        -4.2660   -2.7771    0.6191 O.3        1 <1>        0.000
     14 H          -2.7499    1.0333   -2.4217 H.spc      1 <1>        0.000
     15 H          -1.9086    1.8017   -0.2190 H.spc      1 <1>        0.000
     16 H          -6.6423   -1.2318   -3.5081 H.spc      1 <1>        0.000
     17 H          -6.9542   -3.3725   -2.3627 H.spc      1 <1>        0.000
     18 H          -3.8916   -3.1568   -0.1791 H.spc      1 <1>        0.000
@<TRIPOS>BOND
     1    9   12 1  
     2    8    9 1  
     3    9   11 1  
     4    9   10 2  
     5    1    2 2  
     6    1    3 1  
     7    1    8 1  
     8    1   13 1  
     9    3    4 1  
    10    4    5 2  
    11    4    6 1  
    12    4    7 1  
    13    6   14 1  
    14    7   15 1  
    15   11   16 1  
    16   12   17 1  
    17   13   18 1  
# Name:          frag3-112-79/31924 -- energy: -2.557015
# Creation time: Sat Jun  5 12:52:02 2010


@<TRIPOS>MOLECULE
frag3-112-79/31924 -- energy: -2.557015
   18    17     1     1     1
SMALL
USER_CHARGES


@<TRIPOS>ATOM
      1 P1         -4.3347   -1.2132   -0.0308 P.3        1 <1>        0.000
      2 O1         -5.5260   -0.8416    0.7155 O.2        1 <1>        0.000
      3 O2         -3.2759   -0.1076    0.1257 O.3        1 <1>        0.000
      4 P2         -3.4343    1.2594   -0.5947 P.3        1 <1>        0.000
      5 O3         -3.4000    1.0648   -2.0214 O.2        1 <1>        0.000
      6 O4         -2.3918    2.2953   -0.1312 O.3        1 <1>        0.000
      7 O7         -4.8636    1.8264   -0.1205 O.3        1 <1>        0.000
      8 O8         -4.7455   -1.3143   -1.5423 O.3        1 <1>        0.000
      9 P3         -5.7624   -2.3887   -2.0191 P.3        1 <1>        0.000
     10 O9         -5.9085   -3.3279   -0.9247 O.2        1 <1>        0.000
     11 O10        -5.2851   -3.0791   -3.3496 O.3        1 <1>        0.000
     12 O11        -7.1236   -1.6718   -2.3609 O.3        1 <1>        0.000
     13 O12        -3.7671   -2.6198    0.3863 O.3        1 <1>        0.000
     14 H          -2.4453    2.3971    0.8219 H.spc      1 <1>        0.000
     15 H          -4.8589    1.9465    0.8319 H.spc      1 <1>        0.000
     16 H          -5.2040   -2.4177   -4.0407 H.spc      1 <1>        0.000
     17 H          -6.9878   -1.0596   -3.0878 H.spc      1 <1>        0.000
     18 H          -2.9847   -2.8151   -0.1345 H.spc      1 <1>        0.000
@<TRIPOS>BOND
     1    9   12 1  
     2    8    9 1  
     3    9   11 1  
     4    9   10 2  
     5    1    2 2  
     6    1    3 1  
     7    1    8 1  
     8    1   13 1  
     9    3    4 1  
    10    4    5 2  
    11    4    6 1  
    12    4    7 1  
    13    6   14 1  
    14    7   15 1  
    15   11   16 1  
    16   12   17 1  
    17   13   18 1  
# Name:          frag3-112-79/31924 -- energy: -2.500040
# Creation time: Sat Jun  5 12:52:02 2010


@<TRIPOS>MOLECULE
frag3-112-79/31924 -- energy: -2.500040
   18    17     1     1     1
SMALL
USER_CHARGES


@<TRIPOS>ATOM
      1 P1         -4.7279   -1.2724    0.3256 P.3        1 <1>        0.000
      2 O1         -3.5094   -1.9659   -0.1040 O.2        1 <1>        0.000
      3 O2         -5.6545   -1.2793   -0.9469 O.3        1 <1>        0.000
      4 P2         -5.3452   -2.1797   -2.1823 P.3        1 <1>        0.000
      5 O3         -5.1401   -3.5305   -1.7046 O.2        1 <1>        0.000
      6 O4         -3.9894   -1.6315   -2.7827 O.3        1 <1>        0.000
      7 O7         -6.4017   -2.0662   -3.3215 O.3        1 <1>        0.000
      8 O8         -4.3509    0.2006    0.6115 O.3        1 <1>        0.000
      9 P3         -3.9787    1.1989   -0.5157 P.3        1 <1>        0.000
     10 O9         -5.1727    1.6917   -1.1719 O.2        1 <1>        0.000
     11 O10        -3.0758    0.3711   -1.5625 O.3        1 <1>        0.000
     12 O11        -3.0243    2.3214   -0.0180 O.3        1 <1>        0.000
     13 O12        -5.4480   -1.9765    1.5056 O.3        1 <1>        0.000
     14 H          -4.1208   -0.7354   -3.1009 H.spc      1 <1>        0.000
     15 H          -6.4859   -1.1478   -3.5879 H.spc      1 <1>        0.000
     16 H          -2.2878    0.0490   -1.1189 H.spc      1 <1>        0.000
     17 H          -2.2587    1.9250    0.4042 H.spc      1 <1>        0.000
     18 H          -6.2345   -1.4792    1.7416 H.spc      1 <1>        0.000
@<TRIPOS>BOND
     1    9   12 1  
     2    8    9 1  
     3    9   11 1  
     4    9   10 2  
     5    1    2 2  
     6    1    3 1  
     7    1    8 1  
     8    1   13 1  
     9    3    4 1  
    10    4    5 2  
    11    4    6 1  
    12    4    7 1  
    13    6   14 1  
    14    7   15 1  
    15   11   16 1  
    16   12   17 1  
    17   13   18 1  
# Name:          frag3-112-79/31924 -- energy: -1.664396
# Creation time: Sat Jun  5 12:52:02 2010


@<TRIPOS>MOLECULE
frag3-112-79/31924 -- energy: -1.664396
   18    17     1     1     1
SMALL
USER_CHARGES


@<TRIPOS>ATOM
      1 P1         -4.7321   -1.0073   -0.1731 P.3        1 <1>        0.000
      2 O1         -5.9496   -0.2402    0.0424 O.2        1 <1>        0.000
      3 O2         -3.5311   -0.1381    0.2184 O.3        1 <1>        0.000
      4 P2         -3.4667    1.3458   -0.2600 P.3        1 <1>        0.000
      5 O3         -4.7059    1.6278   -0.9516 O.2        1 <1>        0.000
      6 O4         -2.2686    1.5052   -1.2477 O.3        1 <1>        0.000
      7 O7         -3.2174    2.2909    0.9692 O.3        1 <1>        0.000
      8 O8         -4.6502   -1.4031   -1.6936 O.3        1 <1>        0.000
      9 P3         -5.3819   -2.6706   -2.2318 P.3        1 <1>        0.000
     10 O9         -4.7143   -3.8473   -1.7262 O.2        1 <1>        0.000
     11 O10        -5.5629   -2.6416   -3.7818 O.3        1 <1>        0.000
     12 O11        -6.8650   -2.5525   -1.6312 O.3        1 <1>        0.000
     13 O12        -4.7727   -2.3873    0.5994 O.3        1 <1>        0.000
     14 H          -1.4479    1.3176   -0.7864 H.spc      1 <1>        0.000
     15 H          -2.3849    2.0581    1.3867 H.spc      1 <1>        0.000
     16 H          -6.0121   -1.8320   -4.0353 H.spc      1 <1>        0.000
     17 H          -7.2886   -1.7649   -1.9803 H.spc      1 <1>        0.000
     18 H          -3.9576   -2.8677    0.4371 H.spc      1 <1>        0.000
@<TRIPOS>BOND
     1    9   12 1  
     2    8    9 1  
     3    9   11 1  
     4    9   10 2  
     5    1    2 2  
     6    1    3 1  
     7    1    8 1  
     8    1   13 1  
     9    3    4 1  
    10    4    5 2  
    11    4    6 1  
    12    4    7 1  
    13    6   14 1  
    14    7   15 1  
    15   11   16 1  
    16   12   17 1  
    17   13   18 1  
# Name:          frag3-112-79/31924 -- energy: -2.151434
# Creation time: Sat Jun  5 12:52:02 2010


@<TRIPOS>MOLECULE
frag3-112-79/31924 -- energy: -2.151434
   18    17     1     1     1
SMALL
USER_CHARGES


@<TRIPOS>ATOM
      1 P1         -4.3869   -1.2437    0.2715 P.3        1 <1>        0.000
      2 O1         -5.0567   -1.5068    1.5202 O.2        1 <1>        0.000
      3 O2         -3.4536   -0.0158    0.3017 O.3        1 <1>        0.000
      4 P2         -3.5314    1.0844   -0.8016 P.3        1 <1>        0.000
      5 O3         -3.3342    0.4591   -2.0973 O.2        1 <1>        0.000
      6 O4         -2.5217    2.2257   -0.5556 O.3        1 <1>        0.000
      7 O7         -4.9923    1.7268   -0.6860 O.3        1 <1>        0.000
      8 O8         -5.4494   -0.9861   -0.8644 O.3        1 <1>        0.000
      9 P3         -5.8533   -2.0882   -1.8864 P.3        1 <1>        0.000
     10 O9         -6.3987   -3.2094   -1.1474 O.2        1 <1>        0.000
     11 O10        -4.4933   -2.5043   -2.6492 O.3        1 <1>        0.000
     12 O11        -6.7934   -1.5657   -3.0099 O.3        1 <1>        0.000
     13 O12        -3.5535   -2.4942   -0.2630 O.3        1 <1>        0.000
     14 H          -2.6828    2.6134    0.3077 H.spc      1 <1>        0.000
     15 H          -5.0949    2.1321    0.1782 H.spc      1 <1>        0.000
     16 H          -4.1527   -1.7464   -3.1301 H.spc      1 <1>        0.000
     17 H          -6.3748   -0.8271   -3.4581 H.spc      1 <1>        0.000
     18 H          -3.1303   -2.2640   -1.0933 H.spc      1 <1>        0.000
@<TRIPOS>BOND
     1    9   12 1  
     2    8    9 1  
     3    9   11 1  
     4    9   10 2  
     5    1    2 2  
     6    1    3 1  
     7    1    8 1  
     8    1   13 1  
     9    3    4 1  
    10    4    5 2  
    11    4    6 1  
    12    4    7 1  
    13    6   14 1  
    14    7   15 1  
    15   11   16 1  
    16   12   17 1  
    17   13   18 1  
# Name:          frag3-112-79/31924 -- energy: -1.920043
# Creation time: Sat Jun  5 12:52:02 2010


@<TRIPOS>MOLECULE
frag3-112-79/31924 -- energy: -1.920043
   18    17     1     1     1
SMALL
USER_CHARGES


@<TRIPOS>ATOM
      1 P1         -4.2670   -1.3903    0.2997 P.3        1 <1>        0.000
      2 O1         -5.6657   -1.1741    0.6566 O.2        1 <1>        0.000
      3 O2         -3.5324   -0.0298    0.3426 O.3        1 <1>        0.000
      4 P2         -3.5742    0.9695   -0.8452 P.3        1 <1>        0.000
      5 O3         -3.1845    0.2683   -2.0541 O.2        1 <1>        0.000
      6 O4         -2.6873    2.2083   -0.6049 O.3        1 <1>        0.000
      7 O7         -5.0808    1.4849   -0.9489 O.3        1 <1>        0.000
      8 O8         -4.3078   -1.8239   -1.2168 O.3        1 <1>        0.000
      9 P3         -5.6427   -2.0537   -1.9786 P.3        1 <1>        0.000
     10 O9         -6.2715   -3.2456   -1.4368 O.2        1 <1>        0.000
     11 O10        -5.4883   -2.0629   -3.5307 O.3        1 <1>        0.000
     12 O11        -6.5288   -0.7575   -1.6778 O.3        1 <1>        0.000
     13 O12        -3.5875   -2.5114    1.1275 O.3        1 <1>        0.000
     14 H          -2.9682    2.6504    0.1996 H.spc      1 <1>        0.000
     15 H          -5.3169    1.9449   -0.1400 H.spc      1 <1>        0.000
     16 H          -5.0673   -1.2480   -3.8141 H.spc      1 <1>        0.000
     17 H          -6.0955    0.0170   -2.0439 H.spc      1 <1>        0.000
     18 H          -2.6740   -2.6053    0.8478 H.spc      1 <1>        0.000
@<TRIPOS>BOND
     1    9   12 1  
     2    8    9 1  
     3    9   11 1  
     4    9   10 2  
     5    1    2 2  
     6    1    3 1  
     7    1    8 1  
     8    1   13 1  
     9    3    4 1  
    10    4    5 2  
    11    4    6 1  
    12    4    7 1  
    13    6   14 1  
    14    7   15 1  
    15   11   16 1  
    16   12   17 1  
    17   13   18 1  
# Name:          frag3-112-79/31924 -- energy: -0.099537
# Creation time: Sat Jun  5 12:52:02 2010


@<TRIPOS>MOLECULE
frag3-112-79/31924 -- energy: -0.099537
   18    17     1     1     1
SMALL
USER_CHARGES


@<TRIPOS>ATOM
      1 P1         -4.5987   -1.2541    0.0721 P.3        1 <1>        0.000
      2 O1         -5.7080   -1.4383    0.9659 O.2        1 <1>        0.000
      3 O2         -4.7402    0.1000   -0.7351 O.3        1 <1>        0.000
      4 P2         -3.6220    1.1909   -0.6984 P.3        1 <1>        0.000
      5 O3         -2.3726    0.5505   -1.0640 O.2        1 <1>        0.000
      6 O4         -3.5519    1.6471    0.8078 O.3        1 <1>        0.000
      7 O7         -3.9863    2.4209   -1.5771 O.3        1 <1>        0.000
      8 O8         -4.5438   -2.3952   -0.9715 O.3        1 <1>        0.000
      9 P3         -5.6468   -2.5045   -2.0668 P.3        1 <1>        0.000
     10 O9         -6.9216   -2.7306   -1.4352 O.2        1 <1>        0.000
     11 O10        -5.2838   -3.5349   -3.1841 O.3        1 <1>        0.000
     12 O11        -5.6291   -1.0753   -2.8121 O.3        1 <1>        0.000
     13 O12        -3.2137   -1.0948    0.8310 O.3        1 <1>        0.000
     14 H          -4.3780    2.0711    1.0513 H.spc      1 <1>        0.000
     15 H          -4.8204    2.7904   -1.2783 H.spc      1 <1>        0.000
     16 H          -4.4248   -3.3161   -3.5528 H.spc      1 <1>        0.000
     17 H          -4.7734   -0.9423   -3.2264 H.spc      1 <1>        0.000
     18 H          -2.5102   -0.9751    0.1889 H.spc      1 <1>        0.000
@<TRIPOS>BOND
     1    9   12 1  
     2    8    9 1  
     3    9   11 1  
     4    9   10 2  
     5    1    2 2  
     6    1    3 1  
     7    1    8 1  
     8    1   13 1  
     9    3    4 1  
    10    4    5 2  
    11    4    6 1  
    12    4    7 1  
    13    6   14 1  
    14    7   15 1  
    15   11   16 1  
    16   12   17 1  
    17   13   18 1  
# Name:          frag3-112-79/31924 -- energy: -2.578067
# Creation time: Sat Jun  5 12:52:02 2010


@<TRIPOS>MOLECULE
frag3-112-79/31924 -- energy: -2.578067
   18    17     1     1     1
SMALL
USER_CHARGES


@<TRIPOS>ATOM
      1 P1         -4.1910   -1.2673    0.0132 P.3        1 <1>        0.000
      2 O1         -5.1609   -1.6242    1.0265 O.2        1 <1>        0.000
      3 O2         -3.4846    0.0678    0.2934 O.3        1 <1>        0.000
      4 P2         -3.3914    1.1837   -0.7957 P.3        1 <1>        0.000
      5 O3         -3.0504    0.5398   -2.0491 O.2        1 <1>        0.000
      6 O4         -2.3429    2.2457   -0.4075 O.3        1 <1>        0.000
      7 O7         -4.8250    1.8664   -0.8463 O.3        1 <1>        0.000
      8 O8         -5.0079   -1.1027   -1.3344 O.3        1 <1>        0.000
      9 P3         -6.0167   -2.1754   -1.8227 P.3        1 <1>        0.000
     10 O9         -5.2855   -3.3872   -2.1345 O.2        1 <1>        0.000
     11 O10        -6.9428   -1.6666   -2.9676 O.3        1 <1>        0.000
     12 O11        -6.9754   -2.3902   -0.5646 O.3        1 <1>        0.000
     13 O12        -3.1438   -2.4081   -0.2783 O.3        1 <1>        0.000
     14 H          -2.5950    2.6536    0.4242 H.spc      1 <1>        0.000
     15 H          -5.0114    2.2797   -0.0001 H.spc      1 <1>        0.000
     16 H          -7.3890   -0.8652   -2.6844 H.spc      1 <1>        0.000
     17 H          -7.4467   -1.5745   -0.3799 H.spc      1 <1>        0.000
     18 H          -2.5307   -2.1128   -0.9555 H.spc      1 <1>        0.000
@<TRIPOS>BOND
     1    9   12 1  
     2    8    9 1  
     3    9   11 1  
     4    9   10 2  
     5    1    2 2  
     6    1    3 1  
     7    1    8 1  
     8    1   13 1  
     9    3    4 1  
    10    4    5 2  
    11    4    6 1  
    12    4    7 1  
    13    6   14 1  
    14    7   15 1  
    15   11   16 1  
    16   12   17 1  
    17   13   18 1  
# Name:          frag3-112-79/31924 -- energy: 0.138879
# Creation time: Sat Jun  5 12:52:02 2010


@<TRIPOS>MOLECULE
frag3-112-79/31924 -- energy: 0.138879
   18    17     1     1     1
SMALL
USER_CHARGES


@<TRIPOS>ATOM
      1 P1         -4.3445   -1.2982   -0.0932 P.3        1 <1>        0.000
      2 O1         -5.5102   -0.4457    0.2558 O.2        1 <1>        0.000
      3 O2         -3.5074   -0.4417   -1.1166 O.3        1 <1>        0.000
      4 P2         -3.2494    1.0746   -0.8867 P.3        1 <1>        0.000
      5 O3         -2.2142    1.6478   -1.7114 O.2        1 <1>        0.000
      6 O4         -2.8549    1.1887    0.6454 O.3        1 <1>        0.000
      7 O7         -4.6465    1.8280   -1.0156 O.3        1 <1>        0.000
      8 O8         -4.8890   -2.5751   -0.7687 O.3        1 <1>        0.000
      9 P3         -5.9943   -2.4941   -1.8552 P.3        1 <1>        0.000
     10 O9         -5.9187   -3.5435   -2.8502 O.2        1 <1>        0.000
     11 O10        -5.8321   -1.0314   -2.5148 O.3        1 <1>        0.000
     12 O11        -7.3947   -2.4348   -1.1247 O.3        1 <1>        0.000
     13 O12        -3.4626   -1.5928    1.1683 O.3        1 <1>        0.000
     14 H          -3.5509    0.8043    1.1834 H.spc      1 <1>        0.000
     15 H          -5.2919    1.4027   -0.4462 H.spc      1 <1>        0.000
     16 H          -5.8873   -0.3637   -1.8273 H.spc      1 <1>        0.000
     17 H          -7.3878   -1.7243   -0.4791 H.spc      1 <1>        0.000
     18 H          -2.7184   -2.1440    0.9154 H.spc      1 <1>        0.000
@<TRIPOS>BOND
     1    9   12 1  
     2    8    9 1  
     3    9   11 1  
     4    9   10 2  
     5    1    2 2  
     6    1    3 1  
     7    1    8 1  
     8    1   13 1  
     9    3    4 1  
    10    4    5 2  
    11    4    6 1  
    12    4    7 1  
    13    6   14 1  
    14    7   15 1  
    15   11   16 1  
    16   12   17 1  
    17   13   18 1  
# Name:          frag3-112-79/31924 -- energy: 1.865811
# Creation time: Sat Jun  5 12:52:02 2010


@<TRIPOS>MOLECULE
frag3-112-79/31924 -- energy: 1.865811
   18    17     1     1     1
SMALL
USER_CHARGES


@<TRIPOS>ATOM
      1 P1         -4.8594   -1.2191    0.2469 P.3        1 <1>        0.000
      2 O1         -5.4722   -0.5231    1.3370 O.2        1 <1>        0.000
      3 O2         -3.5483   -0.4461   -0.1524 O.3        1 <1>        0.000
      4 P2         -3.6390    1.0617   -0.5412 P.3        1 <1>        0.000
      5 O3         -5.0065    1.4774   -0.3216 O.2        1 <1>        0.000
      6 O4         -3.2943    1.2175   -2.0660 O.3        1 <1>        0.000
      7 O7         -2.5967    1.9196    0.2550 O.3        1 <1>        0.000
      8 O8         -5.7186   -1.2348   -1.0620 O.3        1 <1>        0.000
      9 P3         -5.4098   -2.2240   -2.2248 P.3        1 <1>        0.000
     10 O9         -5.2314   -3.5414   -1.6545 O.2        1 <1>        0.000
     11 O10        -4.0462   -1.7210   -2.9201 O.3        1 <1>        0.000
     12 O11        -6.4867   -2.1646   -3.3415 O.3        1 <1>        0.000
     13 O12        -4.5092   -2.7204    0.5776 O.3        1 <1>        0.000
     14 H          -2.3870    0.9427   -2.2175 H.spc      1 <1>        0.000
     15 H          -1.7113    1.5981    0.0699 H.spc      1 <1>        0.000
     16 H          -4.1819   -0.8468   -3.2928 H.spc      1 <1>        0.000
     17 H          -6.5526   -1.2662   -3.6735 H.spc      1 <1>        0.000
     18 H          -4.1030   -3.1296   -0.1900 H.spc      1 <1>        0.000
@<TRIPOS>BOND
     1    9   12 1  
     2    8    9 1  
     3    9   11 1  
     4    9   10 2  
     5    1    2 2  
     6    1    3 1  
     7    1    8 1  
     8    1   13 1  
     9    3    4 1  
    10    4    5 2  
    11    4    6 1  
    12    4    7 1  
    13    6   14 1  
    14    7   15 1  
    15   11   16 1  
    16   12   17 1  
    17   13   18 1  
# Name:          frag3-112-79/31924 -- energy: -0.901791
# Creation time: Sat Jun  5 12:52:02 2010


@<TRIPOS>MOLECULE
frag3-112-79/31924 -- energy: -0.901791
   18    17     1     1     1
SMALL
USER_CHARGES


@<TRIPOS>ATOM
      1 P1         -4.0911   -1.2786   -0.1397 P.3        1 <1>        0.000
      2 O1         -2.9778   -1.7389   -0.9659 O.2        1 <1>        0.000
      3 O2         -5.3304   -1.1252   -1.1065 O.3        1 <1>        0.000
      4 P2         -5.8717   -2.3069   -1.9464 P.3        1 <1>        0.000
      5 O3         -6.9597   -2.9736   -1.2846 O.2        1 <1>        0.000
      6 O4         -4.6266   -3.3167   -2.0071 O.3        1 <1>        0.000
      7 O7         -6.1531   -1.9554   -3.4438 O.3        1 <1>        0.000
      8 O8         -3.7536    0.0956    0.4587 O.3        1 <1>        0.000
      9 P3         -3.8556    1.3824   -0.4242 P.3        1 <1>        0.000
     10 O9         -3.9059    0.9399   -1.8084 O.2        1 <1>        0.000
     11 O10        -2.6270    2.3168   -0.1359 O.3        1 <1>        0.000
     12 O11        -5.1565    2.1726   -0.0156 O.3        1 <1>        0.000
     13 O12        -4.5094   -2.3302    0.9518 O.3        1 <1>        0.000
     14 H          -3.8890   -2.8874   -2.4468 H.spc      1 <1>        0.000
     15 H          -5.3864   -1.5147   -3.8174 H.spc      1 <1>        0.000
     16 H          -2.6373    2.5815    0.7868 H.spc      1 <1>        0.000
     17 H          -5.0875    2.4479    0.9015 H.spc      1 <1>        0.000
     18 H          -5.2415   -1.9820    1.4660 H.spc      1 <1>        0.000
@<TRIPOS>BOND
     1    9   12 1  
     2    8    9 1  
     3    9   11 1  
     4    9   10 2  
     5    1    2 2  
     6    1    3 1  
     7    1    8 1  
     8    1   13 1  
     9    3    4 1  
    10    4    5 2  
    11    4    6 1  
    12    4    7 1  
    13    6   14 1  
    14    7   15 1  
    15   11   16 1  
    16   12   17 1  
    17   13   18 1  
# Name:          frag3-112-79/31924 -- energy: -0.580086
# Creation time: Sat Jun  5 12:52:02 2010


@<TRIPOS>MOLECULE
frag3-112-79/31924 -- energy: -0.580086
   18    17     1     1     1
SMALL
USER_CHARGES


@<TRIPOS>ATOM
      1 P1         -4.4524   -1.3055    0.2315 P.3        1 <1>        0.000
      2 O1         -5.8759   -0.9872    0.3117 O.2        1 <1>        0.000
      3 O2         -3.6718    0.0013    0.4585 O.3        1 <1>        0.000
      4 P2         -3.7256    1.1581   -0.5738 P.3        1 <1>        0.000
      5 O3         -4.7052    0.7943   -1.5868 O.2        1 <1>        0.000
      6 O4         -2.3234    1.3165   -1.2508 O.3        1 <1>        0.000
      7 O7         -4.0457    2.5299    0.1151 O.3        1 <1>        0.000
      8 O8         -4.2129   -1.7610   -1.2652 O.3        1 <1>        0.000
      9 P3         -5.3775   -2.2959   -2.1535 P.3        1 <1>        0.000
     10 O9         -5.7470   -3.6133   -1.6879 O.2        1 <1>        0.000
     11 O10        -5.0617   -2.2167   -3.6822 O.3        1 <1>        0.000
     12 O11        -6.5725   -1.2548   -1.9412 O.3        1 <1>        0.000
     13 O12        -4.0467   -2.4842    1.1571 O.3        1 <1>        0.000
     14 H          -1.6737    1.5566   -0.5861 H.spc      1 <1>        0.000
     15 H          -3.3722    2.7218    0.7717 H.spc      1 <1>        0.000
     16 H          -4.8260   -1.3151   -3.9128 H.spc      1 <1>        0.000
     17 H          -6.3019   -0.3899   -2.2578 H.spc      1 <1>        0.000
     18 H          -3.1057   -2.6515    1.0665 H.spc      1 <1>        0.000
@<TRIPOS>BOND
     1    9   12 1  
     2    8    9 1  
     3    9   11 1  
     4    9   10 2  
     5    1    2 2  
     6    1    3 1  
     7    1    8 1  
     8    1   13 1  
     9    3    4 1  
    10    4    5 2  
    11    4    6 1  
    12    4    7 1  
    13    6   14 1  
    14    7   15 1  
    15   11   16 1  
    16   12   17 1  
    17   13   18 1  
