#      Rotatable Fragment
#      Build by yxyuan
#
# Name:          frag2-060-5/92655
# Creation time: Sat Jun  5 12:51:57 2010


@<TRIPOS>MOLECULE
frag2-060-5/92655
   30    33     1     1     1
SMALL
USER_CHARGES


@<TRIPOS>ATOM
      1 C6         -4.6681    0.1039   -0.0446 C.ar       1 <1>        0.000
      2 C7         -3.8226   -0.9890   -0.1010 C.ar       1 <1>        0.000
      3 C8         -2.4228   -0.8180   -0.0755 C.ar       1 <1>        0.000
      4 C9         -1.8430    0.4613    0.0174 C.ar       1 <1>        0.000
      5 C10        -0.4156    0.5913    0.0427 C.ar       1 <1>        0.000
      6 C11         0.4154   -0.5926   -0.0358 C.ar       1 <1>        0.000
      7 C12         1.8423   -0.4613   -0.0156 C.ar       1 <1>        0.000
      8 C21        -1.6142   -1.9449   -0.1431 C.ar       1 <1>        0.000
      9 C13         2.4224    0.8178    0.0898 C.ar       1 <1>        0.000
     10 C14         1.6137    1.9422    0.1678 C.ar       1 <1>        0.000
     11 C15         0.2324    1.8452    0.1433 C.ar       1 <1>        0.000
     12 C16         3.8220    0.9878    0.1155 C.ar       1 <1>        0.000
     13 C17         4.6680   -0.1027    0.0326 C.ar       1 <1>        0.000
     14 C18         4.1261   -1.3678   -0.0723 C.ar       1 <1>        0.000
     15 C19         2.7325   -1.5612   -0.0955 C.ar       1 <1>        0.000
     16 C20        -0.2325   -1.8473   -0.1261 C.ar       1 <1>        0.000
     17 C22        -2.7323    1.5637    0.0755 C.ar       1 <1>        0.000
     18 C23        -4.1258    1.3698    0.0395 C.ar       1 <1>        0.000
     19 H          -5.7492   -0.0330   -0.0663 H.spc      1 <1>        0.000
     20 H          -4.2423   -1.9929   -0.1658 H.spc      1 <1>        0.000
     21 H          -2.0775   -2.9292   -0.2111 H.spc      1 <1>        0.000
     22 H           2.0765    2.9256    0.2503 H.spc      1 <1>        0.000
     23 H          -0.3678    2.7532    0.2027 H.spc      1 <1>        0.000
     24 H           4.2416    1.9901    0.2017 H.spc      1 <1>        0.000
     25 H           5.7491    0.0349    0.0499 H.spc      1 <1>        0.000
     26 H           4.7884   -2.2310   -0.1382 H.spc      1 <1>        0.000
     27 H           2.3318   -2.5717   -0.1761 H.spc      1 <1>        0.000
     28 H           0.3677   -2.7553   -0.1834 H.spc      1 <1>        0.000
     29 H          -2.3316    2.5747    0.1490 H.spc      1 <1>        0.000
     30 H          -4.7881    2.2346    0.0787 H.spc      1 <1>        0.000
@<TRIPOS>BOND
     1   16    8 ar 
     2    5    6 ar 
     3    3    8 ar 
     4    3    4 ar 
     5   14   15 ar 
     6   17   18 ar 
     7    5   11 ar 
     8    7   15 ar 
     9    6   16 ar 
    10    9   10 ar 
    11    4   17 ar 
    12    6    7 ar 
    13    7    9 ar 
    14   10   11 ar 
    15    4    5 ar 
    16   13   14 ar 
    17    2    3 ar 
    18    9   12 ar 
    19   12   13 ar 
    20    1   18 ar 
    21    1    2 ar 
    22    1   19 1  
    23    2   20 1  
    24    8   21 1  
    25   10   22 1  
    26   11   23 1  
    27   12   24 1  
    28   13   25 1  
    29   14   26 1  
    30   15   27 1  
    31   16   28 1  
    32   17   29 1  
    33   18   30 1  
# Name:          frag2-060-5/92655 -- energy: -1.232140
# Creation time: Sat Jun  5 12:51:57 2010


@<TRIPOS>MOLECULE
frag2-060-5/92655 -- energy: -1.232140
   30    33     1     1     1
SMALL
USER_CHARGES


@<TRIPOS>ATOM
      1 C6         -4.6681    0.1039   -0.0446 C.ar       1 <1>        0.000
      2 C7         -3.8226   -0.9890   -0.1010 C.ar       1 <1>        0.000
      3 C8         -2.4228   -0.8180   -0.0755 C.ar       1 <1>        0.000
      4 C9         -1.8430    0.4613    0.0174 C.ar       1 <1>        0.000
      5 C10        -0.4156    0.5913    0.0427 C.ar       1 <1>        0.000
      6 C11         0.4154   -0.5926   -0.0358 C.ar       1 <1>        0.000
      7 C12         1.8423   -0.4613   -0.0156 C.ar       1 <1>        0.000
      8 C21        -1.6142   -1.9449   -0.1431 C.ar       1 <1>        0.000
      9 C13         2.4224    0.8178    0.0898 C.ar       1 <1>        0.000
     10 C14         1.6137    1.9422    0.1678 C.ar       1 <1>        0.000
     11 C15         0.2324    1.8452    0.1433 C.ar       1 <1>        0.000
     12 C16         3.8220    0.9878    0.1155 C.ar       1 <1>        0.000
     13 C17         4.6680   -0.1027    0.0326 C.ar       1 <1>        0.000
     14 C18         4.1261   -1.3678   -0.0723 C.ar       1 <1>        0.000
     15 C19         2.7325   -1.5612   -0.0955 C.ar       1 <1>        0.000
     16 C20        -0.2325   -1.8473   -0.1261 C.ar       1 <1>        0.000
     17 C22        -2.7323    1.5637    0.0755 C.ar       1 <1>        0.000
     18 C23        -4.1258    1.3698    0.0395 C.ar       1 <1>        0.000
     19 H          -5.7492   -0.0330   -0.0663 H.spc      1 <1>        0.000
     20 H          -4.2423   -1.9929   -0.1658 H.spc      1 <1>        0.000
     21 H          -2.0775   -2.9292   -0.2111 H.spc      1 <1>        0.000
     22 H           2.0765    2.9256    0.2503 H.spc      1 <1>        0.000
     23 H          -0.3678    2.7532    0.2027 H.spc      1 <1>        0.000
     24 H           4.2416    1.9901    0.2017 H.spc      1 <1>        0.000
     25 H           5.7491    0.0349    0.0499 H.spc      1 <1>        0.000
     26 H           4.7884   -2.2310   -0.1382 H.spc      1 <1>        0.000
     27 H           2.3318   -2.5717   -0.1761 H.spc      1 <1>        0.000
     28 H           0.3677   -2.7553   -0.1834 H.spc      1 <1>        0.000
     29 H          -2.3316    2.5747    0.1490 H.spc      1 <1>        0.000
     30 H          -4.7881    2.2346    0.0787 H.spc      1 <1>        0.000
@<TRIPOS>BOND
     1   16    8 ar 
     2    5    6 ar 
     3    3    8 ar 
     4    3    4 ar 
     5   14   15 ar 
     6   17   18 ar 
     7    5   11 ar 
     8    7   15 ar 
     9    6   16 ar 
    10    9   10 ar 
    11    4   17 ar 
    12    6    7 ar 
    13    7    9 ar 
    14   10   11 ar 
    15    4    5 ar 
    16   13   14 ar 
    17    2    3 ar 
    18    9   12 ar 
    19   12   13 ar 
    20    1   18 ar 
    21    1    2 ar 
    22    1   19 1  
    23    2   20 1  
    24    8   21 1  
    25   10   22 1  
    26   11   23 1  
    27   12   24 1  
    28   13   25 1  
    29   14   26 1  
    30   15   27 1  
    31   16   28 1  
    32   17   29 1  
    33   18   30 1  
