#      Rotatable Fragment
#      Build by yxyuan
#
# Name:          frag3-117-80/96164
# Creation time: Sat Jun  5 12:52:49 2010


@<TRIPOS>MOLECULE
frag3-117-80/96164
    8     7     1     1     1
SMALL
USER_CHARGES


@<TRIPOS>ATOM
      1 N1          1.1927    0.2985   -0.0095 N.am       1 <1>        0.000
      2 C8          0.0302   -0.3817   -0.0533 C.2        1 <1>        0.000
      3 N2         -0.1695   -1.6921    0.1909 N.am       1 <1>        0.000
      4 S1         -1.3150    0.5006   -0.4257 S.2        1 <1>        0.000
      5 H           1.2049    1.3003   -0.2007 H.spc      1 <1>        0.000
      6 H           2.0604   -0.1885    0.2149 H.spc      1 <1>        0.000
      7 H          -1.1103   -2.0828    0.1398 H.spc      1 <1>        0.000
      8 H           0.6202   -2.2931    0.4268 H.spc      1 <1>        0.000
@<TRIPOS>BOND
     1    1    2 am 
     2    2    3 am 
     3    2    4 2  
     4    1    5 1  
     5    1    6 1  
     6    3    7 1  
     7    3    8 1  
# Name:          frag3-117-80/96164 -- energy: -0.200143
# Creation time: Sat Jun  5 12:52:49 2010


@<TRIPOS>MOLECULE
frag3-117-80/96164 -- energy: -0.200143
    8     7     1     1     1
SMALL
USER_CHARGES


@<TRIPOS>ATOM
      1 N1          1.1927    0.2985   -0.0095 N.am       1 <1>        0.000
      2 C8          0.0302   -0.3817   -0.0533 C.2        1 <1>        0.000
      3 N2         -0.1695   -1.6921    0.1909 N.am       1 <1>        0.000
      4 S1         -1.3150    0.5006   -0.4257 S.2        1 <1>        0.000
      5 H           1.2049    1.3003   -0.2007 H.spc      1 <1>        0.000
      6 H           2.0604   -0.1885    0.2149 H.spc      1 <1>        0.000
      7 H          -1.1103   -2.0828    0.1398 H.spc      1 <1>        0.000
      8 H           0.6202   -2.2931    0.4268 H.spc      1 <1>        0.000
@<TRIPOS>BOND
     1    1    2 am 
     2    2    3 am 
     3    2    4 2  
     4    1    5 1  
     5    1    6 1  
     6    3    7 1  
     7    3    8 1  
