#      Rotatable Fragment
#      Build by yxyuan
#
# Name:          frag4-326-718/150395
# Creation time: Sat Jun  5 12:53:31 2010


@<TRIPOS>MOLECULE
frag4-326-718/150395
   17    18     1     1     1
SMALL
USER_CHARGES


@<TRIPOS>ATOM
      1 C1         -0.1973    0.5881   -0.0508 C.ar       1 <1>        0.000
      2 C2          0.0246   -0.8295   -0.1528 C.ar       1 <1>        0.000
      3 C3          0.9513    1.3777    0.1228 C.ar       1 <1>        0.000
      4 C4         -1.5641    1.0779   -0.0665 C.ar       1 <1>        0.000
      5 O1         -1.0174   -1.6899   -0.1411 O.3        1 <1>        0.000
      6 C5          1.3290   -1.3223   -0.1502 C.ar       1 <1>        0.000
      7 C6          2.2589    0.8525    0.1450 C.ar       1 <1>        0.000
      8 C7         -2.5456    0.2170   -0.0577 C.ar       1 <1>        0.000
      9 C8         -2.2205   -1.2382    0.0172 C.ar       1 <1>        0.000
     10 C9          2.4429   -0.5057    0.0118 C.ar       1 <1>        0.000
     11 H           0.8246    2.4532    0.2469 H.spc      1 <1>        0.000
     12 H          -1.7677    2.1485   -0.0854 H.spc      1 <1>        0.000
     13 H           1.4821   -2.3936   -0.2807 H.spc      1 <1>        0.000
     14 H           3.1161    1.5148    0.2664 H.spc      1 <1>        0.000
     15 H          -3.5812    0.5538   -0.1041 H.spc      1 <1>        0.000
     16 H          -3.0257   -1.9465    0.2123 H.spc      1 <1>        0.000
     17 H           3.4451   -0.9337    0.0330 H.spc      1 <1>        0.000
@<TRIPOS>BOND
     1    8    9 ar 
     2    6   10 ar 
     3    7   10 ar 
     4    1    3 ar 
     5    1    2 ar 
     6    1    4 ar 
     7    2    5 ar 
     8    2    6 ar 
     9    3    7 ar 
    10    4    8 ar 
    11    5    9 ar 
    12    3   11 1  
    13    4   12 1  
    14    6   13 1  
    15    7   14 1  
    16    8   15 1  
    17    9   16 1  
    18   10   17 1  
# Name:          frag4-326-718/150395 -- energy: -0.117201
# Creation time: Sat Jun  5 12:53:31 2010


@<TRIPOS>MOLECULE
frag4-326-718/150395 -- energy: -0.117201
   17    18     1     1     1
SMALL
USER_CHARGES


@<TRIPOS>ATOM
      1 C1         -0.1973    0.5881   -0.0508 C.ar       1 <1>        0.000
      2 C2          0.0246   -0.8295   -0.1528 C.ar       1 <1>        0.000
      3 C3          0.9513    1.3777    0.1228 C.ar       1 <1>        0.000
      4 C4         -1.5641    1.0779   -0.0665 C.ar       1 <1>        0.000
      5 O1         -1.0174   -1.6899   -0.1411 O.3        1 <1>        0.000
      6 C5          1.3290   -1.3223   -0.1502 C.ar       1 <1>        0.000
      7 C6          2.2589    0.8525    0.1450 C.ar       1 <1>        0.000
      8 C7         -2.5456    0.2170   -0.0577 C.ar       1 <1>        0.000
      9 C8         -2.2205   -1.2382    0.0172 C.ar       1 <1>        0.000
     10 C9          2.4429   -0.5057    0.0118 C.ar       1 <1>        0.000
     11 H           0.8246    2.4532    0.2469 H.spc      1 <1>        0.000
     12 H          -1.7677    2.1485   -0.0854 H.spc      1 <1>        0.000
     13 H           1.4821   -2.3936   -0.2807 H.spc      1 <1>        0.000
     14 H           3.1161    1.5148    0.2664 H.spc      1 <1>        0.000
     15 H          -3.5812    0.5538   -0.1041 H.spc      1 <1>        0.000
     16 H          -3.0257   -1.9465    0.2123 H.spc      1 <1>        0.000
     17 H           3.4451   -0.9337    0.0330 H.spc      1 <1>        0.000
@<TRIPOS>BOND
     1    8    9 ar 
     2    6   10 ar 
     3    7   10 ar 
     4    1    3 ar 
     5    1    2 ar 
     6    1    4 ar 
     7    2    5 ar 
     8    2    6 ar 
     9    3    7 ar 
    10    4    8 ar 
    11    5    9 ar 
    12    3   11 1  
    13    4   12 1  
    14    6   13 1  
    15    7   14 1  
    16    8   15 1  
    17    9   16 1  
    18   10   17 1  
