#      Rotatable Fragment
#      Build by yxyuan
#
# Name:          frag5-667-66/138278
# Creation time: Sat Jun  5 12:51:51 2010


@<TRIPOS>MOLECULE
frag5-667-66/138278
   12    12     1     1     1
SMALL
USER_CHARGES


@<TRIPOS>ATOM
      1 C13         1.2512   -0.7289   -0.0133 C.ar       1 <1>        0.000
      2 C14         1.2343    0.6603    0.0884 C.ar       1 <1>        0.000
      3 C15         0.0551   -1.4333   -0.1039 C.ar       1 <1>        0.000
      4 C16         0.0243    1.3460    0.1013 C.ar       1 <1>        0.000
      5 F1          2.3984    1.3470    0.1760 F          1 <1>        0.000
      6 C17        -1.1563   -0.7472   -0.0907 C.ar       1 <1>        0.000
      7 C18        -1.1683    0.6403    0.0079 C.ar       1 <1>        0.000
      8 Br1        -2.8229    1.5750    0.0152 Br         1 <1>        0.000
      9 H           2.2010   -1.2636   -0.0219 H.spc      1 <1>        0.000
     10 H           0.0662   -2.5202   -0.1851 H.spc      1 <1>        0.000
     11 H           0.0120    2.4328    0.1844 H.spc      1 <1>        0.000
     12 H          -2.0950   -1.2971   -0.1576 H.spc      1 <1>        0.000
@<TRIPOS>BOND
     1    1    2 ar 
     2    1    3 ar 
     3    2    4 ar 
     4    2    5 1  
     5    3    6 ar 
     6    4    7 ar 
     7    6    7 ar 
     8    7    8 1  
     9    1    9 1  
    10    3   10 1  
    11    4   11 1  
    12    6   12 1  
# Name:          frag5-667-66/138278 -- energy: -0.164770
# Creation time: Sat Jun  5 12:51:51 2010


@<TRIPOS>MOLECULE
frag5-667-66/138278 -- energy: -0.164770
   12    12     1     1     1
SMALL
USER_CHARGES


@<TRIPOS>ATOM
      1 C13         1.2512   -0.7289   -0.0133 C.ar       1 <1>        0.000
      2 C14         1.2343    0.6603    0.0884 C.ar       1 <1>        0.000
      3 C15         0.0551   -1.4333   -0.1039 C.ar       1 <1>        0.000
      4 C16         0.0243    1.3460    0.1013 C.ar       1 <1>        0.000
      5 F1          2.3984    1.3470    0.1760 F          1 <1>        0.000
      6 C17        -1.1563   -0.7472   -0.0907 C.ar       1 <1>        0.000
      7 C18        -1.1683    0.6403    0.0079 C.ar       1 <1>        0.000
      8 Br1        -2.8229    1.5750    0.0152 Br         1 <1>        0.000
      9 H           2.2010   -1.2636   -0.0219 H.spc      1 <1>        0.000
     10 H           0.0662   -2.5202   -0.1851 H.spc      1 <1>        0.000
     11 H           0.0120    2.4328    0.1844 H.spc      1 <1>        0.000
     12 H          -2.0950   -1.2971   -0.1576 H.spc      1 <1>        0.000
@<TRIPOS>BOND
     1    1    2 ar 
     2    1    3 ar 
     3    2    4 ar 
     4    2    5 1  
     5    3    6 ar 
     6    4    7 ar 
     7    6    7 ar 
     8    7    8 1  
     9    1    9 1  
    10    3   10 1  
    11    4   11 1  
    12    6   12 1  
