#      Rotatable Fragment
#      Build by yxyuan
#
# Name:          frag3-167-10/31924
# Creation time: Sat Jun  5 12:52:06 2010


@<TRIPOS>MOLECULE
frag3-167-10/31924
    8     7     1     1     1
SMALL
USER_CHARGES


@<TRIPOS>ATOM
      1 P1         -0.1274    0.3679    0.6258 P.3        1 <1>        0.000
      2 O1         -1.1830    0.7719    1.5092 O.2        1 <1>        0.000
      3 O2         -0.7077   -0.3927   -0.6275 O.3        1 <1>        0.000
      4 O7          0.6319    1.6560    0.0859 O.3        1 <1>        0.000
      5 O12         0.9038   -0.5699    1.3490 O.3        1 <1>        0.000
      6 H           0.0139   -0.6536   -1.2044 H.spc      1 <1>        0.000
      7 H           1.3382    1.3854   -0.5052 H.spc      1 <1>        0.000
      8 H           1.5945   -0.8207    0.7313 H.spc      1 <1>        0.000
@<TRIPOS>BOND
     1    1    2 2  
     2    1    3 1  
     3    1    4 1  
     4    1    5 1  
     5    3    6 1  
     6    4    7 1  
     7    5    8 1  
# Name:          frag3-167-10/31924 -- energy: -0.382655
# Creation time: Sat Jun  5 12:52:06 2010


@<TRIPOS>MOLECULE
frag3-167-10/31924 -- energy: -0.382655
    8     7     1     1     1
SMALL
USER_CHARGES


@<TRIPOS>ATOM
      1 P1         -0.1274    0.3679    0.6258 P.3        1 <1>        0.000
      2 O1         -1.1830    0.7719    1.5092 O.2        1 <1>        0.000
      3 O2         -0.7077   -0.3927   -0.6275 O.3        1 <1>        0.000
      4 O7          0.6319    1.6560    0.0859 O.3        1 <1>        0.000
      5 O12         0.9038   -0.5699    1.3490 O.3        1 <1>        0.000
      6 H           0.0139   -0.6536   -1.2044 H.spc      1 <1>        0.000
      7 H           1.3382    1.3854   -0.5052 H.spc      1 <1>        0.000
      8 H           1.5945   -0.8207    0.7313 H.spc      1 <1>        0.000
@<TRIPOS>BOND
     1    1    2 2  
     2    1    3 1  
     3    1    4 1  
     4    1    5 1  
     5    3    6 1  
     6    4    7 1  
     7    5    8 1  
