#      Rotatable Fragment
#      Build by yxyuan
#
# Name:          frag4-475-94/150395
# Creation time: Sat Jun  5 12:53:37 2010


@<TRIPOS>MOLECULE
frag4-475-94/150395
   11    12     1     1     1
SMALL
USER_CHARGES


@<TRIPOS>ATOM
      1 C1          0.5640   -0.4881   -0.0139 C.ar       1 <1>        0.000
      2 N1          1.8375   -0.5738   -0.0479 N.ar       1 <1>        0.000
      3 C2          0.2884    0.9849   -0.0880 C.ar       1 <1>        0.000
      4 N2         -0.3950   -1.4471    0.1105 N.ar       1 <1>        0.000
      5 N3          2.4018    0.6991   -0.1682 N.ar       1 <1>        0.000
      6 N4          1.4931    1.5785   -0.1989 N.ar       1 <1>        0.000
      7 C4         -1.0335    1.2186    0.0194 C.ar       1 <1>        0.000
      8 C5         -1.6451   -1.0997    0.1095 C.ar       1 <1>        0.000
      9 N5         -1.9599    0.2202    0.1012 N.ar       1 <1>        0.000
     10 H          -1.3790    2.2521    0.0420 H.spc      1 <1>        0.000
     11 H          -2.4299   -1.8561    0.1152 H.spc      1 <1>        0.000
@<TRIPOS>BOND
     1    1    2 ar 
     2    1    3 ar 
     3    1    4 ar 
     4    2    5 ar 
     5    3    7 ar 
     6    3    6 ar 
     7    4    8 ar 
     8    7    9 ar 
     9    5    6 ar 
    10    8    9 ar 
    11    7   10 1  
    12    8   11 1  
# Name:          frag4-475-94/150395 -- energy: -0.012289
# Creation time: Sat Jun  5 12:53:37 2010


@<TRIPOS>MOLECULE
frag4-475-94/150395 -- energy: -0.012289
   11    12     1     1     1
SMALL
USER_CHARGES


@<TRIPOS>ATOM
      1 C1          0.5640   -0.4881   -0.0139 C.ar       1 <1>        0.000
      2 N1          1.8375   -0.5738   -0.0479 N.ar       1 <1>        0.000
      3 C2          0.2884    0.9849   -0.0880 C.ar       1 <1>        0.000
      4 N2         -0.3950   -1.4471    0.1105 N.ar       1 <1>        0.000
      5 N3          2.4018    0.6991   -0.1682 N.ar       1 <1>        0.000
      6 N4          1.4931    1.5785   -0.1989 N.ar       1 <1>        0.000
      7 C4         -1.0335    1.2186    0.0194 C.ar       1 <1>        0.000
      8 C5         -1.6451   -1.0997    0.1095 C.ar       1 <1>        0.000
      9 N5         -1.9599    0.2202    0.1012 N.ar       1 <1>        0.000
     10 H          -1.3790    2.2521    0.0420 H.spc      1 <1>        0.000
     11 H          -2.4299   -1.8561    0.1152 H.spc      1 <1>        0.000
@<TRIPOS>BOND
     1    1    2 ar 
     2    1    3 ar 
     3    1    4 ar 
     4    2    5 ar 
     5    3    7 ar 
     6    3    6 ar 
     7    4    8 ar 
     8    7    9 ar 
     9    5    6 ar 
    10    8    9 ar 
    11    7   10 1  
    12    8   11 1  
