#      Rotatable Fragment
#      Build by yxyuan
#
# Name:          frag5-661-25/41815
# Creation time: Sat Jun  5 12:53:02 2010


@<TRIPOS>MOLECULE
frag5-661-25/41815
   16    17     1     1     1
SMALL
USER_CHARGES


@<TRIPOS>ATOM
      1 C8         -2.1554   -1.2205   -0.1927 C.ar       1 <1>        0.000
      2 C9         -2.3584    0.2489    0.3647 C.ar       1 <1>        0.000
      3 C10        -1.4056    1.2156    0.3534 C.ar       1 <1>        0.000
      4 C11        -0.0418    0.8831   -0.1612 C.ar       1 <1>        0.000
      5 C12         0.2547   -0.5610   -0.3419 C.ar       1 <1>        0.000
      6 C13        -0.8580   -1.3966    0.0117 C.ar       1 <1>        0.000
      7 C14         1.5139   -0.9372   -0.5106 C.ar       1 <1>        0.000
      8 N2          2.4539   -0.0395   -0.1251 N.ar       1 <1>        0.000
      9 C15         2.2025    1.2173   -0.0020 C.ar       1 <1>        0.000
     10 N3          0.9582    1.6809   -0.2650 N.ar       1 <1>        0.000
     11 O1          1.8889   -2.0615   -0.7028 O.2        1 <1>        0.000
     12 H          -2.8861   -1.9027   -0.6272 H.spc      1 <1>        0.000
     13 H          -3.3312    0.5010    0.7867 H.spc      1 <1>        0.000
     14 H          -1.6313    2.2191    0.7140 H.spc      1 <1>        0.000
     15 H          -0.5946   -2.3193    0.5287 H.spc      1 <1>        0.000
     16 H           2.9879    1.9046    0.3125 H.spc      1 <1>        0.000
@<TRIPOS>BOND
     1    5    6 ar 
     2    7   11 2  
     3    8    9 ar 
     4    7    8 ar 
     5    9   10 ar 
     6    5    7 ar 
     7    1    2 ar 
     8    1    6 ar 
     9    2    3 ar 
    10    3    4 ar 
    11    4    5 ar 
    12    4   10 ar 
    13    1   12 1  
    14    2   13 1  
    15    3   14 1  
    16    6   15 1  
    17    9   16 1  
# Name:          frag5-661-25/41815 -- energy: 0.161226
# Creation time: Sat Jun  5 12:53:02 2010


@<TRIPOS>MOLECULE
frag5-661-25/41815 -- energy: 0.161226
   16    17     1     1     1
SMALL
USER_CHARGES


@<TRIPOS>ATOM
      1 C8         -2.1554   -1.2205   -0.1927 C.ar       1 <1>        0.000
      2 C9         -2.3584    0.2489    0.3647 C.ar       1 <1>        0.000
      3 C10        -1.4056    1.2156    0.3534 C.ar       1 <1>        0.000
      4 C11        -0.0418    0.8831   -0.1612 C.ar       1 <1>        0.000
      5 C12         0.2547   -0.5610   -0.3419 C.ar       1 <1>        0.000
      6 C13        -0.8580   -1.3966    0.0117 C.ar       1 <1>        0.000
      7 C14         1.5139   -0.9372   -0.5106 C.ar       1 <1>        0.000
      8 N2          2.4539   -0.0395   -0.1251 N.ar       1 <1>        0.000
      9 C15         2.2025    1.2173   -0.0020 C.ar       1 <1>        0.000
     10 N3          0.9582    1.6809   -0.2650 N.ar       1 <1>        0.000
     11 O1          1.8889   -2.0615   -0.7028 O.2        1 <1>        0.000
     12 H          -2.8861   -1.9027   -0.6272 H.spc      1 <1>        0.000
     13 H          -3.3312    0.5010    0.7867 H.spc      1 <1>        0.000
     14 H          -1.6313    2.2191    0.7140 H.spc      1 <1>        0.000
     15 H          -0.5946   -2.3193    0.5287 H.spc      1 <1>        0.000
     16 H           2.9879    1.9046    0.3125 H.spc      1 <1>        0.000
@<TRIPOS>BOND
     1    5    6 ar 
     2    7   11 2  
     3    8    9 ar 
     4    7    8 ar 
     5    9   10 ar 
     6    5    7 ar 
     7    1    2 ar 
     8    1    6 ar 
     9    2    3 ar 
    10    3    4 ar 
    11    4    5 ar 
    12    4   10 ar 
    13    1   12 1  
    14    2   13 1  
    15    3   14 1  
    16    6   15 1  
    17    9   16 1  
