#      Rotatable Fragment
#      Build by yxyuan
#
# Name:          frag4-440-43/48856
# Creation time: Sat Jun  5 12:52:47 2010


@<TRIPOS>MOLECULE
frag4-440-43/48856
   14    15     1     1     1
SMALL
USER_CHARGES


@<TRIPOS>ATOM
      1 C1         -1.7669    0.9785    0.0082 C.ar       1 <1>        0.000
      2 C2         -0.5732    1.3715    0.4462 C.ar       1 <1>        0.000
      3 C3          0.6237    0.7142   -0.0926 C.ar       1 <1>        0.000
      4 N1          1.8578    1.1445   -0.1363 N.ar       1 <1>        0.000
      5 N2          2.5988    0.1478   -0.1656 N.ar       1 <1>        0.000
      6 C4          1.8406   -0.9883   -0.1752 C.ar       1 <1>        0.000
      7 C5          0.5198   -0.7667   -0.1803 C.ar       1 <1>        0.000
      8 C6         -0.7250   -1.4057    0.0068 C.ar       1 <1>        0.000
      9 C7         -1.8341   -0.6346    0.0929 C.ar       1 <1>        0.000
     10 H          -2.5633    1.6325   -0.3470 H.spc      1 <1>        0.000
     11 H          -0.4861    2.1644    1.1890 H.spc      1 <1>        0.000
     12 H           2.2731   -1.9888   -0.1784 H.spc      1 <1>        0.000
     13 H          -0.7912   -2.4912    0.0800 H.spc      1 <1>        0.000
     14 H          -2.8031   -1.1164    0.2235 H.spc      1 <1>        0.000
@<TRIPOS>BOND
     1    8    9 ar 
     2    1    2 ar 
     3    1    9 ar 
     4    2    3 ar 
     5    3    4 ar 
     6    3    7 ar 
     7    4    5 ar 
     8    5    6 ar 
     9    6    7 ar 
    10    7    8 ar 
    11    1   10 1  
    12    2   11 1  
    13    6   12 1  
    14    8   13 1  
    15    9   14 1  
# Name:          frag4-440-43/48856 -- energy: -0.501545
# Creation time: Sat Jun  5 12:52:47 2010


@<TRIPOS>MOLECULE
frag4-440-43/48856 -- energy: -0.501545
   14    15     1     1     1
SMALL
USER_CHARGES


@<TRIPOS>ATOM
      1 C1         -1.7669    0.9785    0.0082 C.ar       1 <1>        0.000
      2 C2         -0.5732    1.3715    0.4462 C.ar       1 <1>        0.000
      3 C3          0.6237    0.7142   -0.0926 C.ar       1 <1>        0.000
      4 N1          1.8578    1.1445   -0.1363 N.ar       1 <1>        0.000
      5 N2          2.5988    0.1478   -0.1656 N.ar       1 <1>        0.000
      6 C4          1.8406   -0.9883   -0.1752 C.ar       1 <1>        0.000
      7 C5          0.5198   -0.7667   -0.1803 C.ar       1 <1>        0.000
      8 C6         -0.7250   -1.4057    0.0068 C.ar       1 <1>        0.000
      9 C7         -1.8341   -0.6346    0.0929 C.ar       1 <1>        0.000
     10 H          -2.5633    1.6325   -0.3470 H.spc      1 <1>        0.000
     11 H          -0.4861    2.1644    1.1890 H.spc      1 <1>        0.000
     12 H           2.2731   -1.9888   -0.1784 H.spc      1 <1>        0.000
     13 H          -0.7912   -2.4912    0.0800 H.spc      1 <1>        0.000
     14 H          -2.8031   -1.1164    0.2235 H.spc      1 <1>        0.000
@<TRIPOS>BOND
     1    8    9 ar 
     2    1    2 ar 
     3    1    9 ar 
     4    2    3 ar 
     5    3    4 ar 
     6    3    7 ar 
     7    4    5 ar 
     8    5    6 ar 
     9    6    7 ar 
    10    7    8 ar 
    11    1   10 1  
    12    2   11 1  
    13    6   12 1  
    14    8   13 1  
    15    9   14 1  
