#      Rotatable Fragment
#      Build by yxyuan
#
# Name:          frag4-367-94/48856
# Creation time: Sat Jun  5 12:53:30 2010


@<TRIPOS>MOLECULE
frag4-367-94/48856
   16    16     1     1     1
SMALL
USER_CHARGES


@<TRIPOS>ATOM
      1 N1         -6.2697   -1.6526   -1.5831 N.3        1 <1>        0.000
      2 C1         -4.8667   -1.6921   -1.6175 C.3        1 <1>        0.000
      3 N2         -4.0604   -0.8382   -0.8482 N.3        1 <1>        0.000
      4 C2         -4.6558    0.1115    0.0065 C.3        1 <1>        0.000
      5 C3         -6.1309    0.2005    0.0858 C.3        1 <1>        0.000
      6 C4         -6.9276   -0.7259   -0.7491 C.3        1 <1>        0.000
      7 H          -6.5419   -2.5645   -1.2161 H.spc      1 <1>        0.000
      8 H          -4.6345   -1.3983   -2.6412 H.spc      1 <1>        0.000
      9 H          -4.6357   -2.6795   -1.2178 H.spc      1 <1>        0.000
     10 H          -3.5517   -0.2807   -1.5343 H.spc      1 <1>        0.000
     11 H          -4.3424    1.0763   -0.3924 H.spc      1 <1>        0.000
     12 H          -4.3432   -0.1844    1.0079 H.spc      1 <1>        0.000
     13 H          -6.3803    1.1996   -0.2716 H.spc      1 <1>        0.000
     14 H          -6.3811   -0.0507    1.1165 H.spc      1 <1>        0.000
     15 H          -7.4759   -1.3392   -0.0341 H.spc      1 <1>        0.000
     16 H          -7.4748   -0.0784   -1.4342 H.spc      1 <1>        0.000
@<TRIPOS>BOND
     1    1    2 1  
     2    1    6 1  
     3    2    3 1  
     4    3    4 1  
     5    4    5 1  
     6    5    6 1  
     7    1    7 1  
     8    2    8 1  
     9    2    9 1  
    10    3   10 1  
    11    4   11 1  
    12    4   12 1  
    13    5   13 1  
    14    5   14 1  
    15    6   15 1  
    16    6   16 1  
# Name:          frag4-367-94/48856 -- energy: -0.281448
# Creation time: Sat Jun  5 12:53:30 2010


@<TRIPOS>MOLECULE
frag4-367-94/48856 -- energy: -0.281448
   16    16     1     1     1
SMALL
USER_CHARGES


@<TRIPOS>ATOM
      1 N1         -6.2697   -1.6526   -1.5831 N.3        1 <1>        0.000
      2 C1         -4.8667   -1.6921   -1.6175 C.3        1 <1>        0.000
      3 N2         -4.0604   -0.8382   -0.8482 N.3        1 <1>        0.000
      4 C2         -4.6558    0.1115    0.0065 C.3        1 <1>        0.000
      5 C3         -6.1309    0.2005    0.0858 C.3        1 <1>        0.000
      6 C4         -6.9276   -0.7259   -0.7491 C.3        1 <1>        0.000
      7 H          -6.5419   -2.5645   -1.2161 H.spc      1 <1>        0.000
      8 H          -4.6345   -1.3983   -2.6412 H.spc      1 <1>        0.000
      9 H          -4.6357   -2.6795   -1.2178 H.spc      1 <1>        0.000
     10 H          -3.5517   -0.2807   -1.5343 H.spc      1 <1>        0.000
     11 H          -4.3424    1.0763   -0.3924 H.spc      1 <1>        0.000
     12 H          -4.3432   -0.1844    1.0079 H.spc      1 <1>        0.000
     13 H          -6.3803    1.1996   -0.2716 H.spc      1 <1>        0.000
     14 H          -6.3811   -0.0507    1.1165 H.spc      1 <1>        0.000
     15 H          -7.4759   -1.3392   -0.0341 H.spc      1 <1>        0.000
     16 H          -7.4748   -0.0784   -1.4342 H.spc      1 <1>        0.000
@<TRIPOS>BOND
     1    1    2 1  
     2    1    6 1  
     3    2    3 1  
     4    3    4 1  
     5    4    5 1  
     6    5    6 1  
     7    1    7 1  
     8    2    8 1  
     9    2    9 1  
    10    3   10 1  
    11    4   11 1  
    12    4   12 1  
    13    5   13 1  
    14    5   14 1  
    15    6   15 1  
    16    6   16 1  
