#      Rotatable Fragment
#      Build by yxyuan
#
# Name:          frag5-513-425/138278
# Creation time: Sat Jun  5 12:53:40 2010


@<TRIPOS>MOLECULE
frag5-513-425/138278
   14    15     1     1     1
SMALL
USER_CHARGES


@<TRIPOS>ATOM
      1 N1          2.1542    0.1816    0.0222 N.ar       1 <1>        0.000
      2 C1          0.9762    0.6445   -0.0435 C.ar       1 <1>        0.000
      3 C3          2.0154   -1.3299    0.1960 C.ar       1 <1>        0.000
      4 C4          0.0150   -0.5420    0.0259 C.ar       1 <1>        0.000
      5 N2          0.5717    1.9299   -0.1590 N.ar       1 <1>        0.000
      6 N3          0.7725   -1.6774    0.1387 N.ar       1 <1>        0.000
      7 C7         -1.2838   -0.2226   -0.0991 C.ar       1 <1>        0.000
      8 C8         -0.6898    2.1546   -0.0083 C.ar       1 <1>        0.000
      9 N4         -1.5758    1.1385   -0.1225 N.ar       1 <1>        0.000
     10 N5         -2.2570   -1.1809   -0.1655 N.pl3      1 <1>        0.000
     11 H           2.8474   -2.0178    0.3470 H.spc      1 <1>        0.000
     12 H          -1.0416    3.1627    0.2109 H.spc      1 <1>        0.000
     13 H          -2.0046   -2.1681   -0.1201 H.spc      1 <1>        0.000
     14 H          -3.2354   -0.9085   -0.2604 H.spc      1 <1>        0.000
@<TRIPOS>BOND
     1    1    2 ar 
     2    1    3 ar 
     3    2    4 ar 
     4    2    5 ar 
     5    3    6 ar 
     6    4    7 ar 
     7    4    6 ar 
     8    5    8 ar 
     9    7    9 ar 
    10    7   10 1  
    11    8    9 ar 
    12    3   11 1  
    13    8   12 1  
    14   10   13 1  
    15   10   14 1  
# Name:          frag5-513-425/138278 -- energy: -0.395182
# Creation time: Sat Jun  5 12:53:40 2010


@<TRIPOS>MOLECULE
frag5-513-425/138278 -- energy: -0.395182
   14    15     1     1     1
SMALL
USER_CHARGES


@<TRIPOS>ATOM
      1 N1          2.1542    0.1816    0.0222 N.ar       1 <1>        0.000
      2 C1          0.9762    0.6445   -0.0435 C.ar       1 <1>        0.000
      3 C3          2.0154   -1.3299    0.1960 C.ar       1 <1>        0.000
      4 C4          0.0150   -0.5420    0.0259 C.ar       1 <1>        0.000
      5 N2          0.5717    1.9299   -0.1590 N.ar       1 <1>        0.000
      6 N3          0.7725   -1.6774    0.1387 N.ar       1 <1>        0.000
      7 C7         -1.2838   -0.2226   -0.0991 C.ar       1 <1>        0.000
      8 C8         -0.6898    2.1546   -0.0083 C.ar       1 <1>        0.000
      9 N4         -1.5758    1.1385   -0.1225 N.ar       1 <1>        0.000
     10 N5         -2.2570   -1.1809   -0.1655 N.pl3      1 <1>        0.000
     11 H           2.8474   -2.0178    0.3470 H.spc      1 <1>        0.000
     12 H          -1.0416    3.1627    0.2109 H.spc      1 <1>        0.000
     13 H          -2.0046   -2.1681   -0.1201 H.spc      1 <1>        0.000
     14 H          -3.2354   -0.9085   -0.2604 H.spc      1 <1>        0.000
@<TRIPOS>BOND
     1    1    2 ar 
     2    1    3 ar 
     3    2    4 ar 
     4    2    5 ar 
     5    3    6 ar 
     6    4    7 ar 
     7    4    6 ar 
     8    5    8 ar 
     9    7    9 ar 
    10    7   10 1  
    11    8    9 ar 
    12    3   11 1  
    13    8   12 1  
    14   10   13 1  
    15   10   14 1  
