#      Rotatable Fragment
#      Build by yxyuan
#
# Name:          frag4-305-475/48856
# Creation time: Sat Jun  5 12:52:47 2010


@<TRIPOS>MOLECULE
frag4-305-475/48856
   15    15     1     1     1
SMALL
USER_CHARGES


@<TRIPOS>ATOM
      1 N1         -2.0092    2.7753    0.3754 N.4        1 <1>        0.000
      2 C1         -2.6548    1.7665    1.2008 C.3        1 <1>        0.000
      3 C2         -3.9724    2.2993    1.6903 C.3        1 <1>        0.000
      4 C3         -3.8241    3.8003    1.5944 C.3        1 <1>        0.000
      5 C4         -2.8305    3.9803    0.4697 C.3        1 <1>        0.000
      6 H          -1.9338    2.4607   -0.5919 H.spc      1 <1>        0.000
      7 H          -1.0587    2.9562    0.6981 H.spc      1 <1>        0.000
      8 H          -2.0175    1.5271    2.0521 H.spc      1 <1>        0.000
      9 H          -2.8204    0.8636    0.6131 H.spc      1 <1>        0.000
     10 H          -4.1967    1.9722    2.7056 H.spc      1 <1>        0.000
     11 H          -4.8105    1.9302    1.0991 H.spc      1 <1>        0.000
     12 H          -3.4864    4.2492    2.5285 H.spc      1 <1>        0.000
     13 H          -4.7713    4.3042    1.4022 H.spc      1 <1>        0.000
     14 H          -3.3589    4.1436   -0.4696 H.spc      1 <1>        0.000
     15 H          -2.1982    4.8457    0.6682 H.spc      1 <1>        0.000
@<TRIPOS>BOND
     1    1    2 1  
     2    1    5 1  
     3    2    3 1  
     4    3    4 1  
     5    4    5 1  
     6    1    6 1  
     7    1    7 1  
     8    2    8 1  
     9    2    9 1  
    10    3   10 1  
    11    3   11 1  
    12    4   12 1  
    13    4   13 1  
    14    5   14 1  
    15    5   15 1  
# Name:          frag4-305-475/48856 -- energy: -0.979154
# Creation time: Sat Jun  5 12:52:47 2010


@<TRIPOS>MOLECULE
frag4-305-475/48856 -- energy: -0.979154
   15    15     1     1     1
SMALL
USER_CHARGES


@<TRIPOS>ATOM
      1 N1         -2.0092    2.7753    0.3754 N.4        1 <1>        0.000
      2 C1         -2.6548    1.7665    1.2008 C.3        1 <1>        0.000
      3 C2         -3.9724    2.2993    1.6903 C.3        1 <1>        0.000
      4 C3         -3.8241    3.8003    1.5944 C.3        1 <1>        0.000
      5 C4         -2.8305    3.9803    0.4697 C.3        1 <1>        0.000
      6 H          -1.9338    2.4607   -0.5919 H.spc      1 <1>        0.000
      7 H          -1.0587    2.9562    0.6981 H.spc      1 <1>        0.000
      8 H          -2.0175    1.5271    2.0521 H.spc      1 <1>        0.000
      9 H          -2.8204    0.8636    0.6131 H.spc      1 <1>        0.000
     10 H          -4.1967    1.9722    2.7056 H.spc      1 <1>        0.000
     11 H          -4.8105    1.9302    1.0991 H.spc      1 <1>        0.000
     12 H          -3.4864    4.2492    2.5285 H.spc      1 <1>        0.000
     13 H          -4.7713    4.3042    1.4022 H.spc      1 <1>        0.000
     14 H          -3.3589    4.1436   -0.4696 H.spc      1 <1>        0.000
     15 H          -2.1982    4.8457    0.6682 H.spc      1 <1>        0.000
@<TRIPOS>BOND
     1    1    2 1  
     2    1    5 1  
     3    2    3 1  
     4    3    4 1  
     5    4    5 1  
     6    1    6 1  
     7    1    7 1  
     8    2    8 1  
     9    2    9 1  
    10    3   10 1  
    11    3   11 1  
    12    4   12 1  
    13    4   13 1  
    14    5   14 1  
    15    5   15 1  
