#      Rotatable Fragment
#      Build by yxyuan
#
# Name:          frag4-296-1296/48856
# Creation time: Sat Jun  5 12:52:47 2010


@<TRIPOS>MOLECULE
frag4-296-1296/48856
   16    17     1     1     1
SMALL
USER_CHARGES


@<TRIPOS>ATOM
      1 N1          1.6545    1.0723   -0.2382 N.2        1 <1>        0.000
      2 C1          0.3049    0.6654   -0.1650 C.ar       1 <1>        0.000
      3 C2          0.2735   -0.7250    0.1743 C.ar       1 <1>        0.000
      4 C3          1.6540   -1.1225    0.2902 C.3        1 <1>        0.000
      5 C4          2.4669    0.0790    0.0071 C.2        1 <1>        0.000
      6 C12        -0.9302   -1.3717    0.3294 C.ar       1 <1>        0.000
      7 C13        -2.1274   -0.6791    0.1429 C.ar       1 <1>        0.000
      8 C14        -2.1138    0.6829   -0.1942 C.ar       1 <1>        0.000
      9 C15        -0.8928    1.3667   -0.3496 C.ar       1 <1>        0.000
     10 H           1.8877   -1.9237   -0.4109 H.spc      1 <1>        0.000
     11 H           1.8648   -1.5080    1.2877 H.spc      1 <1>        0.000
     12 H           3.5558    0.1279    0.0036 H.spc      1 <1>        0.000
     13 H          -0.9493   -2.4278    0.5986 H.spc      1 <1>        0.000
     14 H          -3.0782   -1.1991    0.2598 H.spc      1 <1>        0.000
     15 H          -3.0544    1.2149   -0.3367 H.spc      1 <1>        0.000
     16 H          -0.8802    2.4252   -0.6095 H.spc      1 <1>        0.000
@<TRIPOS>BOND
     1    8    9 ar 
     2    7    8 ar 
     3    1    2 1  
     4    1    5 2  
     5    2    3 ar 
     6    3    4 1  
     7    2    9 ar 
     8    3    6 ar 
     9    4    5 1  
    10    6    7 ar 
    11    4   10 1  
    12    4   11 1  
    13    5   12 1  
    14    6   13 1  
    15    7   14 1  
    16    8   15 1  
    17    9   16 1  
# Name:          frag4-296-1296/48856 -- energy: -0.629019
# Creation time: Sat Jun  5 12:52:47 2010


@<TRIPOS>MOLECULE
frag4-296-1296/48856 -- energy: -0.629019
   16    17     1     1     1
SMALL
USER_CHARGES


@<TRIPOS>ATOM
      1 N1          1.6545    1.0723   -0.2382 N.2        1 <1>        0.000
      2 C1          0.3049    0.6654   -0.1650 C.ar       1 <1>        0.000
      3 C2          0.2735   -0.7250    0.1743 C.ar       1 <1>        0.000
      4 C3          1.6540   -1.1225    0.2902 C.3        1 <1>        0.000
      5 C4          2.4669    0.0790    0.0071 C.2        1 <1>        0.000
      6 C12        -0.9302   -1.3717    0.3294 C.ar       1 <1>        0.000
      7 C13        -2.1274   -0.6791    0.1429 C.ar       1 <1>        0.000
      8 C14        -2.1138    0.6829   -0.1942 C.ar       1 <1>        0.000
      9 C15        -0.8928    1.3667   -0.3496 C.ar       1 <1>        0.000
     10 H           1.8877   -1.9237   -0.4109 H.spc      1 <1>        0.000
     11 H           1.8648   -1.5080    1.2877 H.spc      1 <1>        0.000
     12 H           3.5558    0.1279    0.0036 H.spc      1 <1>        0.000
     13 H          -0.9493   -2.4278    0.5986 H.spc      1 <1>        0.000
     14 H          -3.0782   -1.1991    0.2598 H.spc      1 <1>        0.000
     15 H          -3.0544    1.2149   -0.3367 H.spc      1 <1>        0.000
     16 H          -0.8802    2.4252   -0.6095 H.spc      1 <1>        0.000
@<TRIPOS>BOND
     1    8    9 ar 
     2    7    8 ar 
     3    1    2 1  
     4    1    5 2  
     5    2    3 ar 
     6    3    4 1  
     7    2    9 ar 
     8    3    6 ar 
     9    4    5 1  
    10    6    7 ar 
    11    4   10 1  
    12    4   11 1  
    13    5   12 1  
    14    6   13 1  
    15    7   14 1  
    16    8   15 1  
    17    9   16 1  
