#      Rotatable Fragment
#      Build by yxyuan
#
# Name:          frag3-138-35/96164
# Creation time: Sat Jun  5 12:53:04 2010


@<TRIPOS>MOLECULE
frag3-138-35/96164
    9     8     1     1     1
SMALL
USER_CHARGES


@<TRIPOS>ATOM
      1 N4         -1.8387    0.8119   -0.1547 N.pl3      1 <1>        0.000
      2 P1         -3.1868    0.1268   -0.3881 P.3        1 <1>        0.000
      3 O4         -3.9179   -0.3216    0.8929 O.3        1 <1>        0.000
      4 O5         -4.0637    1.1408   -1.1766 O.3        1 <1>        0.000
      5 O6         -3.0406   -1.0414   -1.1978 O.2        1 <1>        0.000
      6 H          -0.9898    0.4192   -0.5616 H.spc      1 <1>        0.000
      7 H          -1.7889    1.6613    0.4078 H.spc      1 <1>        0.000
      8 H          -4.0397    0.4345    1.4718 H.spc      1 <1>        0.000
      9 H          -4.1781    1.9376   -0.6536 H.spc      1 <1>        0.000
@<TRIPOS>BOND
     1    1    2 1  
     2    2    3 1  
     3    2    4 1  
     4    2    5 2  
     5    1    6 1  
     6    1    7 1  
     7    3    8 1  
     8    4    9 1  
# Name:          frag3-138-35/96164 -- energy: -0.432782
# Creation time: Sat Jun  5 12:53:04 2010


@<TRIPOS>MOLECULE
frag3-138-35/96164 -- energy: -0.432782
    9     8     1     1     1
SMALL
USER_CHARGES


@<TRIPOS>ATOM
      1 N4         -1.8387    0.8119   -0.1547 N.pl3      1 <1>        0.000
      2 P1         -3.1868    0.1268   -0.3881 P.3        1 <1>        0.000
      3 O4         -3.9179   -0.3216    0.8929 O.3        1 <1>        0.000
      4 O5         -4.0637    1.1408   -1.1766 O.3        1 <1>        0.000
      5 O6         -3.0406   -1.0414   -1.1978 O.2        1 <1>        0.000
      6 H          -0.9898    0.4192   -0.5616 H.spc      1 <1>        0.000
      7 H          -1.7889    1.6613    0.4078 H.spc      1 <1>        0.000
      8 H          -4.0397    0.4345    1.4718 H.spc      1 <1>        0.000
      9 H          -4.1781    1.9376   -0.6536 H.spc      1 <1>        0.000
@<TRIPOS>BOND
     1    1    2 1  
     2    2    3 1  
     3    2    4 1  
     4    2    5 2  
     5    1    6 1  
     6    1    7 1  
     7    3    8 1  
     8    4    9 1  
