#      Rotatable Fragment
#      Build by yxyuan
#
# Name:          frag2-079-1/92655
# Creation time: Sat Jun  5 12:51:58 2010


@<TRIPOS>MOLECULE
frag2-079-1/92655
   40    46     1     1     1
SMALL
USER_CHARGES


@<TRIPOS>ATOM
      1 N1          1.5076   -1.1142    0.2423 N.ar       1 <1>        0.000
      2 C1          2.8583   -0.9926    0.2583 C.ar       1 <1>        0.000
      3 C2          3.4940    0.2557    0.0451 C.ar       1 <1>        0.000
      4 C3          2.6777    1.3910   -0.1924 C.ar       1 <1>        0.000
      5 C4          1.2726    1.2197   -0.1920 C.ar       1 <1>        0.000
      6 C5          0.7150   -0.0429    0.0268 C.ar       1 <1>        0.000
      7 C6         -0.6841   -0.2092    0.0241 C.ar       1 <1>        0.000
      8 N2         -1.2060   -1.4368    0.2329 N.ar       1 <1>        0.000
      9 C14         0.4285    2.3143   -0.4125 C.ar       1 <1>        0.000
     10 C7         -2.5453   -1.6377    0.2327 C.ar       1 <1>        0.000
     11 C8         -3.4567   -0.5718    0.0322 C.ar       1 <1>        0.000
     12 C9         -2.9288    0.7266   -0.1925 C.ar       1 <1>        0.000
     13 C10        -1.5228    0.8880   -0.1931 C.ar       1 <1>        0.000
     14 C11        -0.9586    2.1497   -0.4118 C.ar       1 <1>        0.000
     15 N3         -1.7433    3.2241   -0.6247 N.ar       1 <1>        0.000
     16 C12        -3.0850    3.1155   -0.6326 C.ar       1 <1>        0.000
     17 C13        -3.7096    1.8788   -0.4198 C.ar       1 <1>        0.000
     18 N4          0.9431    3.5424   -0.6301 N.ar       1 <1>        0.000
     19 C15         2.2722    3.7458   -0.6566 C.ar       1 <1>        0.000
     20 C16         3.1692    2.6931   -0.4323 C.ar       1 <1>        0.000
     21 C17        -4.8382   -0.8742    0.0555 C.ar       1 <1>        0.000
     22 C18        -5.2720   -2.1932    0.2557 C.ar       1 <1>        0.000
     23 C19        -4.3587   -3.2233    0.4474 C.ar       1 <1>        0.000
     24 C20        -3.0043   -2.9395    0.4389 C.ar       1 <1>        0.000
     25 C21         4.9073    0.2866    0.0828 C.ar       1 <1>        0.000
     26 C22         5.6363   -0.8886    0.3219 C.ar       1 <1>        0.000
     27 C23         4.9886   -2.1005    0.5275 C.ar       1 <1>        0.000
     28 C24         3.6072   -2.1463    0.4954 C.ar       1 <1>        0.000
     29 H          -3.6946    4.0021   -0.8070 H.spc      1 <1>        0.000
     30 H          -4.7972    1.8078   -0.4300 H.spc      1 <1>        0.000
     31 H           2.6578    4.7457   -0.8558 H.spc      1 <1>        0.000
     32 H           4.2433    2.8786   -0.4429 H.spc      1 <1>        0.000
     33 H          -5.5698   -0.0781   -0.0828 H.spc      1 <1>        0.000
     34 H          -6.3396   -2.4132    0.2610 H.spc      1 <1>        0.000
     35 H          -4.7059   -4.2447    0.6029 H.spc      1 <1>        0.000
     36 H          -2.2858   -3.7441    0.5955 H.spc      1 <1>        0.000
     37 H           5.4333    1.2282   -0.0747 H.spc      1 <1>        0.000
     38 H           6.7253   -0.8501    0.3466 H.spc      1 <1>        0.000
     39 H           5.5646   -3.0072    0.7125 H.spc      1 <1>        0.000
     40 H           3.0964   -3.0955    0.6573 H.spc      1 <1>        0.000
@<TRIPOS>BOND
     1    4   20 ar 
     2    3   25 ar 
     3    6    7 ar 
     4    2    3 ar 
     5    7   13 ar 
     6    7    8 ar 
     7    1    6 ar 
     8    1    2 ar 
     9    4    5 ar 
    10    5    9 ar 
    11    2   28 ar 
    12    3    4 ar 
    13    5    6 ar 
    14   27   28 ar 
    15   26   27 ar 
    16   25   26 ar 
    17   23   24 ar 
    18   22   23 ar 
    19   21   22 ar 
    20   19   20 ar 
    21   18   19 ar 
    22    9   18 ar 
    23   15   16 ar 
    24   14    9 ar 
    25   14   15 ar 
    26   13   14 ar 
    27   16   17 ar 
    28   12   17 ar 
    29   12   13 ar 
    30   11   21 ar 
    31   11   12 ar 
    32   10   24 ar 
    33   10   11 ar 
    34    8   10 ar 
    35   16   29 1  
    36   17   30 1  
    37   19   31 1  
    38   20   32 1  
    39   21   33 1  
    40   22   34 1  
    41   23   35 1  
    42   24   36 1  
    43   25   37 1  
    44   26   38 1  
    45   27   39 1  
    46   28   40 1  
# Name:          frag2-079-1/92655 -- energy: -2.045041
# Creation time: Sat Jun  5 12:51:58 2010


@<TRIPOS>MOLECULE
frag2-079-1/92655 -- energy: -2.045041
   40    46     1     1     1
SMALL
USER_CHARGES


@<TRIPOS>ATOM
      1 N1          1.5076   -1.1142    0.2423 N.ar       1 <1>        0.000
      2 C1          2.8583   -0.9926    0.2583 C.ar       1 <1>        0.000
      3 C2          3.4940    0.2557    0.0451 C.ar       1 <1>        0.000
      4 C3          2.6777    1.3910   -0.1924 C.ar       1 <1>        0.000
      5 C4          1.2726    1.2197   -0.1920 C.ar       1 <1>        0.000
      6 C5          0.7150   -0.0429    0.0268 C.ar       1 <1>        0.000
      7 C6         -0.6841   -0.2092    0.0241 C.ar       1 <1>        0.000
      8 N2         -1.2060   -1.4368    0.2329 N.ar       1 <1>        0.000
      9 C14         0.4285    2.3143   -0.4125 C.ar       1 <1>        0.000
     10 C7         -2.5453   -1.6377    0.2327 C.ar       1 <1>        0.000
     11 C8         -3.4567   -0.5718    0.0322 C.ar       1 <1>        0.000
     12 C9         -2.9288    0.7266   -0.1925 C.ar       1 <1>        0.000
     13 C10        -1.5228    0.8880   -0.1931 C.ar       1 <1>        0.000
     14 C11        -0.9586    2.1497   -0.4118 C.ar       1 <1>        0.000
     15 N3         -1.7433    3.2241   -0.6247 N.ar       1 <1>        0.000
     16 C12        -3.0850    3.1155   -0.6326 C.ar       1 <1>        0.000
     17 C13        -3.7096    1.8788   -0.4198 C.ar       1 <1>        0.000
     18 N4          0.9431    3.5424   -0.6301 N.ar       1 <1>        0.000
     19 C15         2.2722    3.7458   -0.6566 C.ar       1 <1>        0.000
     20 C16         3.1692    2.6931   -0.4323 C.ar       1 <1>        0.000
     21 C17        -4.8382   -0.8742    0.0555 C.ar       1 <1>        0.000
     22 C18        -5.2720   -2.1932    0.2557 C.ar       1 <1>        0.000
     23 C19        -4.3587   -3.2233    0.4474 C.ar       1 <1>        0.000
     24 C20        -3.0043   -2.9395    0.4389 C.ar       1 <1>        0.000
     25 C21         4.9073    0.2866    0.0828 C.ar       1 <1>        0.000
     26 C22         5.6363   -0.8886    0.3219 C.ar       1 <1>        0.000
     27 C23         4.9886   -2.1005    0.5275 C.ar       1 <1>        0.000
     28 C24         3.6072   -2.1463    0.4954 C.ar       1 <1>        0.000
     29 H          -3.6946    4.0021   -0.8070 H.spc      1 <1>        0.000
     30 H          -4.7972    1.8078   -0.4300 H.spc      1 <1>        0.000
     31 H           2.6578    4.7457   -0.8558 H.spc      1 <1>        0.000
     32 H           4.2433    2.8786   -0.4429 H.spc      1 <1>        0.000
     33 H          -5.5698   -0.0781   -0.0828 H.spc      1 <1>        0.000
     34 H          -6.3396   -2.4132    0.2610 H.spc      1 <1>        0.000
     35 H          -4.7059   -4.2447    0.6029 H.spc      1 <1>        0.000
     36 H          -2.2858   -3.7441    0.5955 H.spc      1 <1>        0.000
     37 H           5.4333    1.2282   -0.0747 H.spc      1 <1>        0.000
     38 H           6.7253   -0.8501    0.3466 H.spc      1 <1>        0.000
     39 H           5.5646   -3.0072    0.7125 H.spc      1 <1>        0.000
     40 H           3.0964   -3.0955    0.6573 H.spc      1 <1>        0.000
@<TRIPOS>BOND
     1    4   20 ar 
     2    3   25 ar 
     3    6    7 ar 
     4    2    3 ar 
     5    7   13 ar 
     6    7    8 ar 
     7    1    6 ar 
     8    1    2 ar 
     9    4    5 ar 
    10    5    9 ar 
    11    2   28 ar 
    12    3    4 ar 
    13    5    6 ar 
    14   27   28 ar 
    15   26   27 ar 
    16   25   26 ar 
    17   23   24 ar 
    18   22   23 ar 
    19   21   22 ar 
    20   19   20 ar 
    21   18   19 ar 
    22    9   18 ar 
    23   15   16 ar 
    24   14    9 ar 
    25   14   15 ar 
    26   13   14 ar 
    27   16   17 ar 
    28   12   17 ar 
    29   12   13 ar 
    30   11   21 ar 
    31   11   12 ar 
    32   10   24 ar 
    33   10   11 ar 
    34    8   10 ar 
    35   16   29 1  
    36   17   30 1  
    37   19   31 1  
    38   20   32 1  
    39   21   33 1  
    40   22   34 1  
    41   23   35 1  
    42   24   36 1  
    43   25   37 1  
    44   26   38 1  
    45   27   39 1  
    46   28   40 1  
