#      Rotatable Fragment
#      Build by yxyuan
#
# Name:          frag5-517-135/41815
# Creation time: Sat Jun  5 12:52:51 2010


@<TRIPOS>MOLECULE
frag5-517-135/41815
   12    12     1     1     1
SMALL
USER_CHARGES


@<TRIPOS>ATOM
      1 O1          4.6911    3.0111   -1.2732 O.3        1 <1>        0.000
      2 C1          4.7954    2.3845   -0.0105 C.3        1 <1>        0.000
      3 C2          4.0789    1.0543   -0.1623 C.3        1 <1>        0.000
      4 C3          3.0537    1.2945   -1.2561 C.3        1 <1>        0.000
      5 C4          3.8979    2.2397   -2.0477 C.2        1 <1>        0.000
      6 O2          3.8955    2.3109   -3.2678 O.2        1 <1>        0.000
      7 H           4.3498    2.9924    0.7769 H.spc      1 <1>        0.000
      8 H           5.8357    2.2482    0.2848 H.spc      1 <1>        0.000
      9 H           3.6132    0.7334    0.7695 H.spc      1 <1>        0.000
     10 H           4.7663    0.2479   -0.4178 H.spc      1 <1>        0.000
     11 H           2.0756    1.6574   -0.9403 H.spc      1 <1>        0.000
     12 H           2.6800    0.4146   -1.7797 H.spc      1 <1>        0.000
@<TRIPOS>BOND
     1    1    5 1  
     2    1    2 1  
     3    2    3 1  
     4    3    4 1  
     5    4    5 1  
     6    5    6 2  
     7    2    7 1  
     8    2    8 1  
     9    3    9 1  
    10    3   10 1  
    11    4   11 1  
    12    4   12 1  
# Name:          frag5-517-135/41815 -- energy: -0.702522
# Creation time: Sat Jun  5 12:52:51 2010


@<TRIPOS>MOLECULE
frag5-517-135/41815 -- energy: -0.702522
   12    12     1     1     1
SMALL
USER_CHARGES


@<TRIPOS>ATOM
      1 O1          4.6911    3.0111   -1.2732 O.3        1 <1>        0.000
      2 C1          4.7954    2.3845   -0.0105 C.3        1 <1>        0.000
      3 C2          4.0789    1.0543   -0.1623 C.3        1 <1>        0.000
      4 C3          3.0537    1.2945   -1.2561 C.3        1 <1>        0.000
      5 C4          3.8979    2.2397   -2.0477 C.2        1 <1>        0.000
      6 O2          3.8955    2.3109   -3.2678 O.2        1 <1>        0.000
      7 H           4.3498    2.9924    0.7769 H.spc      1 <1>        0.000
      8 H           5.8357    2.2482    0.2848 H.spc      1 <1>        0.000
      9 H           3.6132    0.7334    0.7695 H.spc      1 <1>        0.000
     10 H           4.7663    0.2479   -0.4178 H.spc      1 <1>        0.000
     11 H           2.0756    1.6574   -0.9403 H.spc      1 <1>        0.000
     12 H           2.6800    0.4146   -1.7797 H.spc      1 <1>        0.000
@<TRIPOS>BOND
     1    1    5 1  
     2    1    2 1  
     3    2    3 1  
     4    3    4 1  
     5    4    5 1  
     6    5    6 2  
     7    2    7 1  
     8    2    8 1  
     9    3    9 1  
    10    3   10 1  
    11    4   11 1  
    12    4   12 1  
