#      Rotatable Fragment
#      Build by yxyuan
#
# Name:          frag5-679-62/138278
# Creation time: Sat Jun  5 12:51:55 2010


@<TRIPOS>MOLECULE
frag5-679-62/138278
   20    20     1     1     1
SMALL
USER_CHARGES


@<TRIPOS>ATOM
      1 C15        -2.9905    4.2916   -0.2930 C.2        1 <1>        0.000
      2 N7         -1.8411    4.1833    0.4014 N.am       1 <1>        0.000
      3 O5         -3.9741    4.9162    0.0630 O.2        1 <1>        0.000
      4 C17        -0.7287    3.4246   -0.0610 C.3        1 <1>        0.000
      5 N8          0.5454    4.1009    0.1072 N.3        1 <1>        0.000
      6 N9         -0.7678    2.0552    0.4384 N.3        1 <1>        0.000
      7 C21         1.6724    3.3246   -0.3996 C.3        1 <1>        0.000
      8 C22         0.3496    1.2540   -0.0391 C.3        1 <1>        0.000
      9 C25         1.6951    1.9305    0.2326 C.3        1 <1>        0.000
     10 H          -3.0450    3.7779   -1.2528 H.spc      1 <1>        0.000
     11 H          -1.7646    4.6656    1.2969 H.spc      1 <1>        0.000
     12 H          -0.8243    3.3424   -1.1437 H.spc      1 <1>        0.000
     13 H           0.6914    4.2459    1.1062 H.spc      1 <1>        0.000
     14 H          -1.6294    1.6234    0.1043 H.spc      1 <1>        0.000
     15 H           1.5719    3.2206   -1.4800 H.spc      1 <1>        0.000
     16 H           2.5985    3.8414   -0.1479 H.spc      1 <1>        0.000
     17 H           0.2428    1.1266   -1.1163 H.spc      1 <1>        0.000
     18 H           0.3349    0.2995    0.4870 H.spc      1 <1>        0.000
     19 H           1.8615    2.0111    1.3068 H.spc      1 <1>        0.000
     20 H           2.5032    1.3392   -0.1980 H.spc      1 <1>        0.000
@<TRIPOS>BOND
     1    7    9 1  
     2    4    6 1  
     3    6    8 1  
     4    4    5 1  
     5    8    9 1  
     6    5    7 1  
     7    1    2 am 
     8    1    3 2  
     9    2    4 1  
    10    1   10 1  
    11    2   11 1  
    12    4   12 1  
    13    5   13 1  
    14    6   14 1  
    15    7   15 1  
    16    7   16 1  
    17    8   17 1  
    18    8   18 1  
    19    9   19 1  
    20    9   20 1  
# Name:          frag5-679-62/138278
# Creation time: Sat Jun  5 12:51:55 2010


@<TRIPOS>MOLECULE
frag5-679-62/138278
   20    20     1     1     1
SMALL
USER_CHARGES


@<TRIPOS>ATOM
      1 C15        -3.0426    4.4566    0.0989 C.2        1 <1>        0.000
      2 N7         -2.2655    3.5546    0.7312 N.am       1 <1>        0.000
      3 O5         -2.6142    5.2745   -0.7026 O.2        1 <1>        0.000
      4 C17        -1.0307    3.1105    0.1428 C.3        1 <1>        0.000
      5 N8          0.0567    4.0802    0.1702 N.3        1 <1>        0.000
      6 N9         -0.6131    1.8242    0.6861 N.3        1 <1>        0.000
      7 C21         1.2285    3.6396   -0.5790 C.3        1 <1>        0.000
      8 C22         0.5388    1.2715   -0.0174 C.3        1 <1>        0.000
      9 C25         1.7025    2.2691   -0.0803 C.3        1 <1>        0.000
     10 H          -4.1112    4.4568    0.3139 H.spc      1 <1>        0.000
     11 H          -2.5561    3.1835    1.6357 H.spc      1 <1>        0.000
     12 H          -1.2609    2.9893   -0.9157 H.spc      1 <1>        0.000
     13 H           0.3376    4.2062    1.1426 H.spc      1 <1>        0.000
     14 H          -1.3895    1.1708    0.5828 H.spc      1 <1>        0.000
     15 H           0.9647    3.5603   -1.6336 H.spc      1 <1>        0.000
     16 H           2.0309    4.3639   -0.4386 H.spc      1 <1>        0.000
     17 H           0.2355    1.0350   -1.0373 H.spc      1 <1>        0.000
     18 H           0.8761    0.3861    0.5214 H.spc      1 <1>        0.000
     19 H           2.1159    2.3863    0.9214 H.spc      1 <1>        0.000
     20 H           2.4528    1.8866   -0.7722 H.spc      1 <1>        0.000
@<TRIPOS>BOND
     1    7    9 1  
     2    4    6 1  
     3    6    8 1  
     4    4    5 1  
     5    8    9 1  
     6    5    7 1  
     7    1    2 am 
     8    1    3 2  
     9    2    4 1  
    10    1   10 1  
    11    2   11 1  
    12    4   12 1  
    13    5   13 1  
    14    6   14 1  
    15    7   15 1  
    16    7   16 1  
    17    8   17 1  
    18    8   18 1  
    19    9   19 1  
    20    9   20 1  
# Name:          frag5-679-62/138278
# Creation time: Sat Jun  5 12:51:55 2010


@<TRIPOS>MOLECULE
frag5-679-62/138278
   20    20     1     1     1
SMALL
USER_CHARGES


@<TRIPOS>ATOM
      1 C15        -2.7421    3.9201    0.0278 C.2        1 <1>        0.000
      2 N7         -1.4490    4.3255    0.1338 N.am       1 <1>        0.000
      3 O5         -3.5499    4.2206   -0.8511 O.2        1 <1>        0.000
      4 C17        -0.5045    3.6845    1.0245 C.3        1 <1>        0.000
      5 N8         -0.6459    2.2497    1.0238 N.3        1 <1>        0.000
      6 N9          0.8485    3.9770    0.6477 N.3        1 <1>        0.000
      7 C21        -0.3539    1.6423   -0.2475 C.3        1 <1>        0.000
      8 C22         1.2915    3.4844   -0.6321 C.3        1 <1>        0.000
      9 C25         1.0658    1.9770   -0.6770 C.3        1 <1>        0.000
     10 H          -3.1049    3.2532    0.8099 H.spc      1 <1>        0.000
     11 H          -1.1323    5.1105   -0.4353 H.spc      1 <1>        0.000
     12 H          -0.7223    4.0785    2.0172 H.spc      1 <1>        0.000
     13 H          -1.6184    2.0383    1.2474 H.spc      1 <1>        0.000
     14 H           1.4369    3.5170    1.3423 H.spc      1 <1>        0.000
     15 H          -0.4531    0.5606   -0.1568 H.spc      1 <1>        0.000
     16 H          -1.0512    2.0239   -0.9933 H.spc      1 <1>        0.000
     17 H           2.3500    3.7057   -0.7691 H.spc      1 <1>        0.000
     18 H           0.7294    3.9680   -1.4310 H.spc      1 <1>        0.000
     19 H           1.2214    1.6243   -1.6966 H.spc      1 <1>        0.000
     20 H           1.7666    1.4921    0.0026 H.spc      1 <1>        0.000
@<TRIPOS>BOND
     1    7    9 1  
     2    4    6 1  
     3    6    8 1  
     4    4    5 1  
     5    8    9 1  
     6    5    7 1  
     7    1    2 am 
     8    1    3 2  
     9    2    4 1  
    10    1   10 1  
    11    2   11 1  
    12    4   12 1  
    13    5   13 1  
    14    6   14 1  
    15    7   15 1  
    16    7   16 1  
    17    8   17 1  
    18    8   18 1  
    19    9   19 1  
    20    9   20 1  
# Name:          frag5-679-62/138278 -- energy: -1.990900
# Creation time: Sat Jun  5 12:51:55 2010


@<TRIPOS>MOLECULE
frag5-679-62/138278 -- energy: -1.990900
   20    20     1     1     1
SMALL
USER_CHARGES


@<TRIPOS>ATOM
      1 C15        -2.9905    4.2916   -0.2930 C.2        1 <1>        0.000
      2 N7         -1.8411    4.1833    0.4014 N.am       1 <1>        0.000
      3 O5         -3.9741    4.9162    0.0630 O.2        1 <1>        0.000
      4 C17        -0.7287    3.4246   -0.0610 C.3        1 <1>        0.000
      5 N8          0.5454    4.1009    0.1072 N.3        1 <1>        0.000
      6 N9         -0.7678    2.0552    0.4384 N.3        1 <1>        0.000
      7 C21         1.6724    3.3246   -0.3996 C.3        1 <1>        0.000
      8 C22         0.3496    1.2540   -0.0391 C.3        1 <1>        0.000
      9 C25         1.6951    1.9305    0.2326 C.3        1 <1>        0.000
     10 H          -3.0450    3.7779   -1.2528 H.spc      1 <1>        0.000
     11 H          -1.7646    4.6656    1.2969 H.spc      1 <1>        0.000
     12 H          -0.8243    3.3424   -1.1437 H.spc      1 <1>        0.000
     13 H           0.6914    4.2459    1.1062 H.spc      1 <1>        0.000
     14 H          -1.6294    1.6234    0.1043 H.spc      1 <1>        0.000
     15 H           1.5719    3.2206   -1.4800 H.spc      1 <1>        0.000
     16 H           2.5985    3.8414   -0.1479 H.spc      1 <1>        0.000
     17 H           0.2428    1.1266   -1.1163 H.spc      1 <1>        0.000
     18 H           0.3349    0.2995    0.4870 H.spc      1 <1>        0.000
     19 H           1.8615    2.0111    1.3068 H.spc      1 <1>        0.000
     20 H           2.5032    1.3392   -0.1980 H.spc      1 <1>        0.000
@<TRIPOS>BOND
     1    7    9 1  
     2    4    6 1  
     3    6    8 1  
     4    4    5 1  
     5    8    9 1  
     6    5    7 1  
     7    1    2 am 
     8    1    3 2  
     9    2    4 1  
    10    1   10 1  
    11    2   11 1  
    12    4   12 1  
    13    5   13 1  
    14    6   14 1  
    15    7   15 1  
    16    7   16 1  
    17    8   17 1  
    18    8   18 1  
    19    9   19 1  
    20    9   20 1  
# Name:          frag5-679-62/138278 -- energy: -2.019349
# Creation time: Sat Jun  5 12:51:55 2010


@<TRIPOS>MOLECULE
frag5-679-62/138278 -- energy: -2.019349
   20    20     1     1     1
SMALL
USER_CHARGES


@<TRIPOS>ATOM
      1 C15        -3.0426    4.4566    0.0989 C.2        1 <1>        0.000
      2 N7         -2.2655    3.5546    0.7312 N.am       1 <1>        0.000
      3 O5         -2.6142    5.2745   -0.7026 O.2        1 <1>        0.000
      4 C17        -1.0307    3.1105    0.1428 C.3        1 <1>        0.000
      5 N8          0.0567    4.0802    0.1702 N.3        1 <1>        0.000
      6 N9         -0.6131    1.8242    0.6861 N.3        1 <1>        0.000
      7 C21         1.2285    3.6396   -0.5790 C.3        1 <1>        0.000
      8 C22         0.5388    1.2715   -0.0174 C.3        1 <1>        0.000
      9 C25         1.7025    2.2691   -0.0803 C.3        1 <1>        0.000
     10 H          -4.1112    4.4568    0.3139 H.spc      1 <1>        0.000
     11 H          -2.5561    3.1835    1.6357 H.spc      1 <1>        0.000
     12 H          -1.2609    2.9893   -0.9157 H.spc      1 <1>        0.000
     13 H           0.3376    4.2062    1.1426 H.spc      1 <1>        0.000
     14 H          -1.3895    1.1708    0.5828 H.spc      1 <1>        0.000
     15 H           0.9647    3.5603   -1.6336 H.spc      1 <1>        0.000
     16 H           2.0309    4.3639   -0.4386 H.spc      1 <1>        0.000
     17 H           0.2355    1.0350   -1.0373 H.spc      1 <1>        0.000
     18 H           0.8761    0.3861    0.5214 H.spc      1 <1>        0.000
     19 H           2.1159    2.3863    0.9214 H.spc      1 <1>        0.000
     20 H           2.4528    1.8866   -0.7722 H.spc      1 <1>        0.000
@<TRIPOS>BOND
     1    7    9 1  
     2    4    6 1  
     3    6    8 1  
     4    4    5 1  
     5    8    9 1  
     6    5    7 1  
     7    1    2 am 
     8    1    3 2  
     9    2    4 1  
    10    1   10 1  
    11    2   11 1  
    12    4   12 1  
    13    5   13 1  
    14    6   14 1  
    15    7   15 1  
    16    7   16 1  
    17    8   17 1  
    18    8   18 1  
    19    9   19 1  
    20    9   20 1  
# Name:          frag5-679-62/138278 -- energy: -2.091409
# Creation time: Sat Jun  5 12:51:55 2010


@<TRIPOS>MOLECULE
frag5-679-62/138278 -- energy: -2.091409
   20    20     1     1     1
SMALL
USER_CHARGES


@<TRIPOS>ATOM
      1 C15        -2.7421    3.9201    0.0278 C.2        1 <1>        0.000
      2 N7         -1.4490    4.3255    0.1338 N.am       1 <1>        0.000
      3 O5         -3.5499    4.2206   -0.8511 O.2        1 <1>        0.000
      4 C17        -0.5045    3.6845    1.0245 C.3        1 <1>        0.000
      5 N8         -0.6459    2.2497    1.0238 N.3        1 <1>        0.000
      6 N9          0.8485    3.9770    0.6477 N.3        1 <1>        0.000
      7 C21        -0.3539    1.6423   -0.2475 C.3        1 <1>        0.000
      8 C22         1.2915    3.4844   -0.6321 C.3        1 <1>        0.000
      9 C25         1.0658    1.9770   -0.6770 C.3        1 <1>        0.000
     10 H          -3.1049    3.2532    0.8099 H.spc      1 <1>        0.000
     11 H          -1.1323    5.1105   -0.4353 H.spc      1 <1>        0.000
     12 H          -0.7223    4.0785    2.0172 H.spc      1 <1>        0.000
     13 H          -1.6184    2.0383    1.2474 H.spc      1 <1>        0.000
     14 H           1.4369    3.5170    1.3423 H.spc      1 <1>        0.000
     15 H          -0.4531    0.5606   -0.1568 H.spc      1 <1>        0.000
     16 H          -1.0512    2.0239   -0.9933 H.spc      1 <1>        0.000
     17 H           2.3500    3.7057   -0.7691 H.spc      1 <1>        0.000
     18 H           0.7294    3.9680   -1.4310 H.spc      1 <1>        0.000
     19 H           1.2214    1.6243   -1.6966 H.spc      1 <1>        0.000
     20 H           1.7666    1.4921    0.0026 H.spc      1 <1>        0.000
@<TRIPOS>BOND
     1    7    9 1  
     2    4    6 1  
     3    6    8 1  
     4    4    5 1  
     5    8    9 1  
     6    5    7 1  
     7    1    2 am 
     8    1    3 2  
     9    2    4 1  
    10    1   10 1  
    11    2   11 1  
    12    4   12 1  
    13    5   13 1  
    14    6   14 1  
    15    7   15 1  
    16    7   16 1  
    17    8   17 1  
    18    8   18 1  
    19    9   19 1  
    20    9   20 1  
