#      Rotatable Fragment
#      Build by yxyuan
#
# Name:          frag4-405-191/150395
# Creation time: Sat Jun  5 12:53:34 2010


@<TRIPOS>MOLECULE
frag4-405-191/150395
   15    16     1     1     1
SMALL
USER_CHARGES


@<TRIPOS>ATOM
      1 C1          1.4424    1.0783    0.3260 C.2        1 <1>        0.000
      2 C2          0.1794    0.6949    0.0959 C.2        1 <1>        0.000
      3 C3          2.3825    0.0158    0.0126 C.3        1 <1>        0.000
      4 C5          0.4595   -0.7144   -0.3577 C.2        1 <1>        0.000
      5 C6         -1.1612    1.1681    0.2171 C.2        1 <1>        0.000
      6 N1          1.6666   -1.1179   -0.4041 N.2        1 <1>        0.000
      7 N2         -0.6405   -1.4316   -0.6689 N.2        1 <1>        0.000
      8 C10        -2.2228    0.3502    0.0350 C.2        1 <1>        0.000
      9 C15        -1.8039   -1.0493   -0.2425 C.2        1 <1>        0.000
     10 H           1.7280    2.0614    0.7003 H.spc      1 <1>        0.000
     11 H           2.9728   -0.2259    0.8964 H.spc      1 <1>        0.000
     12 H           3.0532    0.3405   -0.7829 H.spc      1 <1>        0.000
     13 H          -1.3342    2.2159    0.4628 H.spc      1 <1>        0.000
     14 H          -3.2612    0.6777    0.0856 H.spc      1 <1>        0.000
     15 H          -2.5462   -1.8288   -0.0710 H.spc      1 <1>        0.000
@<TRIPOS>BOND
     1    8    9 1  
     2    1    2 2  
     3    1    3 1  
     4    2    4 1  
     5    2    5 1  
     6    3    6 1  
     7    4    7 1  
     8    4    6 2  
     9    5    8 2  
    10    7    9 2  
    11    1   10 1  
    12    3   11 1  
    13    3   12 1  
    14    5   13 1  
    15    8   14 1  
    16    9   15 1  
# Name:          frag4-405-191/150395 -- energy: -0.420643
# Creation time: Sat Jun  5 12:53:34 2010


@<TRIPOS>MOLECULE
frag4-405-191/150395 -- energy: -0.420643
   15    16     1     1     1
SMALL
USER_CHARGES


@<TRIPOS>ATOM
      1 C1          1.4424    1.0783    0.3260 C.2        1 <1>        0.000
      2 C2          0.1794    0.6949    0.0959 C.2        1 <1>        0.000
      3 C3          2.3825    0.0158    0.0126 C.3        1 <1>        0.000
      4 C5          0.4595   -0.7144   -0.3577 C.2        1 <1>        0.000
      5 C6         -1.1612    1.1681    0.2171 C.2        1 <1>        0.000
      6 N1          1.6666   -1.1179   -0.4041 N.2        1 <1>        0.000
      7 N2         -0.6405   -1.4316   -0.6689 N.2        1 <1>        0.000
      8 C10        -2.2228    0.3502    0.0350 C.2        1 <1>        0.000
      9 C15        -1.8039   -1.0493   -0.2425 C.2        1 <1>        0.000
     10 H           1.7280    2.0614    0.7003 H.spc      1 <1>        0.000
     11 H           2.9728   -0.2259    0.8964 H.spc      1 <1>        0.000
     12 H           3.0532    0.3405   -0.7829 H.spc      1 <1>        0.000
     13 H          -1.3342    2.2159    0.4628 H.spc      1 <1>        0.000
     14 H          -3.2612    0.6777    0.0856 H.spc      1 <1>        0.000
     15 H          -2.5462   -1.8288   -0.0710 H.spc      1 <1>        0.000
@<TRIPOS>BOND
     1    8    9 1  
     2    1    2 2  
     3    1    3 1  
     4    2    4 1  
     5    2    5 1  
     6    3    6 1  
     7    4    7 1  
     8    4    6 2  
     9    5    8 2  
    10    7    9 2  
    11    1   10 1  
    12    3   11 1  
    13    3   12 1  
    14    5   13 1  
    15    8   14 1  
    16    9   15 1  
