#      Rotatable Fragment
#      Build by yxyuan
#
# Name:          frag3-251-4/96164
# Creation time: Sat Jun  5 12:53:17 2010


@<TRIPOS>MOLECULE
frag3-251-4/96164
    9     8     1     1     1
SMALL
USER_CHARGES


@<TRIPOS>ATOM
      1 S1         -0.3703   -0.7727   -0.5242 S.3        1 <1>        0.000
      2 S2         -1.2736    0.7310   -1.3986 S.o        1 <1>        0.000
      3 C1          1.0649   -0.0124    0.0879 C.2        1 <1>        0.000
      4 O1         -1.1090    1.9537   -0.6091 O.2        1 <1>        0.000
      5 C3          2.2806   -0.5473    0.0265 C.2        1 <1>        0.000
      6 H          -2.5703    0.4551   -1.5052 H.spc      1 <1>        0.000
      7 H           0.9629    0.9680    0.5532 H.spc      1 <1>        0.000
      8 H           2.4228   -1.5262   -0.4314 H.spc      1 <1>        0.000
      9 H           3.1350   -0.0069    0.4341 H.spc      1 <1>        0.000
@<TRIPOS>BOND
     1    1    2 1  
     2    1    3 1  
     3    2    4 2  
     4    3    5 2  
     5    2    6 1  
     6    3    7 1  
     7    5    8 1  
     8    5    9 1  
# Name:          frag3-251-4/96164
# Creation time: Sat Jun  5 12:53:17 2010


@<TRIPOS>MOLECULE
frag3-251-4/96164
    9     8     1     1     1
SMALL
USER_CHARGES


@<TRIPOS>ATOM
      1 S1         -0.2215   -0.3691   -0.3724 S.3        1 <1>        0.000
      2 S2         -0.7963    1.4446   -0.8449 S.o        1 <1>        0.000
      3 C1          1.4713   -0.1276   -0.1442 C.2        1 <1>        0.000
      4 O1         -2.1938    1.4973   -1.2111 O.2        1 <1>        0.000
      5 C3          2.3329   -1.0929    0.1551 C.2        1 <1>        0.000
      6 H          -0.0794    1.8463   -1.8907 H.spc      1 <1>        0.000
      7 H           1.8597    0.8850   -0.2529 H.spc      1 <1>        0.000
      8 H           1.9831   -2.1186    0.2722 H.spc      1 <1>        0.000
      9 H           3.3898   -0.8595    0.2837 H.spc      1 <1>        0.000
@<TRIPOS>BOND
     1    1    2 1  
     2    1    3 1  
     3    2    4 2  
     4    3    5 2  
     5    2    6 1  
     6    3    7 1  
     7    5    8 1  
     8    5    9 1  
# Name:          frag3-251-4/96164
# Creation time: Sat Jun  5 12:53:17 2010


@<TRIPOS>MOLECULE
frag3-251-4/96164
    9     8     1     1     1
SMALL
USER_CHARGES


@<TRIPOS>ATOM
      1 S1         -0.4014   -0.5606   -0.2112 S.3        1 <1>        0.000
      2 S2         -1.0219    0.8908   -1.3853 S.o        1 <1>        0.000
      3 C1          1.2978   -0.6410   -0.5464 C.2        1 <1>        0.000
      4 O1         -1.5269    2.0203   -0.6221 O.2        1 <1>        0.000
      5 C3          2.2452   -0.3573    0.3475 C.2        1 <1>        0.000
      6 H          -2.0086    0.4231   -2.1446 H.spc      1 <1>        0.000
      7 H           1.6097   -0.9411   -1.5468 H.spc      1 <1>        0.000
      8 H           1.9685   -0.0539    1.3572 H.spc      1 <1>        0.000
      9 H           3.2965   -0.4287    0.0687 H.spc      1 <1>        0.000
@<TRIPOS>BOND
     1    1    2 1  
     2    1    3 1  
     3    2    4 2  
     4    3    5 2  
     5    2    6 1  
     6    3    7 1  
     7    5    8 1  
     8    5    9 1  
# Name:          frag3-251-4/96164
# Creation time: Sat Jun  5 12:53:17 2010


@<TRIPOS>MOLECULE
frag3-251-4/96164
    9     8     1     1     1
SMALL
USER_CHARGES


@<TRIPOS>ATOM
      1 S1         -0.4036   -0.9834   -0.7651 S.3        1 <1>        0.000
      2 S2         -1.4069    0.7026   -0.8743 S.o        1 <1>        0.000
      3 C1          1.1990   -0.3401   -0.6298 C.2        1 <1>        0.000
      4 O1         -0.5093    1.8503   -0.6644 O.2        1 <1>        0.000
      5 C3          1.7134    0.1230    0.5162 C.2        1 <1>        0.000
      6 H          -2.3451    0.7093    0.0683 H.spc      1 <1>        0.000
      7 H           1.8211   -0.3108   -1.5244 H.spc      1 <1>        0.000
      8 H           1.1158    0.1070    1.4276 H.spc      1 <1>        0.000
      9 H           2.7298    0.5161    0.5378 H.spc      1 <1>        0.000
@<TRIPOS>BOND
     1    1    2 1  
     2    1    3 1  
     3    2    4 2  
     4    3    5 2  
     5    2    6 1  
     6    3    7 1  
     7    5    8 1  
     8    5    9 1  
# Name:          frag3-251-4/96164
# Creation time: Sat Jun  5 12:53:17 2010


@<TRIPOS>MOLECULE
frag3-251-4/96164
    9     8     1     1     1
SMALL
USER_CHARGES


@<TRIPOS>ATOM
      1 S1         -0.4430   -0.9940   -0.6707 S.3        1 <1>        0.000
      2 S2         -1.2848    0.7071   -1.1748 S.o        1 <1>        0.000
      3 C1          0.8289   -0.3562    0.3120 C.2        1 <1>        0.000
      4 O1         -0.4753    1.8442   -0.7028 O.2        1 <1>        0.000
      5 C3          1.9668    0.1512   -0.1810 C.2        1 <1>        0.000
      6 H          -2.4903    0.7743   -0.6170 H.spc      1 <1>        0.000
      7 H           0.6975   -0.3676    1.3940 H.spc      1 <1>        0.000
      8 H           2.1300    0.1776   -1.2584 H.spc      1 <1>        0.000
      9 H           2.7293    0.5376    0.4953 H.spc      1 <1>        0.000
@<TRIPOS>BOND
     1    1    2 1  
     2    1    3 1  
     3    2    4 2  
     4    3    5 2  
     5    2    6 1  
     6    3    7 1  
     7    5    8 1  
     8    5    9 1  
# Name:          frag3-251-4/96164
# Creation time: Sat Jun  5 12:53:17 2010


@<TRIPOS>MOLECULE
frag3-251-4/96164
    9     8     1     1     1
SMALL
USER_CHARGES


@<TRIPOS>ATOM
      1 S1         -0.4164   -0.6167   -0.4291 S.3        1 <1>        0.000
      2 S2         -0.5597    1.3312   -0.7213 S.o        1 <1>        0.000
      3 C1          1.1277   -0.6927    0.3437 C.2        1 <1>        0.000
      4 O1         -1.8257    1.6930   -1.3282 O.2        1 <1>        0.000
      5 C3          2.2668   -0.3625   -0.2825 C.2        1 <1>        0.000
      6 H           0.4187    1.7039   -1.5415 H.spc      1 <1>        0.000
      7 H           1.1777   -1.0222    1.3815 H.spc      1 <1>        0.000
      8 H           2.2416   -0.0302   -1.3203 H.spc      1 <1>        0.000
      9 H           3.2177   -0.4264    0.2464 H.spc      1 <1>        0.000
@<TRIPOS>BOND
     1    1    2 1  
     2    1    3 1  
     3    2    4 2  
     4    3    5 2  
     5    2    6 1  
     6    3    7 1  
     7    5    8 1  
     8    5    9 1  
# Name:          frag3-251-4/96164 -- energy: -0.413184
# Creation time: Sat Jun  5 12:53:17 2010


@<TRIPOS>MOLECULE
frag3-251-4/96164 -- energy: -0.413184
    9     8     1     1     1
SMALL
USER_CHARGES


@<TRIPOS>ATOM
      1 S1         -0.3703   -0.7727   -0.5242 S.3        1 <1>        0.000
      2 S2         -1.2736    0.7310   -1.3986 S.o        1 <1>        0.000
      3 C1          1.0649   -0.0124    0.0879 C.2        1 <1>        0.000
      4 O1         -1.1090    1.9537   -0.6091 O.2        1 <1>        0.000
      5 C3          2.2806   -0.5473    0.0265 C.2        1 <1>        0.000
      6 H          -2.5703    0.4551   -1.5052 H.spc      1 <1>        0.000
      7 H           0.9629    0.9680    0.5532 H.spc      1 <1>        0.000
      8 H           2.4228   -1.5262   -0.4314 H.spc      1 <1>        0.000
      9 H           3.1350   -0.0069    0.4341 H.spc      1 <1>        0.000
@<TRIPOS>BOND
     1    1    2 1  
     2    1    3 1  
     3    2    4 2  
     4    3    5 2  
     5    2    6 1  
     6    3    7 1  
     7    5    8 1  
     8    5    9 1  
# Name:          frag3-251-4/96164 -- energy: -0.352671
# Creation time: Sat Jun  5 12:53:17 2010


@<TRIPOS>MOLECULE
frag3-251-4/96164 -- energy: -0.352671
    9     8     1     1     1
SMALL
USER_CHARGES


@<TRIPOS>ATOM
      1 S1         -0.2215   -0.3691   -0.3724 S.3        1 <1>        0.000
      2 S2         -0.7963    1.4446   -0.8449 S.o        1 <1>        0.000
      3 C1          1.4713   -0.1276   -0.1442 C.2        1 <1>        0.000
      4 O1         -2.1938    1.4973   -1.2111 O.2        1 <1>        0.000
      5 C3          2.3329   -1.0929    0.1551 C.2        1 <1>        0.000
      6 H          -0.0794    1.8463   -1.8907 H.spc      1 <1>        0.000
      7 H           1.8597    0.8850   -0.2529 H.spc      1 <1>        0.000
      8 H           1.9831   -2.1186    0.2722 H.spc      1 <1>        0.000
      9 H           3.3898   -0.8595    0.2837 H.spc      1 <1>        0.000
@<TRIPOS>BOND
     1    1    2 1  
     2    1    3 1  
     3    2    4 2  
     4    3    5 2  
     5    2    6 1  
     6    3    7 1  
     7    5    8 1  
     8    5    9 1  
# Name:          frag3-251-4/96164 -- energy: -0.349478
# Creation time: Sat Jun  5 12:53:17 2010


@<TRIPOS>MOLECULE
frag3-251-4/96164 -- energy: -0.349478
    9     8     1     1     1
SMALL
USER_CHARGES


@<TRIPOS>ATOM
      1 S1         -0.4014   -0.5606   -0.2112 S.3        1 <1>        0.000
      2 S2         -1.0219    0.8908   -1.3853 S.o        1 <1>        0.000
      3 C1          1.2978   -0.6410   -0.5464 C.2        1 <1>        0.000
      4 O1         -1.5269    2.0203   -0.6221 O.2        1 <1>        0.000
      5 C3          2.2452   -0.3573    0.3475 C.2        1 <1>        0.000
      6 H          -2.0086    0.4231   -2.1446 H.spc      1 <1>        0.000
      7 H           1.6097   -0.9411   -1.5468 H.spc      1 <1>        0.000
      8 H           1.9685   -0.0539    1.3572 H.spc      1 <1>        0.000
      9 H           3.2965   -0.4287    0.0687 H.spc      1 <1>        0.000
@<TRIPOS>BOND
     1    1    2 1  
     2    1    3 1  
     3    2    4 2  
     4    3    5 2  
     5    2    6 1  
     6    3    7 1  
     7    5    8 1  
     8    5    9 1  
# Name:          frag3-251-4/96164 -- energy: -0.494397
# Creation time: Sat Jun  5 12:53:17 2010


@<TRIPOS>MOLECULE
frag3-251-4/96164 -- energy: -0.494397
    9     8     1     1     1
SMALL
USER_CHARGES


@<TRIPOS>ATOM
      1 S1         -0.4036   -0.9834   -0.7651 S.3        1 <1>        0.000
      2 S2         -1.4069    0.7026   -0.8743 S.o        1 <1>        0.000
      3 C1          1.1990   -0.3401   -0.6298 C.2        1 <1>        0.000
      4 O1         -0.5093    1.8503   -0.6644 O.2        1 <1>        0.000
      5 C3          1.7134    0.1230    0.5162 C.2        1 <1>        0.000
      6 H          -2.3451    0.7093    0.0683 H.spc      1 <1>        0.000
      7 H           1.8211   -0.3108   -1.5244 H.spc      1 <1>        0.000
      8 H           1.1158    0.1070    1.4276 H.spc      1 <1>        0.000
      9 H           2.7298    0.5161    0.5378 H.spc      1 <1>        0.000
@<TRIPOS>BOND
     1    1    2 1  
     2    1    3 1  
     3    2    4 2  
     4    3    5 2  
     5    2    6 1  
     6    3    7 1  
     7    5    8 1  
     8    5    9 1  
# Name:          frag3-251-4/96164 -- energy: -0.464280
# Creation time: Sat Jun  5 12:53:17 2010


@<TRIPOS>MOLECULE
frag3-251-4/96164 -- energy: -0.464280
    9     8     1     1     1
SMALL
USER_CHARGES


@<TRIPOS>ATOM
      1 S1         -0.4430   -0.9940   -0.6707 S.3        1 <1>        0.000
      2 S2         -1.2848    0.7071   -1.1748 S.o        1 <1>        0.000
      3 C1          0.8289   -0.3562    0.3120 C.2        1 <1>        0.000
      4 O1         -0.4753    1.8442   -0.7028 O.2        1 <1>        0.000
      5 C3          1.9668    0.1512   -0.1810 C.2        1 <1>        0.000
      6 H          -2.4903    0.7743   -0.6170 H.spc      1 <1>        0.000
      7 H           0.6975   -0.3676    1.3940 H.spc      1 <1>        0.000
      8 H           2.1300    0.1776   -1.2584 H.spc      1 <1>        0.000
      9 H           2.7293    0.5376    0.4953 H.spc      1 <1>        0.000
@<TRIPOS>BOND
     1    1    2 1  
     2    1    3 1  
     3    2    4 2  
     4    3    5 2  
     5    2    6 1  
     6    3    7 1  
     7    5    8 1  
     8    5    9 1  
# Name:          frag3-251-4/96164 -- energy: -0.537142
# Creation time: Sat Jun  5 12:53:17 2010


@<TRIPOS>MOLECULE
frag3-251-4/96164 -- energy: -0.537142
    9     8     1     1     1
SMALL
USER_CHARGES


@<TRIPOS>ATOM
      1 S1         -0.4164   -0.6167   -0.4291 S.3        1 <1>        0.000
      2 S2         -0.5597    1.3312   -0.7213 S.o        1 <1>        0.000
      3 C1          1.1277   -0.6927    0.3437 C.2        1 <1>        0.000
      4 O1         -1.8257    1.6930   -1.3282 O.2        1 <1>        0.000
      5 C3          2.2668   -0.3625   -0.2825 C.2        1 <1>        0.000
      6 H           0.4187    1.7039   -1.5415 H.spc      1 <1>        0.000
      7 H           1.1777   -1.0222    1.3815 H.spc      1 <1>        0.000
      8 H           2.2416   -0.0302   -1.3203 H.spc      1 <1>        0.000
      9 H           3.2177   -0.4264    0.2464 H.spc      1 <1>        0.000
@<TRIPOS>BOND
     1    1    2 1  
     2    1    3 1  
     3    2    4 2  
     4    3    5 2  
     5    2    6 1  
     6    3    7 1  
     7    5    8 1  
     8    5    9 1  
