#      Rotatable Fragment
#      Build by yxyuan
#
# Name:          frag2-046-125/319335
# Creation time: Sat Jun  5 12:53:37 2010


@<TRIPOS>MOLECULE
frag2-046-125/319335
   16    17     1     1     1
SMALL
USER_CHARGES


@<TRIPOS>ATOM
      1 C1          1.8659    1.0476    0.1332 C.ar       1 <1>        0.000
      2 C2          0.5337    0.5973    0.0706 C.ar       1 <1>        0.000
      3 N2          2.8735    0.1264    0.0416 N.ar       1 <1>        0.000
      4 C3          0.2911   -0.7450   -0.0799 C.ar       1 <1>        0.000
      5 C4         -0.5390    1.5125    0.1618 C.ar       1 <1>        0.000
      6 N3          2.6489   -1.1157   -0.0980 N.ar       1 <1>        0.000
      7 C7          1.3821   -1.6306   -0.1657 C.ar       1 <1>        0.000
      8 C8         -1.0336   -1.2302   -0.1470 C.ar       1 <1>        0.000
      9 C9         -1.8501    1.0338    0.0970 C.ar       1 <1>        0.000
     10 C12        -2.0953   -0.3264   -0.0565 C.ar       1 <1>        0.000
     11 H           2.0901    2.1076    0.2521 H.spc      1 <1>        0.000
     12 H          -0.3461    2.5786    0.2812 H.spc      1 <1>        0.000
     13 H           1.2218   -2.7023   -0.2834 H.spc      1 <1>        0.000
     14 H          -1.2253   -2.2964   -0.2679 H.spc      1 <1>        0.000
     15 H          -2.6854    1.7305    0.1672 H.spc      1 <1>        0.000
     16 H          -3.1218   -0.6896   -0.1065 H.spc      1 <1>        0.000
@<TRIPOS>BOND
     1    8   10 ar 
     2    9   10 ar 
     3    1    2 ar 
     4    2    4 ar 
     5    1    3 ar 
     6    2    5 ar 
     7    3    6 ar 
     8    4    7 ar 
     9    4    8 ar 
    10    5    9 ar 
    11    6    7 ar 
    12    1   11 1  
    13    5   12 1  
    14    7   13 1  
    15    8   14 1  
    16    9   15 1  
    17   10   16 1  
# Name:          frag2-046-125/319335 -- energy: -0.038708
# Creation time: Sat Jun  5 12:53:37 2010


@<TRIPOS>MOLECULE
frag2-046-125/319335 -- energy: -0.038708
   16    17     1     1     1
SMALL
USER_CHARGES


@<TRIPOS>ATOM
      1 C1          1.8659    1.0476    0.1332 C.ar       1 <1>        0.000
      2 C2          0.5337    0.5973    0.0706 C.ar       1 <1>        0.000
      3 N2          2.8735    0.1264    0.0416 N.ar       1 <1>        0.000
      4 C3          0.2911   -0.7450   -0.0799 C.ar       1 <1>        0.000
      5 C4         -0.5390    1.5125    0.1618 C.ar       1 <1>        0.000
      6 N3          2.6489   -1.1157   -0.0980 N.ar       1 <1>        0.000
      7 C7          1.3821   -1.6306   -0.1657 C.ar       1 <1>        0.000
      8 C8         -1.0336   -1.2302   -0.1470 C.ar       1 <1>        0.000
      9 C9         -1.8501    1.0338    0.0970 C.ar       1 <1>        0.000
     10 C12        -2.0953   -0.3264   -0.0565 C.ar       1 <1>        0.000
     11 H           2.0901    2.1076    0.2521 H.spc      1 <1>        0.000
     12 H          -0.3461    2.5786    0.2812 H.spc      1 <1>        0.000
     13 H           1.2218   -2.7023   -0.2834 H.spc      1 <1>        0.000
     14 H          -1.2253   -2.2964   -0.2679 H.spc      1 <1>        0.000
     15 H          -2.6854    1.7305    0.1672 H.spc      1 <1>        0.000
     16 H          -3.1218   -0.6896   -0.1065 H.spc      1 <1>        0.000
@<TRIPOS>BOND
     1    8   10 ar 
     2    9   10 ar 
     3    1    2 ar 
     4    2    4 ar 
     5    1    3 ar 
     6    2    5 ar 
     7    3    6 ar 
     8    4    7 ar 
     9    4    8 ar 
    10    5    9 ar 
    11    6    7 ar 
    12    1   11 1  
    13    5   12 1  
    14    7   13 1  
    15    8   14 1  
    16    9   15 1  
    17   10   16 1  
