#      Rotatable Fragment
#      Build by yxyuan
#
# Name:          frag5-582-129/138278
# Creation time: Sat Jun  5 12:53:45 2010


@<TRIPOS>MOLECULE
frag5-582-129/138278
   23    24     1     1     1
SMALL
USER_CHARGES


@<TRIPOS>ATOM
      1 N1         -0.3930   -1.0077   -0.2440 N.am       1 <1>        0.000
      2 C1          0.8234   -1.6246   -0.7739 C.3        1 <1>        0.000
      3 C2         -0.4850    0.4451   -0.1812 C.3        1 <1>        0.000
      4 C3         -1.4159   -1.7777    0.1729 C.2        1 <1>        0.000
      5 C4          2.0131   -1.1071    0.0360 C.3        1 <1>        0.000
      6 C6          0.8546    1.1492   -0.1428 C.ar       1 <1>        0.000
      7 O1         -1.3352   -2.9615    0.4605 O.2        1 <1>        0.000
      8 C8          2.0549    0.4091    0.0072 C.ar       1 <1>        0.000
      9 C9          0.9306    2.5410   -0.2590 C.ar       1 <1>        0.000
     10 C11         3.2686    1.0947    0.1269 C.ar       1 <1>        0.000
     11 C13         2.1512    3.2062   -0.1945 C.ar       1 <1>        0.000
     12 C16         3.3249    2.4796    0.0131 C.ar       1 <1>        0.000
     13 H           0.7589   -2.7097   -0.6937 H.spc      1 <1>        0.000
     14 H           0.9461   -1.3678   -1.8261 H.spc      1 <1>        0.000
     15 H          -0.9964    0.7749   -1.0855 H.spc      1 <1>        0.000
     16 H          -1.0069    0.6952    0.7425 H.spc      1 <1>        0.000
     17 H          -2.3947   -1.3062    0.2607 H.spc      1 <1>        0.000
     18 H           1.9101   -1.4393    1.0690 H.spc      1 <1>        0.000
     19 H           2.9340   -1.4954   -0.3991 H.spc      1 <1>        0.000
     20 H           0.0158    3.1159   -0.4029 H.spc      1 <1>        0.000
     21 H           4.1849    0.5343    0.3124 H.spc      1 <1>        0.000
     22 H           2.1906    4.2898   -0.3056 H.spc      1 <1>        0.000
     23 H           4.2821    2.9959    0.0858 H.spc      1 <1>        0.000
@<TRIPOS>BOND
     1    6    8 ar 
     2    3    6 1  
     3    5    8 1  
     4    8   10 ar 
     5    4    7 2  
     6    2    5 1  
     7   10   12 ar 
     8   11   12 ar 
     9    6    9 ar 
    10    9   11 ar 
    11    1    2 1  
    12    1    3 1  
    13    1    4 am 
    14    2   13 1  
    15    2   14 1  
    16    3   15 1  
    17    3   16 1  
    18    4   17 1  
    19    5   18 1  
    20    5   19 1  
    21    9   20 1  
    22   10   21 1  
    23   11   22 1  
    24   12   23 1  
# Name:          frag5-582-129/138278
# Creation time: Sat Jun  5 12:53:45 2010


@<TRIPOS>MOLECULE
frag5-582-129/138278
   23    24     1     1     1
SMALL
USER_CHARGES


@<TRIPOS>ATOM
      1 N1         -0.1067   -1.2943    0.1975 N.am       1 <1>        0.000
      2 C1          1.1826   -1.8234    0.6184 C.3        1 <1>        0.000
      3 C2         -0.3423    0.1375    0.3696 C.3        1 <1>        0.000
      4 C3         -1.0517   -2.0549   -0.4001 C.2        1 <1>        0.000
      5 C4          2.2697   -1.1217   -0.2064 C.3        1 <1>        0.000
      6 C6          0.8799    0.9907    0.0663 C.ar       1 <1>        0.000
      7 O1         -2.2315   -1.7535   -0.4943 O.2        1 <1>        0.000
      8 C8          2.1388    0.3932   -0.1664 C.ar       1 <1>        0.000
      9 C9          0.7702    2.3847    0.0154 C.ar       1 <1>        0.000
     10 C11         3.2611    1.2083   -0.3539 C.ar       1 <1>        0.000
     11 C13         1.8844    3.1853   -0.2266 C.ar       1 <1>        0.000
     12 C16         3.1378    2.5944   -0.3982 C.ar       1 <1>        0.000
     13 H           1.3376   -1.6408    1.6818 H.spc      1 <1>        0.000
     14 H           1.2207   -2.9006    0.4561 H.spc      1 <1>        0.000
     15 H          -1.1275    0.4278   -0.3285 H.spc      1 <1>        0.000
     16 H          -0.6087    0.3038    1.4134 H.spc      1 <1>        0.000
     17 H          -0.7375   -3.0064   -0.8290 H.spc      1 <1>        0.000
     18 H           3.2387   -1.3882    0.2157 H.spc      1 <1>        0.000
     19 H           2.1668   -1.4423   -1.2431 H.spc      1 <1>        0.000
     20 H          -0.2028    2.8518    0.1676 H.spc      1 <1>        0.000
     21 H           4.2445    0.7519   -0.4667 H.spc      1 <1>        0.000
     22 H           1.7781    4.2687   -0.2818 H.spc      1 <1>        0.000
     23 H           4.0170    3.2164   -0.5663 H.spc      1 <1>        0.000
@<TRIPOS>BOND
     1    6    8 ar 
     2    3    6 1  
     3    5    8 1  
     4    8   10 ar 
     5    4    7 2  
     6    2    5 1  
     7   10   12 ar 
     8   11   12 ar 
     9    6    9 ar 
    10    9   11 ar 
    11    1    2 1  
    12    1    3 1  
    13    1    4 am 
    14    2   13 1  
    15    2   14 1  
    16    3   15 1  
    17    3   16 1  
    18    4   17 1  
    19    5   18 1  
    20    5   19 1  
    21    9   20 1  
    22   10   21 1  
    23   11   22 1  
    24   12   23 1  
# Name:          frag5-582-129/138278 -- energy: -1.801262
# Creation time: Sat Jun  5 12:53:45 2010


@<TRIPOS>MOLECULE
frag5-582-129/138278 -- energy: -1.801262
   23    24     1     1     1
SMALL
USER_CHARGES


@<TRIPOS>ATOM
      1 N1         -0.3930   -1.0077   -0.2440 N.am       1 <1>        0.000
      2 C1          0.8234   -1.6246   -0.7739 C.3        1 <1>        0.000
      3 C2         -0.4850    0.4451   -0.1812 C.3        1 <1>        0.000
      4 C3         -1.4159   -1.7777    0.1729 C.2        1 <1>        0.000
      5 C4          2.0131   -1.1071    0.0360 C.3        1 <1>        0.000
      6 C6          0.8546    1.1492   -0.1428 C.ar       1 <1>        0.000
      7 O1         -1.3352   -2.9615    0.4605 O.2        1 <1>        0.000
      8 C8          2.0549    0.4091    0.0072 C.ar       1 <1>        0.000
      9 C9          0.9306    2.5410   -0.2590 C.ar       1 <1>        0.000
     10 C11         3.2686    1.0947    0.1269 C.ar       1 <1>        0.000
     11 C13         2.1512    3.2062   -0.1945 C.ar       1 <1>        0.000
     12 C16         3.3249    2.4796    0.0131 C.ar       1 <1>        0.000
     13 H           0.7589   -2.7097   -0.6937 H.spc      1 <1>        0.000
     14 H           0.9461   -1.3678   -1.8261 H.spc      1 <1>        0.000
     15 H          -0.9964    0.7749   -1.0855 H.spc      1 <1>        0.000
     16 H          -1.0069    0.6952    0.7425 H.spc      1 <1>        0.000
     17 H          -2.3947   -1.3062    0.2607 H.spc      1 <1>        0.000
     18 H           1.9101   -1.4393    1.0690 H.spc      1 <1>        0.000
     19 H           2.9340   -1.4954   -0.3991 H.spc      1 <1>        0.000
     20 H           0.0158    3.1159   -0.4029 H.spc      1 <1>        0.000
     21 H           4.1849    0.5343    0.3124 H.spc      1 <1>        0.000
     22 H           2.1906    4.2898   -0.3056 H.spc      1 <1>        0.000
     23 H           4.2821    2.9959    0.0858 H.spc      1 <1>        0.000
@<TRIPOS>BOND
     1    6    8 ar 
     2    3    6 1  
     3    5    8 1  
     4    8   10 ar 
     5    4    7 2  
     6    2    5 1  
     7   10   12 ar 
     8   11   12 ar 
     9    6    9 ar 
    10    9   11 ar 
    11    1    2 1  
    12    1    3 1  
    13    1    4 am 
    14    2   13 1  
    15    2   14 1  
    16    3   15 1  
    17    3   16 1  
    18    4   17 1  
    19    5   18 1  
    20    5   19 1  
    21    9   20 1  
    22   10   21 1  
    23   11   22 1  
    24   12   23 1  
# Name:          frag5-582-129/138278 -- energy: -1.850986
# Creation time: Sat Jun  5 12:53:45 2010


@<TRIPOS>MOLECULE
frag5-582-129/138278 -- energy: -1.850986
   23    24     1     1     1
SMALL
USER_CHARGES


@<TRIPOS>ATOM
      1 N1         -0.1067   -1.2943    0.1975 N.am       1 <1>        0.000
      2 C1          1.1826   -1.8234    0.6184 C.3        1 <1>        0.000
      3 C2         -0.3423    0.1375    0.3696 C.3        1 <1>        0.000
      4 C3         -1.0517   -2.0549   -0.4001 C.2        1 <1>        0.000
      5 C4          2.2697   -1.1217   -0.2064 C.3        1 <1>        0.000
      6 C6          0.8799    0.9907    0.0663 C.ar       1 <1>        0.000
      7 O1         -2.2315   -1.7535   -0.4943 O.2        1 <1>        0.000
      8 C8          2.1388    0.3932   -0.1664 C.ar       1 <1>        0.000
      9 C9          0.7702    2.3847    0.0154 C.ar       1 <1>        0.000
     10 C11         3.2611    1.2083   -0.3539 C.ar       1 <1>        0.000
     11 C13         1.8844    3.1853   -0.2266 C.ar       1 <1>        0.000
     12 C16         3.1378    2.5944   -0.3982 C.ar       1 <1>        0.000
     13 H           1.3376   -1.6408    1.6818 H.spc      1 <1>        0.000
     14 H           1.2207   -2.9006    0.4561 H.spc      1 <1>        0.000
     15 H          -1.1275    0.4278   -0.3285 H.spc      1 <1>        0.000
     16 H          -0.6087    0.3038    1.4134 H.spc      1 <1>        0.000
     17 H          -0.7375   -3.0064   -0.8290 H.spc      1 <1>        0.000
     18 H           3.2387   -1.3882    0.2157 H.spc      1 <1>        0.000
     19 H           2.1668   -1.4423   -1.2431 H.spc      1 <1>        0.000
     20 H          -0.2028    2.8518    0.1676 H.spc      1 <1>        0.000
     21 H           4.2445    0.7519   -0.4667 H.spc      1 <1>        0.000
     22 H           1.7781    4.2687   -0.2818 H.spc      1 <1>        0.000
     23 H           4.0170    3.2164   -0.5663 H.spc      1 <1>        0.000
@<TRIPOS>BOND
     1    6    8 ar 
     2    3    6 1  
     3    5    8 1  
     4    8   10 ar 
     5    4    7 2  
     6    2    5 1  
     7   10   12 ar 
     8   11   12 ar 
     9    6    9 ar 
    10    9   11 ar 
    11    1    2 1  
    12    1    3 1  
    13    1    4 am 
    14    2   13 1  
    15    2   14 1  
    16    3   15 1  
    17    3   16 1  
    18    4   17 1  
    19    5   18 1  
    20    5   19 1  
    21    9   20 1  
    22   10   21 1  
    23   11   22 1  
    24   12   23 1  
