#      Rotatable Fragment
#      Build by yxyuan
#
# Name:          frag5-654-73/138278
# Creation time: Sat Jun  5 12:53:51 2010


@<TRIPOS>MOLECULE
frag5-654-73/138278
   41    41     1     1     1
SMALL
USER_CHARGES


@<TRIPOS>ATOM
      1 C28         1.1581   -0.9113   -0.4668 C.3        1 <1>        0.000
      2 C32         0.5493   -2.2978   -0.3938 C.3        1 <1>        0.000
      3 C33         0.3776    0.2658   -1.0218 C.3        1 <1>        0.000
      4 C36         0.0801   -2.9882   -1.6598 C.3        1 <1>        0.000
      5 C37        -0.7092    0.7985   -0.1239 C.3        1 <1>        0.000
      6 C54        -1.5899    0.5949    2.9354 C.2        1 <1>        0.000
      7 C40        -1.2351   -2.6391   -2.3158 C.3        1 <1>        0.000
      8 C42        -0.2379    1.6498    1.0556 C.3        1 <1>        0.000
      9 C46        -2.4909   -2.8580   -1.5188 C.2        1 <1>        0.000
     10 C48        -1.2097    1.8726    2.2251 C.3        1 <1>        0.000
     11 O11        -3.5901   -2.1645   -1.8798 O.3        1 <1>        0.000
     12 O12        -2.4858   -3.6783   -0.5987 O.2        1 <1>        0.000
     13 C55        -4.7834   -2.3975   -1.1639 C.3        1 <1>        0.000
     14 C56        -2.5264   -0.3089    2.6355 C.2        1 <1>        0.000
     15 C58        -5.1577   -1.4447   -0.0344 C.3        1 <1>        0.000
     16 C60        -3.4736   -0.3788    1.5709 C.2        1 <1>        0.000
     17 C62        -4.1860   -1.4072    1.0953 C.2        1 <1>        0.000
     18 H           1.9880   -1.0267   -1.1640 H.spc      1 <1>        0.000
     19 H           1.3265   -0.6446    0.5766 H.spc      1 <1>        0.000
     20 H          -0.3574   -2.1663    0.1966 H.spc      1 <1>        0.000
     21 H           1.3556   -2.9299   -0.0218 H.spc      1 <1>        0.000
     22 H           1.0926    1.0766   -1.1613 H.spc      1 <1>        0.000
     23 H          -0.1120   -0.0848   -1.9304 H.spc      1 <1>        0.000
     24 H          -0.0517   -4.0261   -1.3539 H.spc      1 <1>        0.000
     25 H           0.8236   -2.6985   -2.4023 H.spc      1 <1>        0.000
     26 H          -1.3307    1.4458   -0.7426 H.spc      1 <1>        0.000
     27 H          -1.2097   -0.0704    0.3034 H.spc      1 <1>        0.000
     28 H          -1.0098    0.3766    3.8320 H.spc      1 <1>        0.000
     29 H          -1.1920   -1.5665   -2.5049 H.spc      1 <1>        0.000
     30 H          -1.3167   -3.3011   -3.1779 H.spc      1 <1>        0.000
     31 H          -0.0563    2.6410    0.6401 H.spc      1 <1>        0.000
     32 H           0.6058    1.1074    1.4824 H.spc      1 <1>        0.000
     33 H          -0.7121    2.5174    2.9495 H.spc      1 <1>        0.000
     34 H          -2.1222    2.3078    1.8177 H.spc      1 <1>        0.000
     35 H          -5.5804   -2.2913   -1.8998 H.spc      1 <1>        0.000
     36 H          -4.6406   -3.3650   -0.6826 H.spc      1 <1>        0.000
     37 H          -2.5761   -1.1463    3.3314 H.spc      1 <1>        0.000
     38 H          -5.1873   -0.4422   -0.4613 H.spc      1 <1>        0.000
     39 H          -6.1063   -1.7933    0.3740 H.spc      1 <1>        0.000
     40 H          -3.6466    0.5668    1.0571 H.spc      1 <1>        0.000
     41 H          -4.0333   -2.3562    1.6093 H.spc      1 <1>        0.000
@<TRIPOS>BOND
     1    5    8 1  
     2    1    2 1  
     3    7    9 1  
     4    3    5 1  
     5    2    4 1  
     6    4    7 1  
     7    1    3 1  
     8   16   17 2  
     9   15   17 1  
    10   14   16 1  
    11   13   15 1  
    12    6   14 2  
    13   11   13 1  
    14   10    6 1  
    15    9   12 2  
    16    9   11 1  
    17    8   10 1  
    18    1   18 1  
    19    1   19 1  
    20    2   20 1  
    21    2   21 1  
    22    3   22 1  
    23    3   23 1  
    24    4   24 1  
    25    4   25 1  
    26    5   26 1  
    27    5   27 1  
    28    6   28 1  
    29    7   29 1  
    30    7   30 1  
    31    8   31 1  
    32    8   32 1  
    33   10   33 1  
    34   10   34 1  
    35   13   35 1  
    36   13   36 1  
    37   14   37 1  
    38   15   38 1  
    39   15   39 1  
    40   16   40 1  
    41   17   41 1  
# Name:          frag5-654-73/138278
# Creation time: Sat Jun  5 12:53:51 2010


@<TRIPOS>MOLECULE
frag5-654-73/138278
   41    41     1     1     1
SMALL
USER_CHARGES


@<TRIPOS>ATOM
      1 C28         0.9855   -0.5882   -1.2081 C.3        1 <1>        0.000
      2 C32         0.0036   -1.3035   -2.1033 C.3        1 <1>        0.000
      3 C33         0.7588   -0.6196    0.2802 C.3        1 <1>        0.000
      4 C36        -0.0126   -2.8295   -2.0703 C.3        1 <1>        0.000
      5 C37        -0.4191    0.1321    0.8419 C.3        1 <1>        0.000
      6 C54        -2.1020    1.4998    3.2098 C.2        1 <1>        0.000
      7 C40        -1.1645   -3.5143   -2.7478 C.3        1 <1>        0.000
      8 C42        -0.1495    1.4227    1.5728 C.3        1 <1>        0.000
      9 C46        -2.4401   -3.5875   -1.9648 C.2        1 <1>        0.000
     10 C48        -1.2657    2.2193    2.2129 C.3        1 <1>        0.000
     11 O11        -2.8560   -2.5123   -1.2690 O.3        1 <1>        0.000
     12 O12        -3.0825   -4.6398   -2.0133 O.2        1 <1>        0.000
     13 C55        -4.0975   -2.6154   -0.6082 C.3        1 <1>        0.000
     14 C56        -3.1487    0.6981    2.9941 C.2        1 <1>        0.000
     15 C58        -4.6983   -1.3976    0.0854 C.3        1 <1>        0.000
     16 C60        -3.7973    0.2924    1.7896 C.2        1 <1>        0.000
     17 C62        -4.0246   -0.9493    1.3387 C.2        1 <1>        0.000
     18 H           0.9089    0.4632   -1.4851 H.spc      1 <1>        0.000
     19 H           1.9354   -1.1002   -1.3618 H.spc      1 <1>        0.000
     20 H           0.2923   -1.0385   -3.1204 H.spc      1 <1>        0.000
     21 H          -0.9827   -0.9955   -1.7564 H.spc      1 <1>        0.000
     22 H           0.5695   -1.6663    0.5182 H.spc      1 <1>        0.000
     23 H           1.6366   -0.1397    0.7130 H.spc      1 <1>        0.000
     24 H          -0.0812   -3.1035   -1.0175 H.spc      1 <1>        0.000
     25 H           0.8806   -3.1481   -2.6077 H.spc      1 <1>        0.000
     26 H          -1.0246    0.4089   -0.0212 H.spc      1 <1>        0.000
     27 H          -0.8611   -0.5338    1.5831 H.spc      1 <1>        0.000
     28 H          -1.8246    1.6456    4.2538 H.spc      1 <1>        0.000
     29 H          -1.3867   -2.9282   -3.6395 H.spc      1 <1>        0.000
     30 H          -0.8506   -4.5443   -2.9174 H.spc      1 <1>        0.000
     31 H           0.2305    2.0863    0.7961 H.spc      1 <1>        0.000
     32 H           0.4693    1.1185    2.4170 H.spc      1 <1>        0.000
     33 H          -0.7849    3.0351    2.7528 H.spc      1 <1>        0.000
     34 H          -1.9373    2.5047    1.4033 H.spc      1 <1>        0.000
     35 H          -4.8075   -2.8549   -1.3998 H.spc      1 <1>        0.000
     36 H          -3.9177   -3.3262    0.1984 H.spc      1 <1>        0.000
     37 H          -3.5854    0.2788    3.9005 H.spc      1 <1>        0.000
     38 H          -4.6068   -0.5715   -0.6198 H.spc      1 <1>        0.000
     39 H          -5.7115   -1.6807    0.3707 H.spc      1 <1>        0.000
     40 H          -4.1557    1.0998    1.1510 H.spc      1 <1>        0.000
     41 H          -3.6636   -1.7505    1.9836 H.spc      1 <1>        0.000
@<TRIPOS>BOND
     1    5    8 1  
     2    1    2 1  
     3    7    9 1  
     4    3    5 1  
     5    2    4 1  
     6    4    7 1  
     7    1    3 1  
     8   16   17 2  
     9   15   17 1  
    10   14   16 1  
    11   13   15 1  
    12    6   14 2  
    13   11   13 1  
    14   10    6 1  
    15    9   12 2  
    16    9   11 1  
    17    8   10 1  
    18    1   18 1  
    19    1   19 1  
    20    2   20 1  
    21    2   21 1  
    22    3   22 1  
    23    3   23 1  
    24    4   24 1  
    25    4   25 1  
    26    5   26 1  
    27    5   27 1  
    28    6   28 1  
    29    7   29 1  
    30    7   30 1  
    31    8   31 1  
    32    8   32 1  
    33   10   33 1  
    34   10   34 1  
    35   13   35 1  
    36   13   36 1  
    37   14   37 1  
    38   15   38 1  
    39   15   39 1  
    40   16   40 1  
    41   17   41 1  
# Name:          frag5-654-73/138278
# Creation time: Sat Jun  5 12:53:51 2010


@<TRIPOS>MOLECULE
frag5-654-73/138278
   41    41     1     1     1
SMALL
USER_CHARGES


@<TRIPOS>ATOM
      1 C28        -0.1857   -1.1357   -0.7112 C.3        1 <1>        0.000
      2 C32         0.0861   -2.6126   -0.4743 C.3        1 <1>        0.000
      3 C33         0.1070   -0.1079    0.3715 C.3        1 <1>        0.000
      4 C36        -0.1223   -3.5884   -1.6285 C.3        1 <1>        0.000
      5 C37        -0.4595    1.2858    0.1384 C.3        1 <1>        0.000
      6 C54        -1.5417    1.1421    3.1386 C.2        1 <1>        0.000
      7 C40        -1.1323   -3.2628   -2.7115 C.3        1 <1>        0.000
      8 C42        -0.3472    2.3757    1.1978 C.3        1 <1>        0.000
      9 C46        -2.5689   -3.0656   -2.3070 C.2        1 <1>        0.000
     10 C48        -1.3150    2.4091    2.3806 C.3        1 <1>        0.000
     11 O11        -2.9230   -3.3319   -1.0381 O.3        1 <1>        0.000
     12 O12        -3.3649   -2.6698   -3.1521 O.2        1 <1>        0.000
     13 C55        -4.2143   -2.9529   -0.6131 C.3        1 <1>        0.000
     14 C56        -2.3708    0.1392    2.8677 C.2        1 <1>        0.000
     15 C58        -4.3952   -1.5618   -0.0205 C.3        1 <1>        0.000
     16 C60        -3.2873   -0.1101    1.7953 C.2        1 <1>        0.000
     17 C62        -3.4756   -1.2450    1.1066 C.2        1 <1>        0.000
     18 H          -1.2661   -1.0817   -0.8448 H.spc      1 <1>        0.000
     19 H           0.4901   -0.8673   -1.5232 H.spc      1 <1>        0.000
     20 H          -0.6332   -2.9152    0.2867 H.spc      1 <1>        0.000
     21 H           1.1492   -2.6718   -0.2409 H.spc      1 <1>        0.000
     22 H          -0.3615   -0.4806    1.2824 H.spc      1 <1>        0.000
     23 H           1.1908    0.0034    0.4033 H.spc      1 <1>        0.000
     24 H          -0.5047   -4.4943   -1.1581 H.spc      1 <1>        0.000
     25 H           0.8373   -3.6137   -2.1449 H.spc      1 <1>        0.000
     26 H           0.1280    1.6704   -0.6953 H.spc      1 <1>        0.000
     27 H          -1.5329    1.1196    0.0475 H.spc      1 <1>        0.000
     28 H          -0.9426    1.0232    4.0414 H.spc      1 <1>        0.000
     29 H          -0.8148   -2.3044   -3.1224 H.spc      1 <1>        0.000
     30 H          -1.1357   -4.1299   -3.3720 H.spc      1 <1>        0.000
     31 H          -0.5526    3.2991    0.6563 H.spc      1 <1>        0.000
     32 H           0.6286    2.2080    1.6536 H.spc      1 <1>        0.000
     33 H          -0.8706    3.0991    3.0979 H.spc      1 <1>        0.000
     34 H          -2.2840    2.6674    1.9536 H.spc      1 <1>        0.000
     35 H          -4.8290   -2.9649   -1.5131 H.spc      1 <1>        0.000
     36 H          -4.4674   -3.6439    0.1910 H.spc      1 <1>        0.000
     37 H          -2.3489   -0.6555    3.6134 H.spc      1 <1>        0.000
     38 H          -4.1828   -0.8469   -0.8154 H.spc      1 <1>        0.000
     39 H          -5.4104   -1.5129    0.3734 H.spc      1 <1>        0.000
     40 H          -3.9130    0.7325    1.5009 H.spc      1 <1>        0.000
     41 H          -2.8487   -2.0773    1.4264 H.spc      1 <1>        0.000
@<TRIPOS>BOND
     1    5    8 1  
     2    1    2 1  
     3    7    9 1  
     4    3    5 1  
     5    2    4 1  
     6    4    7 1  
     7    1    3 1  
     8   16   17 2  
     9   15   17 1  
    10   14   16 1  
    11   13   15 1  
    12    6   14 2  
    13   11   13 1  
    14   10    6 1  
    15    9   12 2  
    16    9   11 1  
    17    8   10 1  
    18    1   18 1  
    19    1   19 1  
    20    2   20 1  
    21    2   21 1  
    22    3   22 1  
    23    3   23 1  
    24    4   24 1  
    25    4   25 1  
    26    5   26 1  
    27    5   27 1  
    28    6   28 1  
    29    7   29 1  
    30    7   30 1  
    31    8   31 1  
    32    8   32 1  
    33   10   33 1  
    34   10   34 1  
    35   13   35 1  
    36   13   36 1  
    37   14   37 1  
    38   15   38 1  
    39   15   39 1  
    40   16   40 1  
    41   17   41 1  
# Name:          frag5-654-73/138278
# Creation time: Sat Jun  5 12:53:51 2010


@<TRIPOS>MOLECULE
frag5-654-73/138278
   41    41     1     1     1
SMALL
USER_CHARGES


@<TRIPOS>ATOM
      1 C28         0.9443   -1.5106   -0.1201 C.3        1 <1>        0.000
      2 C32         0.4315   -2.8655   -0.6024 C.3        1 <1>        0.000
      3 C33        -0.1175   -0.5172    0.2065 C.3        1 <1>        0.000
      4 C36         0.0650   -3.0023   -2.0599 C.3        1 <1>        0.000
      5 C37         0.0539    0.9382   -0.0312 C.3        1 <1>        0.000
      6 C54        -1.8952    1.2866    2.8416 C.2        1 <1>        0.000
      7 C40        -1.1799   -2.3560   -2.6131 C.3        1 <1>        0.000
      8 C42        -1.1439    1.7822    0.3801 C.3        1 <1>        0.000
      9 C46        -2.4731   -2.6526   -1.9149 C.2        1 <1>        0.000
     10 C48        -1.2128    2.1689    1.8537 C.3        1 <1>        0.000
     11 O11        -3.2439   -1.6146   -1.5355 O.3        1 <1>        0.000
     12 O12        -2.7885   -3.8260   -1.7229 O.2        1 <1>        0.000
     13 C55        -4.4624   -1.9146   -0.9003 C.3        1 <1>        0.000
     14 C56        -2.7922    0.2937    2.7623 C.2        1 <1>        0.000
     15 C58        -4.4536   -2.4688    0.5185 C.3        1 <1>        0.000
     16 C60        -3.5141   -0.3615    1.7213 C.2        1 <1>        0.000
     17 C62        -3.7282   -1.6725    1.5566 C.2        1 <1>        0.000
     18 H           1.5319   -1.0876   -0.9349 H.spc      1 <1>        0.000
     19 H           1.4993   -1.6929    0.8001 H.spc      1 <1>        0.000
     20 H          -0.4938   -3.0382   -0.0528 H.spc      1 <1>        0.000
     21 H           1.2554   -3.5612   -0.4436 H.spc      1 <1>        0.000
     22 H          -0.9326   -0.7886   -0.4643 H.spc      1 <1>        0.000
     23 H          -0.2048   -0.5877    1.2907 H.spc      1 <1>        0.000
     24 H          -0.1129   -4.0700   -2.1881 H.spc      1 <1>        0.000
     25 H           0.8781   -2.5006   -2.5846 H.spc      1 <1>        0.000
     26 H           0.9005    1.2653    0.5723 H.spc      1 <1>        0.000
     27 H           0.1910    1.0751   -1.1038 H.spc      1 <1>        0.000
     28 H          -1.5950    1.4978    3.8680 H.spc      1 <1>        0.000
     29 H          -1.0270   -1.2818   -2.5096 H.spc      1 <1>        0.000
     30 H          -1.2926   -2.7474   -3.6241 H.spc      1 <1>        0.000
     31 H          -2.0284    1.1774    0.1801 H.spc      1 <1>        0.000
     32 H          -1.0680    2.7151   -0.1785 H.spc      1 <1>        0.000
     33 H          -0.1717    2.1750    2.1765 H.spc      1 <1>        0.000
     34 H          -1.8039    3.0847    1.8614 H.spc      1 <1>        0.000
     35 H          -4.9749   -0.9560   -0.8192 H.spc      1 <1>        0.000
     36 H          -4.9005   -2.7091   -1.5044 H.spc      1 <1>        0.000
     37 H          -3.0306   -0.1177    3.7431 H.spc      1 <1>        0.000
     38 H          -5.4963   -2.4896    0.8354 H.spc      1 <1>        0.000
     39 H          -3.9331   -3.4248    0.4605 H.spc      1 <1>        0.000
     40 H          -3.9474    0.2893    0.9618 H.spc      1 <1>        0.000
     41 H          -3.2825   -2.2858    2.3397 H.spc      1 <1>        0.000
@<TRIPOS>BOND
     1    5    8 1  
     2    1    2 1  
     3    7    9 1  
     4    3    5 1  
     5    2    4 1  
     6    4    7 1  
     7    1    3 1  
     8   16   17 2  
     9   15   17 1  
    10   14   16 1  
    11   13   15 1  
    12    6   14 2  
    13   11   13 1  
    14   10    6 1  
    15    9   12 2  
    16    9   11 1  
    17    8   10 1  
    18    1   18 1  
    19    1   19 1  
    20    2   20 1  
    21    2   21 1  
    22    3   22 1  
    23    3   23 1  
    24    4   24 1  
    25    4   25 1  
    26    5   26 1  
    27    5   27 1  
    28    6   28 1  
    29    7   29 1  
    30    7   30 1  
    31    8   31 1  
    32    8   32 1  
    33   10   33 1  
    34   10   34 1  
    35   13   35 1  
    36   13   36 1  
    37   14   37 1  
    38   15   38 1  
    39   15   39 1  
    40   16   40 1  
    41   17   41 1  
# Name:          frag5-654-73/138278
# Creation time: Sat Jun  5 12:53:51 2010


@<TRIPOS>MOLECULE
frag5-654-73/138278
   41    41     1     1     1
SMALL
USER_CHARGES


@<TRIPOS>ATOM
      1 C28         0.8941   -1.1245   -0.3435 C.3        1 <1>        0.000
      2 C32         0.6988   -1.5468   -1.7840 C.3        1 <1>        0.000
      3 C33        -0.0813   -1.6429    0.6879 C.3        1 <1>        0.000
      4 C36        -0.5966   -1.1658   -2.4747 C.3        1 <1>        0.000
      5 C37        -0.3371   -0.9106    1.9915 C.3        1 <1>        0.000
      6 C54        -2.1153    1.9940    1.6770 C.2        1 <1>        0.000
      7 C40        -1.5644   -2.2388   -2.9040 C.3        1 <1>        0.000
      8 C42        -0.0499    0.5772    2.1335 C.3        1 <1>        0.000
      9 C46        -2.2673   -2.9505   -1.7905 C.2        1 <1>        0.000
     10 C48        -0.7343    1.6205    1.2645 C.3        1 <1>        0.000
     11 O11        -3.3307   -2.3556   -1.2240 O.3        1 <1>        0.000
     12 O12        -1.8246   -4.0364   -1.4127 O.2        1 <1>        0.000
     13 C55        -3.8185   -2.9111   -0.0240 C.3        1 <1>        0.000
     14 C56        -3.2588    1.3102    1.5730 C.2        1 <1>        0.000
     15 C58        -4.9242   -2.1499    0.7008 C.3        1 <1>        0.000
     16 C60        -3.5735    0.0228    1.0433 C.2        1 <1>        0.000
     17 C62        -4.6272   -0.7844    1.2263 C.2        1 <1>        0.000
     18 H           0.7688   -0.0417   -0.3407 H.spc      1 <1>        0.000
     19 H           1.8636   -1.5293   -0.0530 H.spc      1 <1>        0.000
     20 H           0.7051   -2.6366   -1.7669 H.spc      1 <1>        0.000
     21 H           1.4828   -1.0348   -2.3419 H.spc      1 <1>        0.000
     22 H          -1.0428   -1.5989    0.1763 H.spc      1 <1>        0.000
     23 H           0.3605   -2.5870    1.0067 H.spc      1 <1>        0.000
     24 H          -0.2812   -0.6945   -3.4055 H.spc      1 <1>        0.000
     25 H          -1.1432   -0.5874   -1.7298 H.spc      1 <1>        0.000
     26 H          -1.4166   -0.9823    2.1242 H.spc      1 <1>        0.000
     27 H           0.3529   -1.3783    2.6938 H.spc      1 <1>        0.000
     28 H          -2.2081    2.9786    2.1352 H.spc      1 <1>        0.000
     29 H          -2.3361   -1.7445   -3.4942 H.spc      1 <1>        0.000
     30 H          -0.9807   -2.9907   -3.4351 H.spc      1 <1>        0.000
     31 H           1.0002    0.6618    1.8539 H.spc      1 <1>        0.000
     32 H          -0.4037    0.8103    3.1378 H.spc      1 <1>        0.000
     33 H          -0.1333    2.5269    1.3371 H.spc      1 <1>        0.000
     34 H          -0.8149    1.1885    0.2670 H.spc      1 <1>        0.000
     35 H          -4.2533   -3.8720   -0.2991 H.spc      1 <1>        0.000
     36 H          -2.9709   -2.9236    0.6612 H.spc      1 <1>        0.000
     37 H          -4.1230    1.8413    1.9721 H.spc      1 <1>        0.000
     38 H          -5.7042   -2.0030   -0.0463 H.spc      1 <1>        0.000
     39 H          -5.1510   -2.7499    1.5821 H.spc      1 <1>        0.000
     40 H          -2.8187   -0.3768    0.3661 H.spc      1 <1>        0.000
     41 H          -5.4030   -0.3721    1.8715 H.spc      1 <1>        0.000
@<TRIPOS>BOND
     1    5    8 1  
     2    1    2 1  
     3    7    9 1  
     4    3    5 1  
     5    2    4 1  
     6    4    7 1  
     7    1    3 1  
     8   16   17 2  
     9   15   17 1  
    10   14   16 1  
    11   13   15 1  
    12    6   14 2  
    13   11   13 1  
    14   10    6 1  
    15    9   12 2  
    16    9   11 1  
    17    8   10 1  
    18    1   18 1  
    19    1   19 1  
    20    2   20 1  
    21    2   21 1  
    22    3   22 1  
    23    3   23 1  
    24    4   24 1  
    25    4   25 1  
    26    5   26 1  
    27    5   27 1  
    28    6   28 1  
    29    7   29 1  
    30    7   30 1  
    31    8   31 1  
    32    8   32 1  
    33   10   33 1  
    34   10   34 1  
    35   13   35 1  
    36   13   36 1  
    37   14   37 1  
    38   15   38 1  
    39   15   39 1  
    40   16   40 1  
    41   17   41 1  
# Name:          frag5-654-73/138278
# Creation time: Sat Jun  5 12:53:51 2010


@<TRIPOS>MOLECULE
frag5-654-73/138278
   41    41     1     1     1
SMALL
USER_CHARGES


@<TRIPOS>ATOM
      1 C28         0.1646   -0.4250   -1.0103 C.3        1 <1>        0.000
      2 C32         0.3202   -1.8902   -1.3902 C.3        1 <1>        0.000
      3 C33         1.1903    0.1456   -0.0331 C.3        1 <1>        0.000
      4 C36        -0.3861   -2.3696   -2.6396 C.3        1 <1>        0.000
      5 C37         1.0064    1.5118    0.6470 C.3        1 <1>        0.000
      6 C54        -2.1197    1.0978    2.9927 C.2        1 <1>        0.000
      7 C40        -1.2439   -3.6096   -2.5481 C.3        1 <1>        0.000
      8 C42        -0.2389    1.8491    1.4407 C.3        1 <1>        0.000
      9 C46        -2.4354   -3.6854   -1.6396 C.2        1 <1>        0.000
     10 C48        -0.8929    0.7293    2.2191 C.3        1 <1>        0.000
     11 O11        -3.0151   -2.5883   -1.1448 O.3        1 <1>        0.000
     12 O12        -2.8893   -4.8100   -1.4086 O.2        1 <1>        0.000
     13 C55        -4.2417   -2.8041   -0.4716 C.3        1 <1>        0.000
     14 C56        -3.3760    0.8469    2.6165 C.2        1 <1>        0.000
     15 C58        -4.9744   -1.5576   -0.0094 C.3        1 <1>        0.000
     16 C60        -3.9111    0.2334    1.4527 C.2        1 <1>        0.000
     17 C62        -4.4676   -0.9666    1.2668 C.2        1 <1>        0.000
     18 H          -0.8009   -0.3463   -0.5106 H.spc      1 <1>        0.000
     19 H           0.2866    0.1386   -1.9353 H.spc      1 <1>        0.000
     20 H          -0.1231   -2.4538   -0.5692 H.spc      1 <1>        0.000
     21 H           1.3837   -2.0309   -1.5833 H.spc      1 <1>        0.000
     22 H           1.1657   -0.5574    0.7995 H.spc      1 <1>        0.000
     23 H           2.0773    0.2871   -0.6505 H.spc      1 <1>        0.000
     24 H           0.4105   -2.6238   -3.3388 H.spc      1 <1>        0.000
     25 H          -1.0725   -1.5660   -2.9064 H.spc      1 <1>        0.000
     26 H           1.8012    1.5371    1.3925 H.spc      1 <1>        0.000
     27 H           0.9773    2.2126   -0.1873 H.spc      1 <1>        0.000
     28 H          -1.9758    1.6138    3.9420 H.spc      1 <1>        0.000
     29 H          -1.6755   -3.6972   -3.5452 H.spc      1 <1>        0.000
     30 H          -0.5656   -4.3617   -2.1451 H.spc      1 <1>        0.000
     31 H          -0.9785    2.1678    0.7062 H.spc      1 <1>        0.000
     32 H           0.0759    2.5802    2.1854 H.spc      1 <1>        0.000
     33 H          -1.2057   -0.0124    1.4842 H.spc      1 <1>        0.000
     34 H          -0.1578    0.3956    2.9515 H.spc      1 <1>        0.000
     35 H          -4.8999   -3.2995   -1.1854 H.spc      1 <1>        0.000
     36 H          -4.0017   -3.3700    0.4286 H.spc      1 <1>        0.000
     37 H          -4.1290    1.1726    3.3341 H.spc      1 <1>        0.000
     38 H          -4.8341   -0.8036   -0.7840 H.spc      1 <1>        0.000
     39 H          -6.0103   -1.8474    0.1665 H.spc      1 <1>        0.000
     40 H          -3.8585    0.8491    0.5548 H.spc      1 <1>        0.000
     41 H          -4.5640   -1.5916    2.1546 H.spc      1 <1>        0.000
@<TRIPOS>BOND
     1    5    8 1  
     2    1    2 1  
     3    7    9 1  
     4    3    5 1  
     5    2    4 1  
     6    4    7 1  
     7    1    3 1  
     8   16   17 2  
     9   15   17 1  
    10   14   16 1  
    11   13   15 1  
    12    6   14 2  
    13   11   13 1  
    14   10    6 1  
    15    9   12 2  
    16    9   11 1  
    17    8   10 1  
    18    1   18 1  
    19    1   19 1  
    20    2   20 1  
    21    2   21 1  
    22    3   22 1  
    23    3   23 1  
    24    4   24 1  
    25    4   25 1  
    26    5   26 1  
    27    5   27 1  
    28    6   28 1  
    29    7   29 1  
    30    7   30 1  
    31    8   31 1  
    32    8   32 1  
    33   10   33 1  
    34   10   34 1  
    35   13   35 1  
    36   13   36 1  
    37   14   37 1  
    38   15   38 1  
    39   15   39 1  
    40   16   40 1  
    41   17   41 1  
# Name:          frag5-654-73/138278
# Creation time: Sat Jun  5 12:53:51 2010


@<TRIPOS>MOLECULE
frag5-654-73/138278
   41    41     1     1     1
SMALL
USER_CHARGES


@<TRIPOS>ATOM
      1 C28         1.3021   -1.4433   -0.4120 C.3        1 <1>        0.000
      2 C32         0.3062   -2.4066   -1.0182 C.3        1 <1>        0.000
      3 C33         0.9743    0.0279   -0.2865 C.3        1 <1>        0.000
      4 C36        -0.4171   -2.0459   -2.2992 C.3        1 <1>        0.000
      5 C37        -0.2723    0.4925    0.4403 C.3        1 <1>        0.000
      6 C54        -2.1641    1.5509    3.0404 C.2        1 <1>        0.000
      7 C40        -1.4069   -3.0077   -2.9101 C.3        1 <1>        0.000
      8 C42        -0.1167    1.5364    1.5226 C.3        1 <1>        0.000
      9 C46        -2.6847   -3.2436   -2.1593 C.2        1 <1>        0.000
     10 C48        -1.3427    2.2720    2.0356 C.3        1 <1>        0.000
     11 O11        -2.6910   -3.1532   -0.8195 O.3        1 <1>        0.000
     12 O12        -3.6889   -3.5335   -2.8102 O.2        1 <1>        0.000
     13 C55        -3.9363   -3.1705   -0.1627 C.3        1 <1>        0.000
     14 C56        -3.1673    0.6828    2.8720 C.2        1 <1>        0.000
     15 C58        -4.5213   -1.8145    0.1995 C.3        1 <1>        0.000
     16 C60        -3.7870    0.1251    1.7230 C.2        1 <1>        0.000
     17 C62        -3.8969   -1.1612    1.3848 C.2        1 <1>        0.000
     18 H           2.1502   -1.4705   -1.0961 H.spc      1 <1>        0.000
     19 H           1.4080   -1.7821    0.6186 H.spc      1 <1>        0.000
     20 H          -0.4849   -2.4844   -0.2724 H.spc      1 <1>        0.000
     21 H           0.9000   -3.2826   -1.2791 H.spc      1 <1>        0.000
     22 H           1.7929    0.4305    0.3101 H.spc      1 <1>        0.000
     23 H           0.8158    0.3515   -1.3152 H.spc      1 <1>        0.000
     24 H           0.3752   -1.9642   -3.0433 H.spc      1 <1>        0.000
     25 H          -1.0150   -1.1735   -2.0357 H.spc      1 <1>        0.000
     26 H          -0.8948    0.9589   -0.3233 H.spc      1 <1>        0.000
     27 H          -0.6583   -0.3925    0.9461 H.spc      1 <1>        0.000
     28 H          -1.9093    1.7624    4.0789 H.spc      1 <1>        0.000
     29 H          -1.6999   -2.5663   -3.8627 H.spc      1 <1>        0.000
     30 H          -0.9006   -3.9724   -2.9440 H.spc      1 <1>        0.000
     31 H           0.5021    2.3120    1.0714 H.spc      1 <1>        0.000
     32 H           0.2564    0.9856    2.3860 H.spc      1 <1>        0.000
     33 H          -0.9746    3.1707    2.5304 H.spc      1 <1>        0.000
     34 H          -1.9875    2.4305    1.1712 H.spc      1 <1>        0.000
     35 H          -4.6403   -3.6311   -0.8558 H.spc      1 <1>        0.000
     36 H          -3.7770   -3.6954    0.7792 H.spc      1 <1>        0.000
     37 H          -3.5976    0.3312    3.8097 H.spc      1 <1>        0.000
     38 H          -4.3477   -1.1571   -0.6524 H.spc      1 <1>        0.000
     39 H          -5.5709   -1.9777    0.4442 H.spc      1 <1>        0.000
     40 H          -4.2297    0.8387    1.0281 H.spc      1 <1>        0.000
     41 H          -3.4530   -1.8543    2.0994 H.spc      1 <1>        0.000
@<TRIPOS>BOND
     1    5    8 1  
     2    1    2 1  
     3    7    9 1  
     4    3    5 1  
     5    2    4 1  
     6    4    7 1  
     7    1    3 1  
     8   16   17 2  
     9   15   17 1  
    10   14   16 1  
    11   13   15 1  
    12    6   14 2  
    13   11   13 1  
    14   10    6 1  
    15    9   12 2  
    16    9   11 1  
    17    8   10 1  
    18    1   18 1  
    19    1   19 1  
    20    2   20 1  
    21    2   21 1  
    22    3   22 1  
    23    3   23 1  
    24    4   24 1  
    25    4   25 1  
    26    5   26 1  
    27    5   27 1  
    28    6   28 1  
    29    7   29 1  
    30    7   30 1  
    31    8   31 1  
    32    8   32 1  
    33   10   33 1  
    34   10   34 1  
    35   13   35 1  
    36   13   36 1  
    37   14   37 1  
    38   15   38 1  
    39   15   39 1  
    40   16   40 1  
    41   17   41 1  
# Name:          frag5-654-73/138278
# Creation time: Sat Jun  5 12:53:51 2010


@<TRIPOS>MOLECULE
frag5-654-73/138278
   41    41     1     1     1
SMALL
USER_CHARGES


@<TRIPOS>ATOM
      1 C28         0.3765   -0.6765   -1.8968 C.3        1 <1>        0.000
      2 C32         0.8794   -2.0716   -1.6026 C.3        1 <1>        0.000
      3 C33        -0.1886    0.2198   -0.8152 C.3        1 <1>        0.000
      4 C36         0.0574   -3.0703   -0.8232 C.3        1 <1>        0.000
      5 C37         0.5981    0.5630    0.4316 C.3        1 <1>        0.000
      6 C54        -2.3261    1.3181    2.8433 C.2        1 <1>        0.000
      7 C40        -1.0921   -3.7927   -1.4770 C.3        1 <1>        0.000
      8 C42        -0.1152    1.3921    1.4848 C.3        1 <1>        0.000
      9 C46        -2.3249   -3.0248   -1.8278 C.2        1 <1>        0.000
     10 C48        -1.0856    0.6297    2.3752 C.3        1 <1>        0.000
     11 O11        -2.7527   -2.1050   -0.9578 O.3        1 <1>        0.000
     12 O12        -2.9395   -3.3085   -2.8574 O.2        1 <1>        0.000
     13 C55        -4.1448   -1.9458   -0.8110 C.3        1 <1>        0.000
     14 C56        -3.5879    1.0280    2.4886 C.2        1 <1>        0.000
     15 C58        -4.6457   -2.2355    0.5947 C.3        1 <1>        0.000
     16 C60        -4.0995    0.0628    1.5769 C.2        1 <1>        0.000
     17 C62        -4.1193   -1.2751    1.6140 C.2        1 <1>        0.000
     18 H          -0.4732   -0.8455   -2.5582 H.spc      1 <1>        0.000
     19 H           1.2705   -0.1469   -2.2261 H.spc      1 <1>        0.000
     20 H           1.7479   -1.9021   -0.9662 H.spc      1 <1>        0.000
     21 H           0.9668   -2.5260   -2.5895 H.spc      1 <1>        0.000
     22 H          -0.3097    1.1808   -1.3152 H.spc      1 <1>        0.000
     23 H          -1.0408   -0.3431   -0.4344 H.spc      1 <1>        0.000
     24 H          -0.4109   -2.4771   -0.0378 H.spc      1 <1>        0.000
     25 H           0.7639   -3.8618   -0.5732 H.spc      1 <1>        0.000
     26 H           0.8331   -0.3885    0.9085 H.spc      1 <1>        0.000
     27 H           1.4417    1.1665    0.0965 H.spc      1 <1>        0.000
     28 H          -2.1929    2.1411    3.5455 H.spc      1 <1>        0.000
     29 H          -0.6978   -4.1420   -2.4313 H.spc      1 <1>        0.000
     30 H          -1.4185   -4.5262   -0.7397 H.spc      1 <1>        0.000
     31 H          -0.7057    2.1340    0.9472 H.spc      1 <1>        0.000
     32 H           0.6584    1.7915    2.1407 H.spc      1 <1>        0.000
     33 H          -1.4374   -0.2008    1.7632 H.spc      1 <1>        0.000
     34 H          -0.5238    0.4118    3.2835 H.spc      1 <1>        0.000
     35 H          -4.3800   -0.9050   -1.0337 H.spc      1 <1>        0.000
     36 H          -4.6275   -2.6557   -1.4827 H.spc      1 <1>        0.000
     37 H          -4.3482    1.6336    2.9819 H.spc      1 <1>        0.000
     38 H          -5.7320   -2.1458    0.5846 H.spc      1 <1>        0.000
     39 H          -4.3021   -3.2326    0.8701 H.spc      1 <1>        0.000
     40 H          -4.5590    0.4908    0.6860 H.spc      1 <1>        0.000
     41 H          -3.6934   -1.7269    2.5099 H.spc      1 <1>        0.000
@<TRIPOS>BOND
     1    5    8 1  
     2    1    2 1  
     3    7    9 1  
     4    3    5 1  
     5    2    4 1  
     6    4    7 1  
     7    1    3 1  
     8   16   17 2  
     9   15   17 1  
    10   14   16 1  
    11   13   15 1  
    12    6   14 2  
    13   11   13 1  
    14   10    6 1  
    15    9   12 2  
    16    9   11 1  
    17    8   10 1  
    18    1   18 1  
    19    1   19 1  
    20    2   20 1  
    21    2   21 1  
    22    3   22 1  
    23    3   23 1  
    24    4   24 1  
    25    4   25 1  
    26    5   26 1  
    27    5   27 1  
    28    6   28 1  
    29    7   29 1  
    30    7   30 1  
    31    8   31 1  
    32    8   32 1  
    33   10   33 1  
    34   10   34 1  
    35   13   35 1  
    36   13   36 1  
    37   14   37 1  
    38   15   38 1  
    39   15   39 1  
    40   16   40 1  
    41   17   41 1  
# Name:          frag5-654-73/138278
# Creation time: Sat Jun  5 12:53:51 2010


@<TRIPOS>MOLECULE
frag5-654-73/138278
   41    41     1     1     1
SMALL
USER_CHARGES


@<TRIPOS>ATOM
      1 C28         1.0548   -0.9166   -1.3236 C.3        1 <1>        0.000
      2 C32         0.7203   -2.3519   -1.0132 C.3        1 <1>        0.000
      3 C33         1.0774    0.0906   -0.2049 C.3        1 <1>        0.000
      4 C36         0.0134   -3.1653   -2.0749 C.3        1 <1>        0.000
      5 C37        -0.1947    0.3789    0.5439 C.3        1 <1>        0.000
      6 C54        -1.9261    1.0051    3.0030 C.2        1 <1>        0.000
      7 C40        -1.3210   -3.7782   -1.7376 C.3        1 <1>        0.000
      8 C42        -0.3666    1.7513    1.1598 C.3        1 <1>        0.000
      9 C46        -2.4817   -2.8239   -1.7245 C.2        1 <1>        0.000
     10 C48        -1.5986    2.0382    1.9886 C.3        1 <1>        0.000
     11 O11        -3.6252   -3.2324   -1.1417 O.3        1 <1>        0.000
     12 O12        -2.3592   -1.7227   -2.2545 O.2        1 <1>        0.000
     13 C55        -4.7004   -2.3232   -1.1234 C.3        1 <1>        0.000
     14 C56        -2.8618    0.0484    2.9237 C.2        1 <1>        0.000
     15 C58        -5.0838   -1.6515    0.1866 C.3        1 <1>        0.000
     16 C60        -3.8322   -0.2656    1.9321 C.2        1 <1>        0.000
     17 C62        -4.0254   -1.3737    1.2009 C.2        1 <1>        0.000
     18 H           0.2566   -0.5808   -1.9855 H.spc      1 <1>        0.000
     19 H           2.0788   -0.9429   -1.6963 H.spc      1 <1>        0.000
     20 H           0.0273   -2.3109   -0.1729 H.spc      1 <1>        0.000
     21 H           1.6805   -2.8456   -0.8639 H.spc      1 <1>        0.000
     22 H           1.7514   -0.3326    0.5399 H.spc      1 <1>        0.000
     23 H           1.3417    1.0341   -0.6824 H.spc      1 <1>        0.000
     24 H           0.6733   -4.0094   -2.2749 H.spc      1 <1>        0.000
     25 H          -0.1905   -2.4638   -2.8839 H.spc      1 <1>        0.000
     26 H          -0.9899    0.2944   -0.1968 H.spc      1 <1>        0.000
     27 H          -0.1977   -0.3157    1.3839 H.spc      1 <1>        0.000
     28 H          -1.3368    1.0270    3.9197 H.spc      1 <1>        0.000
     29 H          -1.5312   -4.5143   -2.5135 H.spc      1 <1>        0.000
     30 H          -1.2343   -4.1777   -0.7272 H.spc      1 <1>        0.000
     31 H          -0.4362    2.4317    0.3111 H.spc      1 <1>        0.000
     32 H           0.4672    1.8522    1.8546 H.spc      1 <1>        0.000
     33 H          -1.4042    2.9628    2.5322 H.spc      1 <1>        0.000
     34 H          -2.4405    2.0790    1.2975 H.spc      1 <1>        0.000
     35 H          -4.3861   -1.5068   -1.7736 H.spc      1 <1>        0.000
     36 H          -5.5723   -2.9171   -1.3976 H.spc      1 <1>        0.000
     37 H          -2.8832   -0.6179    3.7860 H.spc      1 <1>        0.000
     38 H          -5.4570   -0.6691   -0.1028 H.spc      1 <1>        0.000
     39 H          -5.7585   -2.3555    0.6736 H.spc      1 <1>        0.000
     40 H          -4.5441    0.5350    1.7310 H.spc      1 <1>        0.000
     41 H          -3.3125   -2.1805    1.3709 H.spc      1 <1>        0.000
@<TRIPOS>BOND
     1    5    8 1  
     2    1    2 1  
     3    7    9 1  
     4    3    5 1  
     5    2    4 1  
     6    4    7 1  
     7    1    3 1  
     8   16   17 2  
     9   15   17 1  
    10   14   16 1  
    11   13   15 1  
    12    6   14 2  
    13   11   13 1  
    14   10    6 1  
    15    9   12 2  
    16    9   11 1  
    17    8   10 1  
    18    1   18 1  
    19    1   19 1  
    20    2   20 1  
    21    2   21 1  
    22    3   22 1  
    23    3   23 1  
    24    4   24 1  
    25    4   25 1  
    26    5   26 1  
    27    5   27 1  
    28    6   28 1  
    29    7   29 1  
    30    7   30 1  
    31    8   31 1  
    32    8   32 1  
    33   10   33 1  
    34   10   34 1  
    35   13   35 1  
    36   13   36 1  
    37   14   37 1  
    38   15   38 1  
    39   15   39 1  
    40   16   40 1  
    41   17   41 1  
# Name:          frag5-654-73/138278
# Creation time: Sat Jun  5 12:53:51 2010


@<TRIPOS>MOLECULE
frag5-654-73/138278
   41    41     1     1     1
SMALL
USER_CHARGES


@<TRIPOS>ATOM
      1 C28         0.9283   -0.5526   -0.6663 C.3        1 <1>        0.000
      2 C32         0.8432   -1.5115   -1.8313 C.3        1 <1>        0.000
      3 C33         0.4863   -0.9687    0.7059 C.3        1 <1>        0.000
      4 C36        -0.4891   -1.9848   -2.3822 C.3        1 <1>        0.000
      5 C37         0.5833   -0.0230    1.8624 C.3        1 <1>        0.000
      6 C54        -2.2974    1.7754    2.0007 C.2        1 <1>        0.000
      7 C40        -1.2609   -2.9689   -1.5570 C.3        1 <1>        0.000
      8 C42         0.1888    1.4261    1.6756 C.3        1 <1>        0.000
      9 C46        -2.7322   -3.1423   -1.8020 C.2        1 <1>        0.000
     10 C48        -1.1552    1.7636    1.0437 C.3        1 <1>        0.000
     11 O11        -3.5179   -2.0814   -1.5230 O.3        1 <1>        0.000
     12 O12        -3.1865   -4.2353   -2.1426 O.2        1 <1>        0.000
     13 C55        -4.6435   -2.3863   -0.7231 C.3        1 <1>        0.000
     14 C56        -3.3318    0.9239    2.0690 C.2        1 <1>        0.000
     15 C58        -4.3172   -2.6494    0.7472 C.3        1 <1>        0.000
     16 C60        -3.6842   -0.2028    1.2709 C.2        1 <1>        0.000
     17 C62        -3.9247   -1.4746    1.5924 C.2        1 <1>        0.000
     18 H           0.2431    0.2518   -0.9337 H.spc      1 <1>        0.000
     19 H           1.9960   -0.3632   -0.5555 H.spc      1 <1>        0.000
     20 H           1.3023   -2.4231   -1.4488 H.spc      1 <1>        0.000
     21 H           1.2797   -0.9515   -2.6583 H.spc      1 <1>        0.000
     22 H          -0.5835   -1.1476    0.5978 H.spc      1 <1>        0.000
     23 H           1.1644   -1.7806    0.9688 H.spc      1 <1>        0.000
     24 H          -0.2577   -2.4983   -3.3154 H.spc      1 <1>        0.000
     25 H          -1.1160   -1.0954   -2.4450 H.spc      1 <1>        0.000
     26 H          -0.1240   -0.4098    2.5960 H.spc      1 <1>        0.000
     27 H           1.6454    0.0087    2.1054 H.spc      1 <1>        0.000
     28 H          -2.2917    2.5775    2.7387 H.spc      1 <1>        0.000
     29 H          -0.8232   -3.9375   -1.7987 H.spc      1 <1>        0.000
     30 H          -1.1920   -2.5904   -0.5372 H.spc      1 <1>        0.000
     31 H           0.9283    1.8263    0.9820 H.spc      1 <1>        0.000
     32 H           0.1271    1.8280    2.6869 H.spc      1 <1>        0.000
     33 H          -1.0721    2.7691    0.6312 H.spc      1 <1>        0.000
     34 H          -1.3647    0.9910    0.3039 H.spc      1 <1>        0.000
     35 H          -5.3041   -1.5199   -0.7551 H.spc      1 <1>        0.000
     36 H          -5.0831   -3.3001   -1.1227 H.spc      1 <1>        0.000
     37 H          -4.0283    1.1313    2.8814 H.spc      1 <1>        0.000
     38 H          -5.2381   -3.0319    1.1874 H.spc      1 <1>        0.000
     39 H          -3.4490   -3.3084    0.7409 H.spc      1 <1>        0.000
     40 H          -3.7732    0.0137    0.2063 H.spc      1 <1>        0.000
     41 H          -3.8173   -1.6990    2.6536 H.spc      1 <1>        0.000
@<TRIPOS>BOND
     1    5    8 1  
     2    1    2 1  
     3    7    9 1  
     4    3    5 1  
     5    2    4 1  
     6    4    7 1  
     7    1    3 1  
     8   16   17 2  
     9   15   17 1  
    10   14   16 1  
    11   13   15 1  
    12    6   14 2  
    13   11   13 1  
    14   10    6 1  
    15    9   12 2  
    16    9   11 1  
    17    8   10 1  
    18    1   18 1  
    19    1   19 1  
    20    2   20 1  
    21    2   21 1  
    22    3   22 1  
    23    3   23 1  
    24    4   24 1  
    25    4   25 1  
    26    5   26 1  
    27    5   27 1  
    28    6   28 1  
    29    7   29 1  
    30    7   30 1  
    31    8   31 1  
    32    8   32 1  
    33   10   33 1  
    34   10   34 1  
    35   13   35 1  
    36   13   36 1  
    37   14   37 1  
    38   15   38 1  
    39   15   39 1  
    40   16   40 1  
    41   17   41 1  
# Name:          frag5-654-73/138278
# Creation time: Sat Jun  5 12:53:51 2010


@<TRIPOS>MOLECULE
frag5-654-73/138278
   41    41     1     1     1
SMALL
USER_CHARGES


@<TRIPOS>ATOM
      1 C28         1.2936   -1.1426   -0.8022 C.3        1 <1>        0.000
      2 C32         0.6570   -2.3329   -1.4889 C.3        1 <1>        0.000
      3 C33         0.3927   -0.1205   -0.1376 C.3        1 <1>        0.000
      4 C36        -0.3102   -2.0772   -2.6242 C.3        1 <1>        0.000
      5 C37         0.1609   -0.2020    1.3545 C.3        1 <1>        0.000
      6 C54        -2.4078    1.8373    2.5778 C.2        1 <1>        0.000
      7 C40        -1.4568   -3.0119   -2.9026 C.3        1 <1>        0.000
      8 C42        -0.0380    1.1080    2.0822 C.3        1 <1>        0.000
      9 C46        -2.6266   -3.0516   -1.9604 C.2        1 <1>        0.000
     10 C48        -1.2116    2.0193    1.7210 C.3        1 <1>        0.000
     11 O11        -2.4507   -3.0305   -0.6268 O.3        1 <1>        0.000
     12 O12        -3.7459   -3.1436   -2.4738 O.2        1 <1>        0.000
     13 C55        -3.6268   -3.2104    0.1411 C.3        1 <1>        0.000
     14 C56        -3.4639    1.0457    2.3996 C.2        1 <1>        0.000
     15 C58        -4.6036   -2.0451    0.3206 C.3        1 <1>        0.000
     16 C60        -3.8073    0.1583    1.3453 C.2        1 <1>        0.000
     17 C62        -4.2655   -1.0928    1.4147 C.2        1 <1>        0.000
     18 H           1.8051   -0.5972   -1.5953 H.spc      1 <1>        0.000
     19 H           1.8881   -1.5662    0.0073 H.spc      1 <1>        0.000
     20 H           0.0668   -2.8261   -0.7166 H.spc      1 <1>        0.000
     21 H           1.4857   -2.8805   -1.9377 H.spc      1 <1>        0.000
     22 H           0.8939    0.8352   -0.2907 H.spc      1 <1>        0.000
     23 H          -0.5892   -0.2826   -0.5822 H.spc      1 <1>        0.000
     24 H           0.3100   -2.1513   -3.5175 H.spc      1 <1>        0.000
     25 H          -0.7969   -1.1421   -2.3471 H.spc      1 <1>        0.000
     26 H          -0.7653   -0.7618    1.4847 H.spc      1 <1>        0.000
     27 H           1.0634   -0.6455    1.7751 H.spc      1 <1>        0.000
     28 H          -2.4255    2.4393    3.4863 H.spc      1 <1>        0.000
     29 H          -1.8746   -2.6627   -3.8469 H.spc      1 <1>        0.000
     30 H          -1.0207   -4.0091   -2.8434 H.spc      1 <1>        0.000
     31 H           0.8464    1.6937    1.8314 H.spc      1 <1>        0.000
     32 H          -0.2292    0.8173    3.1152 H.spc      1 <1>        0.000
     33 H          -0.8738    3.0470    1.8541 H.spc      1 <1>        0.000
     34 H          -1.5065    1.7749    0.7005 H.spc      1 <1>        0.000
     35 H          -4.1963   -3.9645   -0.4021 H.spc      1 <1>        0.000
     36 H          -3.2672   -3.4243    1.1476 H.spc      1 <1>        0.000
     37 H          -4.1951    1.0861    3.2069 H.spc      1 <1>        0.000
     38 H          -4.5817   -1.4741   -0.6076 H.spc      1 <1>        0.000
     39 H          -5.5684   -2.4835    0.5759 H.spc      1 <1>        0.000
     40 H          -3.6785    0.5550    0.3382 H.spc      1 <1>        0.000
     41 H          -4.4149   -1.4757    2.4242 H.spc      1 <1>        0.000
@<TRIPOS>BOND
     1    5    8 1  
     2    1    2 1  
     3    7    9 1  
     4    3    5 1  
     5    2    4 1  
     6    4    7 1  
     7    1    3 1  
     8   16   17 2  
     9   15   17 1  
    10   14   16 1  
    11   13   15 1  
    12    6   14 2  
    13   11   13 1  
    14   10    6 1  
    15    9   12 2  
    16    9   11 1  
    17    8   10 1  
    18    1   18 1  
    19    1   19 1  
    20    2   20 1  
    21    2   21 1  
    22    3   22 1  
    23    3   23 1  
    24    4   24 1  
    25    4   25 1  
    26    5   26 1  
    27    5   27 1  
    28    6   28 1  
    29    7   29 1  
    30    7   30 1  
    31    8   31 1  
    32    8   32 1  
    33   10   33 1  
    34   10   34 1  
    35   13   35 1  
    36   13   36 1  
    37   14   37 1  
    38   15   38 1  
    39   15   39 1  
    40   16   40 1  
    41   17   41 1  
# Name:          frag5-654-73/138278
# Creation time: Sat Jun  5 12:53:51 2010


@<TRIPOS>MOLECULE
frag5-654-73/138278
   41    41     1     1     1
SMALL
USER_CHARGES


@<TRIPOS>ATOM
      1 C28         0.9343   -0.8226   -1.5416 C.3        1 <1>        0.000
      2 C32         1.2249   -2.2626   -1.9210 C.3        1 <1>        0.000
      3 C33         0.5114   -0.5306   -0.1098 C.3        1 <1>        0.000
      4 C36         0.1184   -3.2986   -1.9227 C.3        1 <1>        0.000
      5 C37         0.1770    0.9137    0.1765 C.3        1 <1>        0.000
      6 C54        -2.1570    0.9599    3.0151 C.2        1 <1>        0.000
      7 C40        -1.2586   -2.9156   -2.4385 C.3        1 <1>        0.000
      8 C42        -0.1143    1.3422    1.5974 C.3        1 <1>        0.000
      9 C46        -2.3373   -2.7281   -1.3871 C.2        1 <1>        0.000
     10 C48        -1.5010    1.7843    1.9697 C.3        1 <1>        0.000
     11 O11        -3.5180   -2.2306   -1.8181 O.3        1 <1>        0.000
     12 O12        -2.1538   -3.0732   -0.2214 O.2        1 <1>        0.000
     13 C55        -4.6529   -2.5390   -1.0414 C.3        1 <1>        0.000
     14 C56        -3.2275    0.1679    2.9243 C.2        1 <1>        0.000
     15 C58        -5.1794   -1.6093    0.0385 C.3        1 <1>        0.000
     16 C60        -4.0942   -0.1384    1.8281 C.2        1 <1>        0.000
     17 C62        -4.2827   -1.3120    1.1924 C.2        1 <1>        0.000
     18 H           0.0858   -0.5273   -2.1589 H.spc      1 <1>        0.000
     19 H           1.8770   -0.2926   -1.6777 H.spc      1 <1>        0.000
     20 H           1.9140   -2.6084   -1.1505 H.spc      1 <1>        0.000
     21 H           1.5403   -2.2063   -2.9629 H.spc      1 <1>        0.000
     22 H          -0.3965   -1.1054    0.0730 H.spc      1 <1>        0.000
     23 H           1.3577   -0.7892    0.5266 H.spc      1 <1>        0.000
     24 H          -0.0362   -3.5422   -0.8716 H.spc      1 <1>        0.000
     25 H           0.4651   -4.0747   -2.6050 H.spc      1 <1>        0.000
     26 H           1.0748    1.4661   -0.1008 H.spc      1 <1>        0.000
     27 H          -0.7523    1.0951   -0.3635 H.spc      1 <1>        0.000
     28 H          -1.6969    1.0084    4.0021 H.spc      1 <1>        0.000
     29 H          -1.1422   -1.9506   -2.9318 H.spc      1 <1>        0.000
     30 H          -1.5882   -3.7405   -3.0702 H.spc      1 <1>        0.000
     31 H           0.5073    2.2241    1.7524 H.spc      1 <1>        0.000
     32 H           0.0603    0.4484    2.1963 H.spc      1 <1>        0.000
     33 H          -1.4144    2.7941    2.3709 H.spc      1 <1>        0.000
     34 H          -2.1120    1.7007    1.0709 H.spc      1 <1>        0.000
     35 H          -5.4610   -2.5598   -1.7725 H.spc      1 <1>        0.000
     36 H          -4.3447   -3.4238   -0.4844 H.spc      1 <1>        0.000
     37 H          -3.4888   -0.3372    3.8542 H.spc      1 <1>        0.000
     38 H          -5.3468   -0.6523   -0.4558 H.spc      1 <1>        0.000
     39 H          -6.0452   -2.1165    0.4642 H.spc      1 <1>        0.000
     40 H          -4.6866    0.6963    1.4535 H.spc      1 <1>        0.000
     41 H          -3.7038   -2.1542    1.5715 H.spc      1 <1>        0.000
@<TRIPOS>BOND
     1    5    8 1  
     2    1    2 1  
     3    7    9 1  
     4    3    5 1  
     5    2    4 1  
     6    4    7 1  
     7    1    3 1  
     8   16   17 2  
     9   15   17 1  
    10   14   16 1  
    11   13   15 1  
    12    6   14 2  
    13   11   13 1  
    14   10    6 1  
    15    9   12 2  
    16    9   11 1  
    17    8   10 1  
    18    1   18 1  
    19    1   19 1  
    20    2   20 1  
    21    2   21 1  
    22    3   22 1  
    23    3   23 1  
    24    4   24 1  
    25    4   25 1  
    26    5   26 1  
    27    5   27 1  
    28    6   28 1  
    29    7   29 1  
    30    7   30 1  
    31    8   31 1  
    32    8   32 1  
    33   10   33 1  
    34   10   34 1  
    35   13   35 1  
    36   13   36 1  
    37   14   37 1  
    38   15   38 1  
    39   15   39 1  
    40   16   40 1  
    41   17   41 1  
# Name:          frag5-654-73/138278
# Creation time: Sat Jun  5 12:53:51 2010


@<TRIPOS>MOLECULE
frag5-654-73/138278
   41    41     1     1     1
SMALL
USER_CHARGES


@<TRIPOS>ATOM
      1 C28         1.2960   -0.5062   -1.3615 C.3        1 <1>        0.000
      2 C32         0.8434   -1.6446   -2.2750 C.3        1 <1>        0.000
      3 C33         0.8211   -0.4534    0.0767 C.3        1 <1>        0.000
      4 C36        -0.6372   -1.9910   -2.4269 C.3        1 <1>        0.000
      5 C37         0.9086    0.8215    0.8918 C.3        1 <1>        0.000
      6 C54        -2.3369    1.5211    2.9033 C.2        1 <1>        0.000
      7 C40        -1.0726   -3.4183   -2.1322 C.3        1 <1>        0.000
      8 C42        -0.0489    0.9272    2.0535 C.3        1 <1>        0.000
      9 C46        -2.4776   -3.6357   -1.6129 C.2        1 <1>        0.000
     10 C48        -1.2630    1.8305    1.9164 C.3        1 <1>        0.000
     11 O11        -3.1781   -2.5742   -1.1574 O.3        1 <1>        0.000
     12 O12        -2.9173   -4.7853   -1.6400 O.2        1 <1>        0.000
     13 C55        -4.4149   -2.7995   -0.5374 C.3        1 <1>        0.000
     14 C56        -3.4709    0.8242    2.7153 C.2        1 <1>        0.000
     15 C58        -5.0606   -1.5642    0.0509 C.3        1 <1>        0.000
     16 C60        -4.0200    0.1968    1.5570 C.2        1 <1>        0.000
     17 C62        -4.4819   -1.0415    1.3186 C.2        1 <1>        0.000
     18 H           0.8800    0.3916   -1.8187 H.spc      1 <1>        0.000
     19 H           2.3764   -0.6300   -1.2871 H.spc      1 <1>        0.000
     20 H           1.2781   -2.5356   -1.8219 H.spc      1 <1>        0.000
     21 H           1.1420   -1.3185   -3.2713 H.spc      1 <1>        0.000
     22 H          -0.2497   -0.6440    0.0049 H.spc      1 <1>        0.000
     23 H           1.4874   -1.1416    0.5968 H.spc      1 <1>        0.000
     24 H          -0.8639   -1.8322   -3.4812 H.spc      1 <1>        0.000
     25 H          -1.1546   -1.3741   -1.6922 H.spc      1 <1>        0.000
     26 H           1.9118    0.8459    1.3173 H.spc      1 <1>        0.000
     27 H           0.6599    1.6376    0.2134 H.spc      1 <1>        0.000
     28 H          -2.1822    1.9112    3.9093 H.spc      1 <1>        0.000
     29 H          -1.0332   -3.9376   -3.0897 H.spc      1 <1>        0.000
     30 H          -0.4122   -3.7652   -1.3375 H.spc      1 <1>        0.000
     31 H           0.5362    1.3594    2.8652 H.spc      1 <1>        0.000
     32 H          -0.4547   -0.0766    2.1792 H.spc      1 <1>        0.000
     33 H          -0.9353    2.8548    2.0938 H.spc      1 <1>        0.000
     34 H          -1.6765    1.6804    0.9191 H.spc      1 <1>        0.000
     35 H          -5.0909   -3.1763   -1.3049 H.spc      1 <1>        0.000
     36 H          -4.2354   -3.4879    0.2884 H.spc      1 <1>        0.000
     37 H          -4.0828    0.7191    3.6112 H.spc      1 <1>        0.000
     38 H          -4.9232   -0.7747   -0.6880 H.spc      1 <1>        0.000
     39 H          -6.0870   -1.8465    0.2852 H.spc      1 <1>        0.000
     40 H          -4.0758    0.8559    0.6907 H.spc      1 <1>        0.000
     41 H          -4.4266   -1.7449    2.1494 H.spc      1 <1>        0.000
@<TRIPOS>BOND
     1    5    8 1  
     2    1    2 1  
     3    7    9 1  
     4    3    5 1  
     5    2    4 1  
     6    4    7 1  
     7    1    3 1  
     8   16   17 2  
     9   15   17 1  
    10   14   16 1  
    11   13   15 1  
    12    6   14 2  
    13   11   13 1  
    14   10    6 1  
    15    9   12 2  
    16    9   11 1  
    17    8   10 1  
    18    1   18 1  
    19    1   19 1  
    20    2   20 1  
    21    2   21 1  
    22    3   22 1  
    23    3   23 1  
    24    4   24 1  
    25    4   25 1  
    26    5   26 1  
    27    5   27 1  
    28    6   28 1  
    29    7   29 1  
    30    7   30 1  
    31    8   31 1  
    32    8   32 1  
    33   10   33 1  
    34   10   34 1  
    35   13   35 1  
    36   13   36 1  
    37   14   37 1  
    38   15   38 1  
    39   15   39 1  
    40   16   40 1  
    41   17   41 1  
# Name:          frag5-654-73/138278 -- energy: -7.609784
# Creation time: Sat Jun  5 12:53:51 2010


@<TRIPOS>MOLECULE
frag5-654-73/138278 -- energy: -7.609784
   41    41     1     1     1
SMALL
USER_CHARGES


@<TRIPOS>ATOM
      1 C28         1.1581   -0.9113   -0.4668 C.3        1 <1>        0.000
      2 C32         0.5493   -2.2978   -0.3938 C.3        1 <1>        0.000
      3 C33         0.3776    0.2658   -1.0218 C.3        1 <1>        0.000
      4 C36         0.0801   -2.9882   -1.6598 C.3        1 <1>        0.000
      5 C37        -0.7092    0.7985   -0.1239 C.3        1 <1>        0.000
      6 C54        -1.5899    0.5949    2.9354 C.2        1 <1>        0.000
      7 C40        -1.2351   -2.6391   -2.3158 C.3        1 <1>        0.000
      8 C42        -0.2379    1.6498    1.0556 C.3        1 <1>        0.000
      9 C46        -2.4909   -2.8580   -1.5188 C.2        1 <1>        0.000
     10 C48        -1.2097    1.8726    2.2251 C.3        1 <1>        0.000
     11 O11        -3.5901   -2.1645   -1.8798 O.3        1 <1>        0.000
     12 O12        -2.4858   -3.6783   -0.5987 O.2        1 <1>        0.000
     13 C55        -4.7834   -2.3975   -1.1639 C.3        1 <1>        0.000
     14 C56        -2.5264   -0.3089    2.6355 C.2        1 <1>        0.000
     15 C58        -5.1577   -1.4447   -0.0344 C.3        1 <1>        0.000
     16 C60        -3.4736   -0.3788    1.5709 C.2        1 <1>        0.000
     17 C62        -4.1860   -1.4072    1.0953 C.2        1 <1>        0.000
     18 H           1.9880   -1.0267   -1.1640 H.spc      1 <1>        0.000
     19 H           1.3265   -0.6446    0.5766 H.spc      1 <1>        0.000
     20 H          -0.3574   -2.1663    0.1966 H.spc      1 <1>        0.000
     21 H           1.3556   -2.9299   -0.0218 H.spc      1 <1>        0.000
     22 H           1.0926    1.0766   -1.1613 H.spc      1 <1>        0.000
     23 H          -0.1120   -0.0848   -1.9304 H.spc      1 <1>        0.000
     24 H          -0.0517   -4.0261   -1.3539 H.spc      1 <1>        0.000
     25 H           0.8236   -2.6985   -2.4023 H.spc      1 <1>        0.000
     26 H          -1.3307    1.4458   -0.7426 H.spc      1 <1>        0.000
     27 H          -1.2097   -0.0704    0.3034 H.spc      1 <1>        0.000
     28 H          -1.0098    0.3766    3.8320 H.spc      1 <1>        0.000
     29 H          -1.1920   -1.5665   -2.5049 H.spc      1 <1>        0.000
     30 H          -1.3167   -3.3011   -3.1779 H.spc      1 <1>        0.000
     31 H          -0.0563    2.6410    0.6401 H.spc      1 <1>        0.000
     32 H           0.6058    1.1074    1.4824 H.spc      1 <1>        0.000
     33 H          -0.7121    2.5174    2.9495 H.spc      1 <1>        0.000
     34 H          -2.1222    2.3078    1.8177 H.spc      1 <1>        0.000
     35 H          -5.5804   -2.2913   -1.8998 H.spc      1 <1>        0.000
     36 H          -4.6406   -3.3650   -0.6826 H.spc      1 <1>        0.000
     37 H          -2.5761   -1.1463    3.3314 H.spc      1 <1>        0.000
     38 H          -5.1873   -0.4422   -0.4613 H.spc      1 <1>        0.000
     39 H          -6.1063   -1.7933    0.3740 H.spc      1 <1>        0.000
     40 H          -3.6466    0.5668    1.0571 H.spc      1 <1>        0.000
     41 H          -4.0333   -2.3562    1.6093 H.spc      1 <1>        0.000
@<TRIPOS>BOND
     1    5    8 1  
     2    1    2 1  
     3    7    9 1  
     4    3    5 1  
     5    2    4 1  
     6    4    7 1  
     7    1    3 1  
     8   16   17 2  
     9   15   17 1  
    10   14   16 1  
    11   13   15 1  
    12    6   14 2  
    13   11   13 1  
    14   10    6 1  
    15    9   12 2  
    16    9   11 1  
    17    8   10 1  
    18    1   18 1  
    19    1   19 1  
    20    2   20 1  
    21    2   21 1  
    22    3   22 1  
    23    3   23 1  
    24    4   24 1  
    25    4   25 1  
    26    5   26 1  
    27    5   27 1  
    28    6   28 1  
    29    7   29 1  
    30    7   30 1  
    31    8   31 1  
    32    8   32 1  
    33   10   33 1  
    34   10   34 1  
    35   13   35 1  
    36   13   36 1  
    37   14   37 1  
    38   15   38 1  
    39   15   39 1  
    40   16   40 1  
    41   17   41 1  
# Name:          frag5-654-73/138278 -- energy: -7.389764
# Creation time: Sat Jun  5 12:53:51 2010


@<TRIPOS>MOLECULE
frag5-654-73/138278 -- energy: -7.389764
   41    41     1     1     1
SMALL
USER_CHARGES


@<TRIPOS>ATOM
      1 C28         0.9855   -0.5882   -1.2081 C.3        1 <1>        0.000
      2 C32         0.0036   -1.3035   -2.1033 C.3        1 <1>        0.000
      3 C33         0.7588   -0.6196    0.2802 C.3        1 <1>        0.000
      4 C36        -0.0126   -2.8295   -2.0703 C.3        1 <1>        0.000
      5 C37        -0.4191    0.1321    0.8419 C.3        1 <1>        0.000
      6 C54        -2.1020    1.4998    3.2098 C.2        1 <1>        0.000
      7 C40        -1.1645   -3.5143   -2.7478 C.3        1 <1>        0.000
      8 C42        -0.1495    1.4227    1.5728 C.3        1 <1>        0.000
      9 C46        -2.4401   -3.5875   -1.9648 C.2        1 <1>        0.000
     10 C48        -1.2657    2.2193    2.2129 C.3        1 <1>        0.000
     11 O11        -2.8560   -2.5123   -1.2690 O.3        1 <1>        0.000
     12 O12        -3.0825   -4.6398   -2.0133 O.2        1 <1>        0.000
     13 C55        -4.0975   -2.6154   -0.6082 C.3        1 <1>        0.000
     14 C56        -3.1487    0.6981    2.9941 C.2        1 <1>        0.000
     15 C58        -4.6983   -1.3976    0.0854 C.3        1 <1>        0.000
     16 C60        -3.7973    0.2924    1.7896 C.2        1 <1>        0.000
     17 C62        -4.0246   -0.9493    1.3387 C.2        1 <1>        0.000
     18 H           0.9089    0.4632   -1.4851 H.spc      1 <1>        0.000
     19 H           1.9354   -1.1002   -1.3618 H.spc      1 <1>        0.000
     20 H           0.2923   -1.0385   -3.1204 H.spc      1 <1>        0.000
     21 H          -0.9827   -0.9955   -1.7564 H.spc      1 <1>        0.000
     22 H           0.5695   -1.6663    0.5182 H.spc      1 <1>        0.000
     23 H           1.6366   -0.1397    0.7130 H.spc      1 <1>        0.000
     24 H          -0.0812   -3.1035   -1.0175 H.spc      1 <1>        0.000
     25 H           0.8806   -3.1481   -2.6077 H.spc      1 <1>        0.000
     26 H          -1.0246    0.4089   -0.0212 H.spc      1 <1>        0.000
     27 H          -0.8611   -0.5338    1.5831 H.spc      1 <1>        0.000
     28 H          -1.8246    1.6456    4.2538 H.spc      1 <1>        0.000
     29 H          -1.3867   -2.9282   -3.6395 H.spc      1 <1>        0.000
     30 H          -0.8506   -4.5443   -2.9174 H.spc      1 <1>        0.000
     31 H           0.2305    2.0863    0.7961 H.spc      1 <1>        0.000
     32 H           0.4693    1.1185    2.4170 H.spc      1 <1>        0.000
     33 H          -0.7849    3.0351    2.7528 H.spc      1 <1>        0.000
     34 H          -1.9373    2.5047    1.4033 H.spc      1 <1>        0.000
     35 H          -4.8075   -2.8549   -1.3998 H.spc      1 <1>        0.000
     36 H          -3.9177   -3.3262    0.1984 H.spc      1 <1>        0.000
     37 H          -3.5854    0.2788    3.9005 H.spc      1 <1>        0.000
     38 H          -4.6068   -0.5715   -0.6198 H.spc      1 <1>        0.000
     39 H          -5.7115   -1.6807    0.3707 H.spc      1 <1>        0.000
     40 H          -4.1557    1.0998    1.1510 H.spc      1 <1>        0.000
     41 H          -3.6636   -1.7505    1.9836 H.spc      1 <1>        0.000
@<TRIPOS>BOND
     1    5    8 1  
     2    1    2 1  
     3    7    9 1  
     4    3    5 1  
     5    2    4 1  
     6    4    7 1  
     7    1    3 1  
     8   16   17 2  
     9   15   17 1  
    10   14   16 1  
    11   13   15 1  
    12    6   14 2  
    13   11   13 1  
    14   10    6 1  
    15    9   12 2  
    16    9   11 1  
    17    8   10 1  
    18    1   18 1  
    19    1   19 1  
    20    2   20 1  
    21    2   21 1  
    22    3   22 1  
    23    3   23 1  
    24    4   24 1  
    25    4   25 1  
    26    5   26 1  
    27    5   27 1  
    28    6   28 1  
    29    7   29 1  
    30    7   30 1  
    31    8   31 1  
    32    8   32 1  
    33   10   33 1  
    34   10   34 1  
    35   13   35 1  
    36   13   36 1  
    37   14   37 1  
    38   15   38 1  
    39   15   39 1  
    40   16   40 1  
    41   17   41 1  
# Name:          frag5-654-73/138278 -- energy: -8.518003
# Creation time: Sat Jun  5 12:53:51 2010


@<TRIPOS>MOLECULE
frag5-654-73/138278 -- energy: -8.518003
   41    41     1     1     1
SMALL
USER_CHARGES


@<TRIPOS>ATOM
      1 C28        -0.1857   -1.1357   -0.7112 C.3        1 <1>        0.000
      2 C32         0.0861   -2.6126   -0.4743 C.3        1 <1>        0.000
      3 C33         0.1070   -0.1079    0.3715 C.3        1 <1>        0.000
      4 C36        -0.1223   -3.5884   -1.6285 C.3        1 <1>        0.000
      5 C37        -0.4595    1.2858    0.1384 C.3        1 <1>        0.000
      6 C54        -1.5417    1.1421    3.1386 C.2        1 <1>        0.000
      7 C40        -1.1323   -3.2628   -2.7115 C.3        1 <1>        0.000
      8 C42        -0.3472    2.3757    1.1978 C.3        1 <1>        0.000
      9 C46        -2.5689   -3.0656   -2.3070 C.2        1 <1>        0.000
     10 C48        -1.3150    2.4091    2.3806 C.3        1 <1>        0.000
     11 O11        -2.9230   -3.3319   -1.0381 O.3        1 <1>        0.000
     12 O12        -3.3649   -2.6698   -3.1521 O.2        1 <1>        0.000
     13 C55        -4.2143   -2.9529   -0.6131 C.3        1 <1>        0.000
     14 C56        -2.3708    0.1392    2.8677 C.2        1 <1>        0.000
     15 C58        -4.3952   -1.5618   -0.0205 C.3        1 <1>        0.000
     16 C60        -3.2873   -0.1101    1.7953 C.2        1 <1>        0.000
     17 C62        -3.4756   -1.2450    1.1066 C.2        1 <1>        0.000
     18 H          -1.2661   -1.0817   -0.8448 H.spc      1 <1>        0.000
     19 H           0.4901   -0.8673   -1.5232 H.spc      1 <1>        0.000
     20 H          -0.6332   -2.9152    0.2867 H.spc      1 <1>        0.000
     21 H           1.1492   -2.6718   -0.2409 H.spc      1 <1>        0.000
     22 H          -0.3615   -0.4806    1.2824 H.spc      1 <1>        0.000
     23 H           1.1908    0.0034    0.4033 H.spc      1 <1>        0.000
     24 H          -0.5047   -4.4943   -1.1581 H.spc      1 <1>        0.000
     25 H           0.8373   -3.6137   -2.1449 H.spc      1 <1>        0.000
     26 H           0.1280    1.6704   -0.6953 H.spc      1 <1>        0.000
     27 H          -1.5329    1.1196    0.0475 H.spc      1 <1>        0.000
     28 H          -0.9426    1.0232    4.0414 H.spc      1 <1>        0.000
     29 H          -0.8148   -2.3044   -3.1224 H.spc      1 <1>        0.000
     30 H          -1.1357   -4.1299   -3.3720 H.spc      1 <1>        0.000
     31 H          -0.5526    3.2991    0.6563 H.spc      1 <1>        0.000
     32 H           0.6286    2.2080    1.6536 H.spc      1 <1>        0.000
     33 H          -0.8706    3.0991    3.0979 H.spc      1 <1>        0.000
     34 H          -2.2840    2.6674    1.9536 H.spc      1 <1>        0.000
     35 H          -4.8290   -2.9649   -1.5131 H.spc      1 <1>        0.000
     36 H          -4.4674   -3.6439    0.1910 H.spc      1 <1>        0.000
     37 H          -2.3489   -0.6555    3.6134 H.spc      1 <1>        0.000
     38 H          -4.1828   -0.8469   -0.8154 H.spc      1 <1>        0.000
     39 H          -5.4104   -1.5129    0.3734 H.spc      1 <1>        0.000
     40 H          -3.9130    0.7325    1.5009 H.spc      1 <1>        0.000
     41 H          -2.8487   -2.0773    1.4264 H.spc      1 <1>        0.000
@<TRIPOS>BOND
     1    5    8 1  
     2    1    2 1  
     3    7    9 1  
     4    3    5 1  
     5    2    4 1  
     6    4    7 1  
     7    1    3 1  
     8   16   17 2  
     9   15   17 1  
    10   14   16 1  
    11   13   15 1  
    12    6   14 2  
    13   11   13 1  
    14   10    6 1  
    15    9   12 2  
    16    9   11 1  
    17    8   10 1  
    18    1   18 1  
    19    1   19 1  
    20    2   20 1  
    21    2   21 1  
    22    3   22 1  
    23    3   23 1  
    24    4   24 1  
    25    4   25 1  
    26    5   26 1  
    27    5   27 1  
    28    6   28 1  
    29    7   29 1  
    30    7   30 1  
    31    8   31 1  
    32    8   32 1  
    33   10   33 1  
    34   10   34 1  
    35   13   35 1  
    36   13   36 1  
    37   14   37 1  
    38   15   38 1  
    39   15   39 1  
    40   16   40 1  
    41   17   41 1  
# Name:          frag5-654-73/138278 -- energy: -8.430708
# Creation time: Sat Jun  5 12:53:51 2010


@<TRIPOS>MOLECULE
frag5-654-73/138278 -- energy: -8.430708
   41    41     1     1     1
SMALL
USER_CHARGES


@<TRIPOS>ATOM
      1 C28         0.9443   -1.5106   -0.1201 C.3        1 <1>        0.000
      2 C32         0.4315   -2.8655   -0.6024 C.3        1 <1>        0.000
      3 C33        -0.1175   -0.5172    0.2065 C.3        1 <1>        0.000
      4 C36         0.0650   -3.0023   -2.0599 C.3        1 <1>        0.000
      5 C37         0.0539    0.9382   -0.0312 C.3        1 <1>        0.000
      6 C54        -1.8952    1.2866    2.8416 C.2        1 <1>        0.000
      7 C40        -1.1799   -2.3560   -2.6131 C.3        1 <1>        0.000
      8 C42        -1.1439    1.7822    0.3801 C.3        1 <1>        0.000
      9 C46        -2.4731   -2.6526   -1.9149 C.2        1 <1>        0.000
     10 C48        -1.2128    2.1689    1.8537 C.3        1 <1>        0.000
     11 O11        -3.2439   -1.6146   -1.5355 O.3        1 <1>        0.000
     12 O12        -2.7885   -3.8260   -1.7229 O.2        1 <1>        0.000
     13 C55        -4.4624   -1.9146   -0.9003 C.3        1 <1>        0.000
     14 C56        -2.7922    0.2937    2.7623 C.2        1 <1>        0.000
     15 C58        -4.4536   -2.4688    0.5185 C.3        1 <1>        0.000
     16 C60        -3.5141   -0.3615    1.7213 C.2        1 <1>        0.000
     17 C62        -3.7282   -1.6725    1.5566 C.2        1 <1>        0.000
     18 H           1.5319   -1.0876   -0.9349 H.spc      1 <1>        0.000
     19 H           1.4993   -1.6929    0.8001 H.spc      1 <1>        0.000
     20 H          -0.4938   -3.0382   -0.0528 H.spc      1 <1>        0.000
     21 H           1.2554   -3.5612   -0.4436 H.spc      1 <1>        0.000
     22 H          -0.9326   -0.7886   -0.4643 H.spc      1 <1>        0.000
     23 H          -0.2048   -0.5877    1.2907 H.spc      1 <1>        0.000
     24 H          -0.1129   -4.0700   -2.1881 H.spc      1 <1>        0.000
     25 H           0.8781   -2.5006   -2.5846 H.spc      1 <1>        0.000
     26 H           0.9005    1.2653    0.5723 H.spc      1 <1>        0.000
     27 H           0.1910    1.0751   -1.1038 H.spc      1 <1>        0.000
     28 H          -1.5950    1.4978    3.8680 H.spc      1 <1>        0.000
     29 H          -1.0270   -1.2818   -2.5096 H.spc      1 <1>        0.000
     30 H          -1.2926   -2.7474   -3.6241 H.spc      1 <1>        0.000
     31 H          -2.0284    1.1774    0.1801 H.spc      1 <1>        0.000
     32 H          -1.0680    2.7151   -0.1785 H.spc      1 <1>        0.000
     33 H          -0.1717    2.1750    2.1765 H.spc      1 <1>        0.000
     34 H          -1.8039    3.0847    1.8614 H.spc      1 <1>        0.000
     35 H          -4.9749   -0.9560   -0.8192 H.spc      1 <1>        0.000
     36 H          -4.9005   -2.7091   -1.5044 H.spc      1 <1>        0.000
     37 H          -3.0306   -0.1177    3.7431 H.spc      1 <1>        0.000
     38 H          -5.4963   -2.4896    0.8354 H.spc      1 <1>        0.000
     39 H          -3.9331   -3.4248    0.4605 H.spc      1 <1>        0.000
     40 H          -3.9474    0.2893    0.9618 H.spc      1 <1>        0.000
     41 H          -3.2825   -2.2858    2.3397 H.spc      1 <1>        0.000
@<TRIPOS>BOND
     1    5    8 1  
     2    1    2 1  
     3    7    9 1  
     4    3    5 1  
     5    2    4 1  
     6    4    7 1  
     7    1    3 1  
     8   16   17 2  
     9   15   17 1  
    10   14   16 1  
    11   13   15 1  
    12    6   14 2  
    13   11   13 1  
    14   10    6 1  
    15    9   12 2  
    16    9   11 1  
    17    8   10 1  
    18    1   18 1  
    19    1   19 1  
    20    2   20 1  
    21    2   21 1  
    22    3   22 1  
    23    3   23 1  
    24    4   24 1  
    25    4   25 1  
    26    5   26 1  
    27    5   27 1  
    28    6   28 1  
    29    7   29 1  
    30    7   30 1  
    31    8   31 1  
    32    8   32 1  
    33   10   33 1  
    34   10   34 1  
    35   13   35 1  
    36   13   36 1  
    37   14   37 1  
    38   15   38 1  
    39   15   39 1  
    40   16   40 1  
    41   17   41 1  
# Name:          frag5-654-73/138278 -- energy: -9.210196
# Creation time: Sat Jun  5 12:53:51 2010


@<TRIPOS>MOLECULE
frag5-654-73/138278 -- energy: -9.210196
   41    41     1     1     1
SMALL
USER_CHARGES


@<TRIPOS>ATOM
      1 C28         0.8941   -1.1245   -0.3435 C.3        1 <1>        0.000
      2 C32         0.6988   -1.5468   -1.7840 C.3        1 <1>        0.000
      3 C33        -0.0813   -1.6429    0.6879 C.3        1 <1>        0.000
      4 C36        -0.5966   -1.1658   -2.4747 C.3        1 <1>        0.000
      5 C37        -0.3371   -0.9106    1.9915 C.3        1 <1>        0.000
      6 C54        -2.1153    1.9940    1.6770 C.2        1 <1>        0.000
      7 C40        -1.5644   -2.2388   -2.9040 C.3        1 <1>        0.000
      8 C42        -0.0499    0.5772    2.1335 C.3        1 <1>        0.000
      9 C46        -2.2673   -2.9505   -1.7905 C.2        1 <1>        0.000
     10 C48        -0.7343    1.6205    1.2645 C.3        1 <1>        0.000
     11 O11        -3.3307   -2.3556   -1.2240 O.3        1 <1>        0.000
     12 O12        -1.8246   -4.0364   -1.4127 O.2        1 <1>        0.000
     13 C55        -3.8185   -2.9111   -0.0240 C.3        1 <1>        0.000
     14 C56        -3.2588    1.3102    1.5730 C.2        1 <1>        0.000
     15 C58        -4.9242   -2.1499    0.7008 C.3        1 <1>        0.000
     16 C60        -3.5735    0.0228    1.0433 C.2        1 <1>        0.000
     17 C62        -4.6272   -0.7844    1.2263 C.2        1 <1>        0.000
     18 H           0.7688   -0.0417   -0.3407 H.spc      1 <1>        0.000
     19 H           1.8636   -1.5293   -0.0530 H.spc      1 <1>        0.000
     20 H           0.7051   -2.6366   -1.7669 H.spc      1 <1>        0.000
     21 H           1.4828   -1.0348   -2.3419 H.spc      1 <1>        0.000
     22 H          -1.0428   -1.5989    0.1763 H.spc      1 <1>        0.000
     23 H           0.3605   -2.5870    1.0067 H.spc      1 <1>        0.000
     24 H          -0.2812   -0.6945   -3.4055 H.spc      1 <1>        0.000
     25 H          -1.1432   -0.5874   -1.7298 H.spc      1 <1>        0.000
     26 H          -1.4166   -0.9823    2.1242 H.spc      1 <1>        0.000
     27 H           0.3529   -1.3783    2.6938 H.spc      1 <1>        0.000
     28 H          -2.2081    2.9786    2.1352 H.spc      1 <1>        0.000
     29 H          -2.3361   -1.7445   -3.4942 H.spc      1 <1>        0.000
     30 H          -0.9807   -2.9907   -3.4351 H.spc      1 <1>        0.000
     31 H           1.0002    0.6618    1.8539 H.spc      1 <1>        0.000
     32 H          -0.4037    0.8103    3.1378 H.spc      1 <1>        0.000
     33 H          -0.1333    2.5269    1.3371 H.spc      1 <1>        0.000
     34 H          -0.8149    1.1885    0.2670 H.spc      1 <1>        0.000
     35 H          -4.2533   -3.8720   -0.2991 H.spc      1 <1>        0.000
     36 H          -2.9709   -2.9236    0.6612 H.spc      1 <1>        0.000
     37 H          -4.1230    1.8413    1.9721 H.spc      1 <1>        0.000
     38 H          -5.7042   -2.0030   -0.0463 H.spc      1 <1>        0.000
     39 H          -5.1510   -2.7499    1.5821 H.spc      1 <1>        0.000
     40 H          -2.8187   -0.3768    0.3661 H.spc      1 <1>        0.000
     41 H          -5.4030   -0.3721    1.8715 H.spc      1 <1>        0.000
@<TRIPOS>BOND
     1    5    8 1  
     2    1    2 1  
     3    7    9 1  
     4    3    5 1  
     5    2    4 1  
     6    4    7 1  
     7    1    3 1  
     8   16   17 2  
     9   15   17 1  
    10   14   16 1  
    11   13   15 1  
    12    6   14 2  
    13   11   13 1  
    14   10    6 1  
    15    9   12 2  
    16    9   11 1  
    17    8   10 1  
    18    1   18 1  
    19    1   19 1  
    20    2   20 1  
    21    2   21 1  
    22    3   22 1  
    23    3   23 1  
    24    4   24 1  
    25    4   25 1  
    26    5   26 1  
    27    5   27 1  
    28    6   28 1  
    29    7   29 1  
    30    7   30 1  
    31    8   31 1  
    32    8   32 1  
    33   10   33 1  
    34   10   34 1  
    35   13   35 1  
    36   13   36 1  
    37   14   37 1  
    38   15   38 1  
    39   15   39 1  
    40   16   40 1  
    41   17   41 1  
# Name:          frag5-654-73/138278 -- energy: -6.655114
# Creation time: Sat Jun  5 12:53:51 2010


@<TRIPOS>MOLECULE
frag5-654-73/138278 -- energy: -6.655114
   41    41     1     1     1
SMALL
USER_CHARGES


@<TRIPOS>ATOM
      1 C28         0.1646   -0.4250   -1.0103 C.3        1 <1>        0.000
      2 C32         0.3202   -1.8902   -1.3902 C.3        1 <1>        0.000
      3 C33         1.1903    0.1456   -0.0331 C.3        1 <1>        0.000
      4 C36        -0.3861   -2.3696   -2.6396 C.3        1 <1>        0.000
      5 C37         1.0064    1.5118    0.6470 C.3        1 <1>        0.000
      6 C54        -2.1197    1.0978    2.9927 C.2        1 <1>        0.000
      7 C40        -1.2439   -3.6096   -2.5481 C.3        1 <1>        0.000
      8 C42        -0.2389    1.8491    1.4407 C.3        1 <1>        0.000
      9 C46        -2.4354   -3.6854   -1.6396 C.2        1 <1>        0.000
     10 C48        -0.8929    0.7293    2.2191 C.3        1 <1>        0.000
     11 O11        -3.0151   -2.5883   -1.1448 O.3        1 <1>        0.000
     12 O12        -2.8893   -4.8100   -1.4086 O.2        1 <1>        0.000
     13 C55        -4.2417   -2.8041   -0.4716 C.3        1 <1>        0.000
     14 C56        -3.3760    0.8469    2.6165 C.2        1 <1>        0.000
     15 C58        -4.9744   -1.5576   -0.0094 C.3        1 <1>        0.000
     16 C60        -3.9111    0.2334    1.4527 C.2        1 <1>        0.000
     17 C62        -4.4676   -0.9666    1.2668 C.2        1 <1>        0.000
     18 H          -0.8009   -0.3463   -0.5106 H.spc      1 <1>        0.000
     19 H           0.2866    0.1386   -1.9353 H.spc      1 <1>        0.000
     20 H          -0.1231   -2.4538   -0.5692 H.spc      1 <1>        0.000
     21 H           1.3837   -2.0309   -1.5833 H.spc      1 <1>        0.000
     22 H           1.1657   -0.5574    0.7995 H.spc      1 <1>        0.000
     23 H           2.0773    0.2871   -0.6505 H.spc      1 <1>        0.000
     24 H           0.4105   -2.6238   -3.3388 H.spc      1 <1>        0.000
     25 H          -1.0725   -1.5660   -2.9064 H.spc      1 <1>        0.000
     26 H           1.8012    1.5371    1.3925 H.spc      1 <1>        0.000
     27 H           0.9773    2.2126   -0.1873 H.spc      1 <1>        0.000
     28 H          -1.9758    1.6138    3.9420 H.spc      1 <1>        0.000
     29 H          -1.6755   -3.6972   -3.5452 H.spc      1 <1>        0.000
     30 H          -0.5656   -4.3617   -2.1451 H.spc      1 <1>        0.000
     31 H          -0.9785    2.1678    0.7062 H.spc      1 <1>        0.000
     32 H           0.0759    2.5802    2.1854 H.spc      1 <1>        0.000
     33 H          -1.2057   -0.0124    1.4842 H.spc      1 <1>        0.000
     34 H          -0.1578    0.3956    2.9515 H.spc      1 <1>        0.000
     35 H          -4.8999   -3.2995   -1.1854 H.spc      1 <1>        0.000
     36 H          -4.0017   -3.3700    0.4286 H.spc      1 <1>        0.000
     37 H          -4.1290    1.1726    3.3341 H.spc      1 <1>        0.000
     38 H          -4.8341   -0.8036   -0.7840 H.spc      1 <1>        0.000
     39 H          -6.0103   -1.8474    0.1665 H.spc      1 <1>        0.000
     40 H          -3.8585    0.8491    0.5548 H.spc      1 <1>        0.000
     41 H          -4.5640   -1.5916    2.1546 H.spc      1 <1>        0.000
@<TRIPOS>BOND
     1    5    8 1  
     2    1    2 1  
     3    7    9 1  
     4    3    5 1  
     5    2    4 1  
     6    4    7 1  
     7    1    3 1  
     8   16   17 2  
     9   15   17 1  
    10   14   16 1  
    11   13   15 1  
    12    6   14 2  
    13   11   13 1  
    14   10    6 1  
    15    9   12 2  
    16    9   11 1  
    17    8   10 1  
    18    1   18 1  
    19    1   19 1  
    20    2   20 1  
    21    2   21 1  
    22    3   22 1  
    23    3   23 1  
    24    4   24 1  
    25    4   25 1  
    26    5   26 1  
    27    5   27 1  
    28    6   28 1  
    29    7   29 1  
    30    7   30 1  
    31    8   31 1  
    32    8   32 1  
    33   10   33 1  
    34   10   34 1  
    35   13   35 1  
    36   13   36 1  
    37   14   37 1  
    38   15   38 1  
    39   15   39 1  
    40   16   40 1  
    41   17   41 1  
# Name:          frag5-654-73/138278 -- energy: -6.672649
# Creation time: Sat Jun  5 12:53:51 2010


@<TRIPOS>MOLECULE
frag5-654-73/138278 -- energy: -6.672649
   41    41     1     1     1
SMALL
USER_CHARGES


@<TRIPOS>ATOM
      1 C28         1.3021   -1.4433   -0.4120 C.3        1 <1>        0.000
      2 C32         0.3062   -2.4066   -1.0182 C.3        1 <1>        0.000
      3 C33         0.9743    0.0279   -0.2865 C.3        1 <1>        0.000
      4 C36        -0.4171   -2.0459   -2.2992 C.3        1 <1>        0.000
      5 C37        -0.2723    0.4925    0.4403 C.3        1 <1>        0.000
      6 C54        -2.1641    1.5509    3.0404 C.2        1 <1>        0.000
      7 C40        -1.4069   -3.0077   -2.9101 C.3        1 <1>        0.000
      8 C42        -0.1167    1.5364    1.5226 C.3        1 <1>        0.000
      9 C46        -2.6847   -3.2436   -2.1593 C.2        1 <1>        0.000
     10 C48        -1.3427    2.2720    2.0356 C.3        1 <1>        0.000
     11 O11        -2.6910   -3.1532   -0.8195 O.3        1 <1>        0.000
     12 O12        -3.6889   -3.5335   -2.8102 O.2        1 <1>        0.000
     13 C55        -3.9363   -3.1705   -0.1627 C.3        1 <1>        0.000
     14 C56        -3.1673    0.6828    2.8720 C.2        1 <1>        0.000
     15 C58        -4.5213   -1.8145    0.1995 C.3        1 <1>        0.000
     16 C60        -3.7870    0.1251    1.7230 C.2        1 <1>        0.000
     17 C62        -3.8969   -1.1612    1.3848 C.2        1 <1>        0.000
     18 H           2.1502   -1.4705   -1.0961 H.spc      1 <1>        0.000
     19 H           1.4080   -1.7821    0.6186 H.spc      1 <1>        0.000
     20 H          -0.4849   -2.4844   -0.2724 H.spc      1 <1>        0.000
     21 H           0.9000   -3.2826   -1.2791 H.spc      1 <1>        0.000
     22 H           1.7929    0.4305    0.3101 H.spc      1 <1>        0.000
     23 H           0.8158    0.3515   -1.3152 H.spc      1 <1>        0.000
     24 H           0.3752   -1.9642   -3.0433 H.spc      1 <1>        0.000
     25 H          -1.0150   -1.1735   -2.0357 H.spc      1 <1>        0.000
     26 H          -0.8948    0.9589   -0.3233 H.spc      1 <1>        0.000
     27 H          -0.6583   -0.3925    0.9461 H.spc      1 <1>        0.000
     28 H          -1.9093    1.7624    4.0789 H.spc      1 <1>        0.000
     29 H          -1.6999   -2.5663   -3.8627 H.spc      1 <1>        0.000
     30 H          -0.9006   -3.9724   -2.9440 H.spc      1 <1>        0.000
     31 H           0.5021    2.3120    1.0714 H.spc      1 <1>        0.000
     32 H           0.2564    0.9856    2.3860 H.spc      1 <1>        0.000
     33 H          -0.9746    3.1707    2.5304 H.spc      1 <1>        0.000
     34 H          -1.9875    2.4305    1.1712 H.spc      1 <1>        0.000
     35 H          -4.6403   -3.6311   -0.8558 H.spc      1 <1>        0.000
     36 H          -3.7770   -3.6954    0.7792 H.spc      1 <1>        0.000
     37 H          -3.5976    0.3312    3.8097 H.spc      1 <1>        0.000
     38 H          -4.3477   -1.1571   -0.6524 H.spc      1 <1>        0.000
     39 H          -5.5709   -1.9777    0.4442 H.spc      1 <1>        0.000
     40 H          -4.2297    0.8387    1.0281 H.spc      1 <1>        0.000
     41 H          -3.4530   -1.8543    2.0994 H.spc      1 <1>        0.000
@<TRIPOS>BOND
     1    5    8 1  
     2    1    2 1  
     3    7    9 1  
     4    3    5 1  
     5    2    4 1  
     6    4    7 1  
     7    1    3 1  
     8   16   17 2  
     9   15   17 1  
    10   14   16 1  
    11   13   15 1  
    12    6   14 2  
    13   11   13 1  
    14   10    6 1  
    15    9   12 2  
    16    9   11 1  
    17    8   10 1  
    18    1   18 1  
    19    1   19 1  
    20    2   20 1  
    21    2   21 1  
    22    3   22 1  
    23    3   23 1  
    24    4   24 1  
    25    4   25 1  
    26    5   26 1  
    27    5   27 1  
    28    6   28 1  
    29    7   29 1  
    30    7   30 1  
    31    8   31 1  
    32    8   32 1  
    33   10   33 1  
    34   10   34 1  
    35   13   35 1  
    36   13   36 1  
    37   14   37 1  
    38   15   38 1  
    39   15   39 1  
    40   16   40 1  
    41   17   41 1  
# Name:          frag5-654-73/138278 -- energy: -7.814418
# Creation time: Sat Jun  5 12:53:51 2010


@<TRIPOS>MOLECULE
frag5-654-73/138278 -- energy: -7.814418
   41    41     1     1     1
SMALL
USER_CHARGES


@<TRIPOS>ATOM
      1 C28         0.3765   -0.6765   -1.8968 C.3        1 <1>        0.000
      2 C32         0.8794   -2.0716   -1.6026 C.3        1 <1>        0.000
      3 C33        -0.1886    0.2198   -0.8152 C.3        1 <1>        0.000
      4 C36         0.0574   -3.0703   -0.8232 C.3        1 <1>        0.000
      5 C37         0.5981    0.5630    0.4316 C.3        1 <1>        0.000
      6 C54        -2.3261    1.3181    2.8433 C.2        1 <1>        0.000
      7 C40        -1.0921   -3.7927   -1.4770 C.3        1 <1>        0.000
      8 C42        -0.1152    1.3921    1.4848 C.3        1 <1>        0.000
      9 C46        -2.3249   -3.0248   -1.8278 C.2        1 <1>        0.000
     10 C48        -1.0856    0.6297    2.3752 C.3        1 <1>        0.000
     11 O11        -2.7527   -2.1050   -0.9578 O.3        1 <1>        0.000
     12 O12        -2.9395   -3.3085   -2.8574 O.2        1 <1>        0.000
     13 C55        -4.1448   -1.9458   -0.8110 C.3        1 <1>        0.000
     14 C56        -3.5879    1.0280    2.4886 C.2        1 <1>        0.000
     15 C58        -4.6457   -2.2355    0.5947 C.3        1 <1>        0.000
     16 C60        -4.0995    0.0628    1.5769 C.2        1 <1>        0.000
     17 C62        -4.1193   -1.2751    1.6140 C.2        1 <1>        0.000
     18 H          -0.4732   -0.8455   -2.5582 H.spc      1 <1>        0.000
     19 H           1.2705   -0.1469   -2.2261 H.spc      1 <1>        0.000
     20 H           1.7479   -1.9021   -0.9662 H.spc      1 <1>        0.000
     21 H           0.9668   -2.5260   -2.5895 H.spc      1 <1>        0.000
     22 H          -0.3097    1.1808   -1.3152 H.spc      1 <1>        0.000
     23 H          -1.0408   -0.3431   -0.4344 H.spc      1 <1>        0.000
     24 H          -0.4109   -2.4771   -0.0378 H.spc      1 <1>        0.000
     25 H           0.7639   -3.8618   -0.5732 H.spc      1 <1>        0.000
     26 H           0.8331   -0.3885    0.9085 H.spc      1 <1>        0.000
     27 H           1.4417    1.1665    0.0965 H.spc      1 <1>        0.000
     28 H          -2.1929    2.1411    3.5455 H.spc      1 <1>        0.000
     29 H          -0.6978   -4.1420   -2.4313 H.spc      1 <1>        0.000
     30 H          -1.4185   -4.5262   -0.7397 H.spc      1 <1>        0.000
     31 H          -0.7057    2.1340    0.9472 H.spc      1 <1>        0.000
     32 H           0.6584    1.7915    2.1407 H.spc      1 <1>        0.000
     33 H          -1.4374   -0.2008    1.7632 H.spc      1 <1>        0.000
     34 H          -0.5238    0.4118    3.2835 H.spc      1 <1>        0.000
     35 H          -4.3800   -0.9050   -1.0337 H.spc      1 <1>        0.000
     36 H          -4.6275   -2.6557   -1.4827 H.spc      1 <1>        0.000
     37 H          -4.3482    1.6336    2.9819 H.spc      1 <1>        0.000
     38 H          -5.7320   -2.1458    0.5846 H.spc      1 <1>        0.000
     39 H          -4.3021   -3.2326    0.8701 H.spc      1 <1>        0.000
     40 H          -4.5590    0.4908    0.6860 H.spc      1 <1>        0.000
     41 H          -3.6934   -1.7269    2.5099 H.spc      1 <1>        0.000
@<TRIPOS>BOND
     1    5    8 1  
     2    1    2 1  
     3    7    9 1  
     4    3    5 1  
     5    2    4 1  
     6    4    7 1  
     7    1    3 1  
     8   16   17 2  
     9   15   17 1  
    10   14   16 1  
    11   13   15 1  
    12    6   14 2  
    13   11   13 1  
    14   10    6 1  
    15    9   12 2  
    16    9   11 1  
    17    8   10 1  
    18    1   18 1  
    19    1   19 1  
    20    2   20 1  
    21    2   21 1  
    22    3   22 1  
    23    3   23 1  
    24    4   24 1  
    25    4   25 1  
    26    5   26 1  
    27    5   27 1  
    28    6   28 1  
    29    7   29 1  
    30    7   30 1  
    31    8   31 1  
    32    8   32 1  
    33   10   33 1  
    34   10   34 1  
    35   13   35 1  
    36   13   36 1  
    37   14   37 1  
    38   15   38 1  
    39   15   39 1  
    40   16   40 1  
    41   17   41 1  
# Name:          frag5-654-73/138278 -- energy: -5.735819
# Creation time: Sat Jun  5 12:53:51 2010


@<TRIPOS>MOLECULE
frag5-654-73/138278 -- energy: -5.735819
   41    41     1     1     1
SMALL
USER_CHARGES


@<TRIPOS>ATOM
      1 C28         1.0548   -0.9166   -1.3236 C.3        1 <1>        0.000
      2 C32         0.7203   -2.3519   -1.0132 C.3        1 <1>        0.000
      3 C33         1.0774    0.0906   -0.2049 C.3        1 <1>        0.000
      4 C36         0.0134   -3.1653   -2.0749 C.3        1 <1>        0.000
      5 C37        -0.1947    0.3789    0.5439 C.3        1 <1>        0.000
      6 C54        -1.9261    1.0051    3.0030 C.2        1 <1>        0.000
      7 C40        -1.3210   -3.7782   -1.7376 C.3        1 <1>        0.000
      8 C42        -0.3666    1.7513    1.1598 C.3        1 <1>        0.000
      9 C46        -2.4817   -2.8239   -1.7245 C.2        1 <1>        0.000
     10 C48        -1.5986    2.0382    1.9886 C.3        1 <1>        0.000
     11 O11        -3.6252   -3.2324   -1.1417 O.3        1 <1>        0.000
     12 O12        -2.3592   -1.7227   -2.2545 O.2        1 <1>        0.000
     13 C55        -4.7004   -2.3232   -1.1234 C.3        1 <1>        0.000
     14 C56        -2.8618    0.0484    2.9237 C.2        1 <1>        0.000
     15 C58        -5.0838   -1.6515    0.1866 C.3        1 <1>        0.000
     16 C60        -3.8322   -0.2656    1.9321 C.2        1 <1>        0.000
     17 C62        -4.0254   -1.3737    1.2009 C.2        1 <1>        0.000
     18 H           0.2566   -0.5808   -1.9855 H.spc      1 <1>        0.000
     19 H           2.0788   -0.9429   -1.6963 H.spc      1 <1>        0.000
     20 H           0.0273   -2.3109   -0.1729 H.spc      1 <1>        0.000
     21 H           1.6805   -2.8456   -0.8639 H.spc      1 <1>        0.000
     22 H           1.7514   -0.3326    0.5399 H.spc      1 <1>        0.000
     23 H           1.3417    1.0341   -0.6824 H.spc      1 <1>        0.000
     24 H           0.6733   -4.0094   -2.2749 H.spc      1 <1>        0.000
     25 H          -0.1905   -2.4638   -2.8839 H.spc      1 <1>        0.000
     26 H          -0.9899    0.2944   -0.1968 H.spc      1 <1>        0.000
     27 H          -0.1977   -0.3157    1.3839 H.spc      1 <1>        0.000
     28 H          -1.3368    1.0270    3.9197 H.spc      1 <1>        0.000
     29 H          -1.5312   -4.5143   -2.5135 H.spc      1 <1>        0.000
     30 H          -1.2343   -4.1777   -0.7272 H.spc      1 <1>        0.000
     31 H          -0.4362    2.4317    0.3111 H.spc      1 <1>        0.000
     32 H           0.4672    1.8522    1.8546 H.spc      1 <1>        0.000
     33 H          -1.4042    2.9628    2.5322 H.spc      1 <1>        0.000
     34 H          -2.4405    2.0790    1.2975 H.spc      1 <1>        0.000
     35 H          -4.3861   -1.5068   -1.7736 H.spc      1 <1>        0.000
     36 H          -5.5723   -2.9171   -1.3976 H.spc      1 <1>        0.000
     37 H          -2.8832   -0.6179    3.7860 H.spc      1 <1>        0.000
     38 H          -5.4570   -0.6691   -0.1028 H.spc      1 <1>        0.000
     39 H          -5.7585   -2.3555    0.6736 H.spc      1 <1>        0.000
     40 H          -4.5441    0.5350    1.7310 H.spc      1 <1>        0.000
     41 H          -3.3125   -2.1805    1.3709 H.spc      1 <1>        0.000
@<TRIPOS>BOND
     1    5    8 1  
     2    1    2 1  
     3    7    9 1  
     4    3    5 1  
     5    2    4 1  
     6    4    7 1  
     7    1    3 1  
     8   16   17 2  
     9   15   17 1  
    10   14   16 1  
    11   13   15 1  
    12    6   14 2  
    13   11   13 1  
    14   10    6 1  
    15    9   12 2  
    16    9   11 1  
    17    8   10 1  
    18    1   18 1  
    19    1   19 1  
    20    2   20 1  
    21    2   21 1  
    22    3   22 1  
    23    3   23 1  
    24    4   24 1  
    25    4   25 1  
    26    5   26 1  
    27    5   27 1  
    28    6   28 1  
    29    7   29 1  
    30    7   30 1  
    31    8   31 1  
    32    8   32 1  
    33   10   33 1  
    34   10   34 1  
    35   13   35 1  
    36   13   36 1  
    37   14   37 1  
    38   15   38 1  
    39   15   39 1  
    40   16   40 1  
    41   17   41 1  
# Name:          frag5-654-73/138278 -- energy: -7.937423
# Creation time: Sat Jun  5 12:53:51 2010


@<TRIPOS>MOLECULE
frag5-654-73/138278 -- energy: -7.937423
   41    41     1     1     1
SMALL
USER_CHARGES


@<TRIPOS>ATOM
      1 C28         0.9283   -0.5526   -0.6663 C.3        1 <1>        0.000
      2 C32         0.8432   -1.5115   -1.8313 C.3        1 <1>        0.000
      3 C33         0.4863   -0.9687    0.7059 C.3        1 <1>        0.000
      4 C36        -0.4891   -1.9848   -2.3822 C.3        1 <1>        0.000
      5 C37         0.5833   -0.0230    1.8624 C.3        1 <1>        0.000
      6 C54        -2.2974    1.7754    2.0007 C.2        1 <1>        0.000
      7 C40        -1.2609   -2.9689   -1.5570 C.3        1 <1>        0.000
      8 C42         0.1888    1.4261    1.6756 C.3        1 <1>        0.000
      9 C46        -2.7322   -3.1423   -1.8020 C.2        1 <1>        0.000
     10 C48        -1.1552    1.7636    1.0437 C.3        1 <1>        0.000
     11 O11        -3.5179   -2.0814   -1.5230 O.3        1 <1>        0.000
     12 O12        -3.1865   -4.2353   -2.1426 O.2        1 <1>        0.000
     13 C55        -4.6435   -2.3863   -0.7231 C.3        1 <1>        0.000
     14 C56        -3.3318    0.9239    2.0690 C.2        1 <1>        0.000
     15 C58        -4.3172   -2.6494    0.7472 C.3        1 <1>        0.000
     16 C60        -3.6842   -0.2028    1.2709 C.2        1 <1>        0.000
     17 C62        -3.9247   -1.4746    1.5924 C.2        1 <1>        0.000
     18 H           0.2431    0.2518   -0.9337 H.spc      1 <1>        0.000
     19 H           1.9960   -0.3632   -0.5555 H.spc      1 <1>        0.000
     20 H           1.3023   -2.4231   -1.4488 H.spc      1 <1>        0.000
     21 H           1.2797   -0.9515   -2.6583 H.spc      1 <1>        0.000
     22 H          -0.5835   -1.1476    0.5978 H.spc      1 <1>        0.000
     23 H           1.1644   -1.7806    0.9688 H.spc      1 <1>        0.000
     24 H          -0.2577   -2.4983   -3.3154 H.spc      1 <1>        0.000
     25 H          -1.1160   -1.0954   -2.4450 H.spc      1 <1>        0.000
     26 H          -0.1240   -0.4098    2.5960 H.spc      1 <1>        0.000
     27 H           1.6454    0.0087    2.1054 H.spc      1 <1>        0.000
     28 H          -2.2917    2.5775    2.7387 H.spc      1 <1>        0.000
     29 H          -0.8232   -3.9375   -1.7987 H.spc      1 <1>        0.000
     30 H          -1.1920   -2.5904   -0.5372 H.spc      1 <1>        0.000
     31 H           0.9283    1.8263    0.9820 H.spc      1 <1>        0.000
     32 H           0.1271    1.8280    2.6869 H.spc      1 <1>        0.000
     33 H          -1.0721    2.7691    0.6312 H.spc      1 <1>        0.000
     34 H          -1.3647    0.9910    0.3039 H.spc      1 <1>        0.000
     35 H          -5.3041   -1.5199   -0.7551 H.spc      1 <1>        0.000
     36 H          -5.0831   -3.3001   -1.1227 H.spc      1 <1>        0.000
     37 H          -4.0283    1.1313    2.8814 H.spc      1 <1>        0.000
     38 H          -5.2381   -3.0319    1.1874 H.spc      1 <1>        0.000
     39 H          -3.4490   -3.3084    0.7409 H.spc      1 <1>        0.000
     40 H          -3.7732    0.0137    0.2063 H.spc      1 <1>        0.000
     41 H          -3.8173   -1.6990    2.6536 H.spc      1 <1>        0.000
@<TRIPOS>BOND
     1    5    8 1  
     2    1    2 1  
     3    7    9 1  
     4    3    5 1  
     5    2    4 1  
     6    4    7 1  
     7    1    3 1  
     8   16   17 2  
     9   15   17 1  
    10   14   16 1  
    11   13   15 1  
    12    6   14 2  
    13   11   13 1  
    14   10    6 1  
    15    9   12 2  
    16    9   11 1  
    17    8   10 1  
    18    1   18 1  
    19    1   19 1  
    20    2   20 1  
    21    2   21 1  
    22    3   22 1  
    23    3   23 1  
    24    4   24 1  
    25    4   25 1  
    26    5   26 1  
    27    5   27 1  
    28    6   28 1  
    29    7   29 1  
    30    7   30 1  
    31    8   31 1  
    32    8   32 1  
    33   10   33 1  
    34   10   34 1  
    35   13   35 1  
    36   13   36 1  
    37   14   37 1  
    38   15   38 1  
    39   15   39 1  
    40   16   40 1  
    41   17   41 1  
# Name:          frag5-654-73/138278 -- energy: -6.576652
# Creation time: Sat Jun  5 12:53:51 2010


@<TRIPOS>MOLECULE
frag5-654-73/138278 -- energy: -6.576652
   41    41     1     1     1
SMALL
USER_CHARGES


@<TRIPOS>ATOM
      1 C28         1.2936   -1.1426   -0.8022 C.3        1 <1>        0.000
      2 C32         0.6570   -2.3329   -1.4889 C.3        1 <1>        0.000
      3 C33         0.3927   -0.1205   -0.1376 C.3        1 <1>        0.000
      4 C36        -0.3102   -2.0772   -2.6242 C.3        1 <1>        0.000
      5 C37         0.1609   -0.2020    1.3545 C.3        1 <1>        0.000
      6 C54        -2.4078    1.8373    2.5778 C.2        1 <1>        0.000
      7 C40        -1.4568   -3.0119   -2.9026 C.3        1 <1>        0.000
      8 C42        -0.0380    1.1080    2.0822 C.3        1 <1>        0.000
      9 C46        -2.6266   -3.0516   -1.9604 C.2        1 <1>        0.000
     10 C48        -1.2116    2.0193    1.7210 C.3        1 <1>        0.000
     11 O11        -2.4507   -3.0305   -0.6268 O.3        1 <1>        0.000
     12 O12        -3.7459   -3.1436   -2.4738 O.2        1 <1>        0.000
     13 C55        -3.6268   -3.2104    0.1411 C.3        1 <1>        0.000
     14 C56        -3.4639    1.0457    2.3996 C.2        1 <1>        0.000
     15 C58        -4.6036   -2.0451    0.3206 C.3        1 <1>        0.000
     16 C60        -3.8073    0.1583    1.3453 C.2        1 <1>        0.000
     17 C62        -4.2655   -1.0928    1.4147 C.2        1 <1>        0.000
     18 H           1.8051   -0.5972   -1.5953 H.spc      1 <1>        0.000
     19 H           1.8881   -1.5662    0.0073 H.spc      1 <1>        0.000
     20 H           0.0668   -2.8261   -0.7166 H.spc      1 <1>        0.000
     21 H           1.4857   -2.8805   -1.9377 H.spc      1 <1>        0.000
     22 H           0.8939    0.8352   -0.2907 H.spc      1 <1>        0.000
     23 H          -0.5892   -0.2826   -0.5822 H.spc      1 <1>        0.000
     24 H           0.3100   -2.1513   -3.5175 H.spc      1 <1>        0.000
     25 H          -0.7969   -1.1421   -2.3471 H.spc      1 <1>        0.000
     26 H          -0.7653   -0.7618    1.4847 H.spc      1 <1>        0.000
     27 H           1.0634   -0.6455    1.7751 H.spc      1 <1>        0.000
     28 H          -2.4255    2.4393    3.4863 H.spc      1 <1>        0.000
     29 H          -1.8746   -2.6627   -3.8469 H.spc      1 <1>        0.000
     30 H          -1.0207   -4.0091   -2.8434 H.spc      1 <1>        0.000
     31 H           0.8464    1.6937    1.8314 H.spc      1 <1>        0.000
     32 H          -0.2292    0.8173    3.1152 H.spc      1 <1>        0.000
     33 H          -0.8738    3.0470    1.8541 H.spc      1 <1>        0.000
     34 H          -1.5065    1.7749    0.7005 H.spc      1 <1>        0.000
     35 H          -4.1963   -3.9645   -0.4021 H.spc      1 <1>        0.000
     36 H          -3.2672   -3.4243    1.1476 H.spc      1 <1>        0.000
     37 H          -4.1951    1.0861    3.2069 H.spc      1 <1>        0.000
     38 H          -4.5817   -1.4741   -0.6076 H.spc      1 <1>        0.000
     39 H          -5.5684   -2.4835    0.5759 H.spc      1 <1>        0.000
     40 H          -3.6785    0.5550    0.3382 H.spc      1 <1>        0.000
     41 H          -4.4149   -1.4757    2.4242 H.spc      1 <1>        0.000
@<TRIPOS>BOND
     1    5    8 1  
     2    1    2 1  
     3    7    9 1  
     4    3    5 1  
     5    2    4 1  
     6    4    7 1  
     7    1    3 1  
     8   16   17 2  
     9   15   17 1  
    10   14   16 1  
    11   13   15 1  
    12    6   14 2  
    13   11   13 1  
    14   10    6 1  
    15    9   12 2  
    16    9   11 1  
    17    8   10 1  
    18    1   18 1  
    19    1   19 1  
    20    2   20 1  
    21    2   21 1  
    22    3   22 1  
    23    3   23 1  
    24    4   24 1  
    25    4   25 1  
    26    5   26 1  
    27    5   27 1  
    28    6   28 1  
    29    7   29 1  
    30    7   30 1  
    31    8   31 1  
    32    8   32 1  
    33   10   33 1  
    34   10   34 1  
    35   13   35 1  
    36   13   36 1  
    37   14   37 1  
    38   15   38 1  
    39   15   39 1  
    40   16   40 1  
    41   17   41 1  
# Name:          frag5-654-73/138278 -- energy: -5.992626
# Creation time: Sat Jun  5 12:53:51 2010


@<TRIPOS>MOLECULE
frag5-654-73/138278 -- energy: -5.992626
   41    41     1     1     1
SMALL
USER_CHARGES


@<TRIPOS>ATOM
      1 C28         0.9343   -0.8226   -1.5416 C.3        1 <1>        0.000
      2 C32         1.2249   -2.2626   -1.9210 C.3        1 <1>        0.000
      3 C33         0.5114   -0.5306   -0.1098 C.3        1 <1>        0.000
      4 C36         0.1184   -3.2986   -1.9227 C.3        1 <1>        0.000
      5 C37         0.1770    0.9137    0.1765 C.3        1 <1>        0.000
      6 C54        -2.1570    0.9599    3.0151 C.2        1 <1>        0.000
      7 C40        -1.2586   -2.9156   -2.4385 C.3        1 <1>        0.000
      8 C42        -0.1143    1.3422    1.5974 C.3        1 <1>        0.000
      9 C46        -2.3373   -2.7281   -1.3871 C.2        1 <1>        0.000
     10 C48        -1.5010    1.7843    1.9697 C.3        1 <1>        0.000
     11 O11        -3.5180   -2.2306   -1.8181 O.3        1 <1>        0.000
     12 O12        -2.1538   -3.0732   -0.2214 O.2        1 <1>        0.000
     13 C55        -4.6529   -2.5390   -1.0414 C.3        1 <1>        0.000
     14 C56        -3.2275    0.1679    2.9243 C.2        1 <1>        0.000
     15 C58        -5.1794   -1.6093    0.0385 C.3        1 <1>        0.000
     16 C60        -4.0942   -0.1384    1.8281 C.2        1 <1>        0.000
     17 C62        -4.2827   -1.3120    1.1924 C.2        1 <1>        0.000
     18 H           0.0858   -0.5273   -2.1589 H.spc      1 <1>        0.000
     19 H           1.8770   -0.2926   -1.6777 H.spc      1 <1>        0.000
     20 H           1.9140   -2.6084   -1.1505 H.spc      1 <1>        0.000
     21 H           1.5403   -2.2063   -2.9629 H.spc      1 <1>        0.000
     22 H          -0.3965   -1.1054    0.0730 H.spc      1 <1>        0.000
     23 H           1.3577   -0.7892    0.5266 H.spc      1 <1>        0.000
     24 H          -0.0362   -3.5422   -0.8716 H.spc      1 <1>        0.000
     25 H           0.4651   -4.0747   -2.6050 H.spc      1 <1>        0.000
     26 H           1.0748    1.4661   -0.1008 H.spc      1 <1>        0.000
     27 H          -0.7523    1.0951   -0.3635 H.spc      1 <1>        0.000
     28 H          -1.6969    1.0084    4.0021 H.spc      1 <1>        0.000
     29 H          -1.1422   -1.9506   -2.9318 H.spc      1 <1>        0.000
     30 H          -1.5882   -3.7405   -3.0702 H.spc      1 <1>        0.000
     31 H           0.5073    2.2241    1.7524 H.spc      1 <1>        0.000
     32 H           0.0603    0.4484    2.1963 H.spc      1 <1>        0.000
     33 H          -1.4144    2.7941    2.3709 H.spc      1 <1>        0.000
     34 H          -2.1120    1.7007    1.0709 H.spc      1 <1>        0.000
     35 H          -5.4610   -2.5598   -1.7725 H.spc      1 <1>        0.000
     36 H          -4.3447   -3.4238   -0.4844 H.spc      1 <1>        0.000
     37 H          -3.4888   -0.3372    3.8542 H.spc      1 <1>        0.000
     38 H          -5.3468   -0.6523   -0.4558 H.spc      1 <1>        0.000
     39 H          -6.0452   -2.1165    0.4642 H.spc      1 <1>        0.000
     40 H          -4.6866    0.6963    1.4535 H.spc      1 <1>        0.000
     41 H          -3.7038   -2.1542    1.5715 H.spc      1 <1>        0.000
@<TRIPOS>BOND
     1    5    8 1  
     2    1    2 1  
     3    7    9 1  
     4    3    5 1  
     5    2    4 1  
     6    4    7 1  
     7    1    3 1  
     8   16   17 2  
     9   15   17 1  
    10   14   16 1  
    11   13   15 1  
    12    6   14 2  
    13   11   13 1  
    14   10    6 1  
    15    9   12 2  
    16    9   11 1  
    17    8   10 1  
    18    1   18 1  
    19    1   19 1  
    20    2   20 1  
    21    2   21 1  
    22    3   22 1  
    23    3   23 1  
    24    4   24 1  
    25    4   25 1  
    26    5   26 1  
    27    5   27 1  
    28    6   28 1  
    29    7   29 1  
    30    7   30 1  
    31    8   31 1  
    32    8   32 1  
    33   10   33 1  
    34   10   34 1  
    35   13   35 1  
    36   13   36 1  
    37   14   37 1  
    38   15   38 1  
    39   15   39 1  
    40   16   40 1  
    41   17   41 1  
# Name:          frag5-654-73/138278 -- energy: -5.916428
# Creation time: Sat Jun  5 12:53:51 2010


@<TRIPOS>MOLECULE
frag5-654-73/138278 -- energy: -5.916428
   41    41     1     1     1
SMALL
USER_CHARGES


@<TRIPOS>ATOM
      1 C28         1.2960   -0.5062   -1.3615 C.3        1 <1>        0.000
      2 C32         0.8434   -1.6446   -2.2750 C.3        1 <1>        0.000
      3 C33         0.8211   -0.4534    0.0767 C.3        1 <1>        0.000
      4 C36        -0.6372   -1.9910   -2.4269 C.3        1 <1>        0.000
      5 C37         0.9086    0.8215    0.8918 C.3        1 <1>        0.000
      6 C54        -2.3369    1.5211    2.9033 C.2        1 <1>        0.000
      7 C40        -1.0726   -3.4183   -2.1322 C.3        1 <1>        0.000
      8 C42        -0.0489    0.9272    2.0535 C.3        1 <1>        0.000
      9 C46        -2.4776   -3.6357   -1.6129 C.2        1 <1>        0.000
     10 C48        -1.2630    1.8305    1.9164 C.3        1 <1>        0.000
     11 O11        -3.1781   -2.5742   -1.1574 O.3        1 <1>        0.000
     12 O12        -2.9173   -4.7853   -1.6400 O.2        1 <1>        0.000
     13 C55        -4.4149   -2.7995   -0.5374 C.3        1 <1>        0.000
     14 C56        -3.4709    0.8242    2.7153 C.2        1 <1>        0.000
     15 C58        -5.0606   -1.5642    0.0509 C.3        1 <1>        0.000
     16 C60        -4.0200    0.1968    1.5570 C.2        1 <1>        0.000
     17 C62        -4.4819   -1.0415    1.3186 C.2        1 <1>        0.000
     18 H           0.8800    0.3916   -1.8187 H.spc      1 <1>        0.000
     19 H           2.3764   -0.6300   -1.2871 H.spc      1 <1>        0.000
     20 H           1.2781   -2.5356   -1.8219 H.spc      1 <1>        0.000
     21 H           1.1420   -1.3185   -3.2713 H.spc      1 <1>        0.000
     22 H          -0.2497   -0.6440    0.0049 H.spc      1 <1>        0.000
     23 H           1.4874   -1.1416    0.5968 H.spc      1 <1>        0.000
     24 H          -0.8639   -1.8322   -3.4812 H.spc      1 <1>        0.000
     25 H          -1.1546   -1.3741   -1.6922 H.spc      1 <1>        0.000
     26 H           1.9118    0.8459    1.3173 H.spc      1 <1>        0.000
     27 H           0.6599    1.6376    0.2134 H.spc      1 <1>        0.000
     28 H          -2.1822    1.9112    3.9093 H.spc      1 <1>        0.000
     29 H          -1.0332   -3.9376   -3.0897 H.spc      1 <1>        0.000
     30 H          -0.4122   -3.7652   -1.3375 H.spc      1 <1>        0.000
     31 H           0.5362    1.3594    2.8652 H.spc      1 <1>        0.000
     32 H          -0.4547   -0.0766    2.1792 H.spc      1 <1>        0.000
     33 H          -0.9353    2.8548    2.0938 H.spc      1 <1>        0.000
     34 H          -1.6765    1.6804    0.9191 H.spc      1 <1>        0.000
     35 H          -5.0909   -3.1763   -1.3049 H.spc      1 <1>        0.000
     36 H          -4.2354   -3.4879    0.2884 H.spc      1 <1>        0.000
     37 H          -4.0828    0.7191    3.6112 H.spc      1 <1>        0.000
     38 H          -4.9232   -0.7747   -0.6880 H.spc      1 <1>        0.000
     39 H          -6.0870   -1.8465    0.2852 H.spc      1 <1>        0.000
     40 H          -4.0758    0.8559    0.6907 H.spc      1 <1>        0.000
     41 H          -4.4266   -1.7449    2.1494 H.spc      1 <1>        0.000
@<TRIPOS>BOND
     1    5    8 1  
     2    1    2 1  
     3    7    9 1  
     4    3    5 1  
     5    2    4 1  
     6    4    7 1  
     7    1    3 1  
     8   16   17 2  
     9   15   17 1  
    10   14   16 1  
    11   13   15 1  
    12    6   14 2  
    13   11   13 1  
    14   10    6 1  
    15    9   12 2  
    16    9   11 1  
    17    8   10 1  
    18    1   18 1  
    19    1   19 1  
    20    2   20 1  
    21    2   21 1  
    22    3   22 1  
    23    3   23 1  
    24    4   24 1  
    25    4   25 1  
    26    5   26 1  
    27    5   27 1  
    28    6   28 1  
    29    7   29 1  
    30    7   30 1  
    31    8   31 1  
    32    8   32 1  
    33   10   33 1  
    34   10   34 1  
    35   13   35 1  
    36   13   36 1  
    37   14   37 1  
    38   15   38 1  
    39   15   39 1  
    40   16   40 1  
    41   17   41 1  
