#      Rotatable Fragment
#      Build by yxyuan
#
# Name:          frag5-627-86/138278
# Creation time: Sat Jun  5 12:53:48 2010


@<TRIPOS>MOLECULE
frag5-627-86/138278
   16    17     1     1     1
SMALL
USER_CHARGES


@<TRIPOS>ATOM
      1 N1          1.7506    1.4722   -0.0960 N.2        1 <1>        0.000
      2 C1          0.7045    0.7541   -0.1846 C.2        1 <1>        0.000
      3 C3          2.8169    0.5470    0.2115 C.3        1 <1>        0.000
      4 C4          1.0199   -0.6933    0.0216 C.2        1 <1>        0.000
      5 N2         -0.5627    1.1671   -0.4161 N.2        1 <1>        0.000
      6 N3          2.2863   -0.7633    0.2412 N.2        1 <1>        0.000
      7 C7         -0.1326   -1.5963   -0.0803 C.2        1 <1>        0.000
      8 C8         -1.5678    0.3852   -0.2317 C.2        1 <1>        0.000
      9 N4         -1.2688   -0.9760   -0.2237 N.2        1 <1>        0.000
     10 O1         -0.0364   -2.8972   -0.0189 O.3        1 <1>        0.000
     11 N5         -2.8181    0.7961    0.0535 N.pl3      1 <1>        0.000
     12 H           3.2517    0.7922    1.1804 H.spc      1 <1>        0.000
     13 H           3.5955    0.6139   -0.5484 H.spc      1 <1>        0.000
     14 H           0.8852   -3.1441    0.0873 H.spc      1 <1>        0.000
     15 H          -3.0209    1.7922    0.1373 H.spc      1 <1>        0.000
     16 H          -3.5623    0.1112    0.1858 H.spc      1 <1>        0.000
@<TRIPOS>BOND
     1    7   10 1  
     2    8    9 1  
     3    8   11 1  
     4    1    2 2  
     5    1    3 1  
     6    2    4 1  
     7    2    5 1  
     8    3    6 1  
     9    4    7 1  
    10    4    6 2  
    11    5    8 2  
    12    7    9 2  
    13    3   12 1  
    14    3   13 1  
    15   10   14 1  
    16   11   15 1  
    17   11   16 1  
# Name:          frag5-627-86/138278 -- energy: -0.733639
# Creation time: Sat Jun  5 12:53:48 2010


@<TRIPOS>MOLECULE
frag5-627-86/138278 -- energy: -0.733639
   16    17     1     1     1
SMALL
USER_CHARGES


@<TRIPOS>ATOM
      1 N1          1.7506    1.4722   -0.0960 N.2        1 <1>        0.000
      2 C1          0.7045    0.7541   -0.1846 C.2        1 <1>        0.000
      3 C3          2.8169    0.5470    0.2115 C.3        1 <1>        0.000
      4 C4          1.0199   -0.6933    0.0216 C.2        1 <1>        0.000
      5 N2         -0.5627    1.1671   -0.4161 N.2        1 <1>        0.000
      6 N3          2.2863   -0.7633    0.2412 N.2        1 <1>        0.000
      7 C7         -0.1326   -1.5963   -0.0803 C.2        1 <1>        0.000
      8 C8         -1.5678    0.3852   -0.2317 C.2        1 <1>        0.000
      9 N4         -1.2688   -0.9760   -0.2237 N.2        1 <1>        0.000
     10 O1         -0.0364   -2.8972   -0.0189 O.3        1 <1>        0.000
     11 N5         -2.8181    0.7961    0.0535 N.pl3      1 <1>        0.000
     12 H           3.2517    0.7922    1.1804 H.spc      1 <1>        0.000
     13 H           3.5955    0.6139   -0.5484 H.spc      1 <1>        0.000
     14 H           0.8852   -3.1441    0.0873 H.spc      1 <1>        0.000
     15 H          -3.0209    1.7922    0.1373 H.spc      1 <1>        0.000
     16 H          -3.5623    0.1112    0.1858 H.spc      1 <1>        0.000
@<TRIPOS>BOND
     1    7   10 1  
     2    8    9 1  
     3    8   11 1  
     4    1    2 2  
     5    1    3 1  
     6    2    4 1  
     7    2    5 1  
     8    3    6 1  
     9    4    7 1  
    10    4    6 2  
    11    5    8 2  
    12    7    9 2  
    13    3   12 1  
    14    3   13 1  
    15   10   14 1  
    16   11   15 1  
    17   11   16 1  
