#      Rotatable Fragment
#      Build by yxyuan
#
# Name:          frag3-250-4/96164
# Creation time: Sat Jun  5 12:53:17 2010


@<TRIPOS>MOLECULE
frag3-250-4/96164
   13    12     1     1     1
SMALL
USER_CHARGES


@<TRIPOS>ATOM
      1 N4          1.0194    1.4834   -0.4339 N.2        1 <1>        0.000
      2 C20         1.7952    0.4026   -0.4890 C.2        1 <1>        0.000
      3 N5          3.0567    0.5363   -0.8616 N.am       1 <1>        0.000
      4 N6          1.2931   -0.7902   -0.1889 N.am       1 <1>        0.000
      5 C22         4.2402   -0.1891   -0.6802 C.2        1 <1>        0.000
      6 C24         0.0179   -1.2862    0.0417 C.2        1 <1>        0.000
      7 O1          4.2057   -1.2146   -0.0173 O.2        1 <1>        0.000
      8 O2         -0.9073   -0.4862    0.1035 O.2        1 <1>        0.000
      9 H           0.0404    1.3951   -0.1614 H.spc      1 <1>        0.000
     10 H           3.2043    1.3770   -1.4201 H.spc      1 <1>        0.000
     11 H           2.0126   -1.5088   -0.1095 H.spc      1 <1>        0.000
     12 H           5.1753    0.1548   -1.1223 H.spc      1 <1>        0.000
     13 H          -0.1551   -2.3554    0.1641 H.spc      1 <1>        0.000
@<TRIPOS>BOND
     1    1    2 2  
     2    2    3 1  
     3    2    4 1  
     4    3    5 am 
     5    4    6 am 
     6    5    7 2  
     7    6    8 2  
     8    1    9 1  
     9    3   10 1  
    10    4   11 1  
    11    5   12 1  
    12    6   13 1  
# Name:          frag3-250-4/96164
# Creation time: Sat Jun  5 12:53:17 2010


@<TRIPOS>MOLECULE
frag3-250-4/96164
   13    12     1     1     1
SMALL
USER_CHARGES


@<TRIPOS>ATOM
      1 N4          1.3759    1.0654   -0.5141 N.2        1 <1>        0.000
      2 C20         1.7578   -0.1576   -0.1442 C.2        1 <1>        0.000
      3 N5          0.8023   -1.0313    0.2071 N.am       1 <1>        0.000
      4 N6          3.0579   -0.4415   -0.2065 N.am       1 <1>        0.000
      5 C22        -0.5791   -1.0019   -0.0153 C.2        1 <1>        0.000
      6 C24         4.1202    0.1676   -0.8660 C.2        1 <1>        0.000
      7 O1         -1.0699    0.0679   -0.3320 O.2        1 <1>        0.000
      8 O2          5.2559   -0.2125   -0.6548 O.2        1 <1>        0.000
      9 H           2.0701    1.7428   -0.8298 H.spc      1 <1>        0.000
     10 H           1.1363   -1.8482    0.7184 H.spc      1 <1>        0.000
     11 H           3.3260   -1.2642    0.3336 H.spc      1 <1>        0.000
     12 H          -1.1905   -1.8981    0.0903 H.spc      1 <1>        0.000
     13 H           3.9359    0.9808   -1.5680 H.spc      1 <1>        0.000
@<TRIPOS>BOND
     1    1    2 2  
     2    2    3 1  
     3    2    4 1  
     4    3    5 am 
     5    4    6 am 
     6    5    7 2  
     7    6    8 2  
     8    1    9 1  
     9    3   10 1  
    10    4   11 1  
    11    5   12 1  
    12    6   13 1  
# Name:          frag3-250-4/96164
# Creation time: Sat Jun  5 12:53:17 2010


@<TRIPOS>MOLECULE
frag3-250-4/96164
   13    12     1     1     1
SMALL
USER_CHARGES


@<TRIPOS>ATOM
      1 N4          1.2173    1.7672   -1.0421 N.2        1 <1>        0.000
      2 C20         1.8703    0.6752   -0.6474 C.2        1 <1>        0.000
      3 N5          3.1916    0.6852   -0.4473 N.am       1 <1>        0.000
      4 N6          1.1903   -0.4171   -0.3758 N.am       1 <1>        0.000
      5 C22         4.0666   -0.3520   -0.2062 C.2        1 <1>        0.000
      6 C24        -0.0979   -0.6668    0.0846 C.2        1 <1>        0.000
      7 O1          3.6471   -1.4797   -0.4381 O.2        1 <1>        0.000
      8 O2         -0.3644   -1.7560    0.5465 O.2        1 <1>        0.000
      9 H           0.2013    1.7498   -1.1307 H.spc      1 <1>        0.000
     10 H           3.6219    1.6095   -0.4779 H.spc      1 <1>        0.000
     11 H           1.7261   -1.2696   -0.5389 H.spc      1 <1>        0.000
     12 H           5.0750   -0.1789    0.1696 H.spc      1 <1>        0.000
     13 H          -0.8612    0.1094    0.0308 H.spc      1 <1>        0.000
@<TRIPOS>BOND
     1    1    2 2  
     2    2    3 1  
     3    2    4 1  
     4    3    5 am 
     5    4    6 am 
     6    5    7 2  
     7    6    8 2  
     8    1    9 1  
     9    3   10 1  
    10    4   11 1  
    11    5   12 1  
    12    6   13 1  
# Name:          frag3-250-4/96164 -- energy: 0.218649
# Creation time: Sat Jun  5 12:53:17 2010


@<TRIPOS>MOLECULE
frag3-250-4/96164 -- energy: 0.218649
   13    12     1     1     1
SMALL
USER_CHARGES


@<TRIPOS>ATOM
      1 N4          1.0194    1.4834   -0.4339 N.2        1 <1>        0.000
      2 C20         1.7952    0.4026   -0.4890 C.2        1 <1>        0.000
      3 N5          3.0567    0.5363   -0.8616 N.am       1 <1>        0.000
      4 N6          1.2931   -0.7902   -0.1889 N.am       1 <1>        0.000
      5 C22         4.2402   -0.1891   -0.6802 C.2        1 <1>        0.000
      6 C24         0.0179   -1.2862    0.0417 C.2        1 <1>        0.000
      7 O1          4.2057   -1.2146   -0.0173 O.2        1 <1>        0.000
      8 O2         -0.9073   -0.4862    0.1035 O.2        1 <1>        0.000
      9 H           0.0404    1.3951   -0.1614 H.spc      1 <1>        0.000
     10 H           3.2043    1.3770   -1.4201 H.spc      1 <1>        0.000
     11 H           2.0126   -1.5088   -0.1095 H.spc      1 <1>        0.000
     12 H           5.1753    0.1548   -1.1223 H.spc      1 <1>        0.000
     13 H          -0.1551   -2.3554    0.1641 H.spc      1 <1>        0.000
@<TRIPOS>BOND
     1    1    2 2  
     2    2    3 1  
     3    2    4 1  
     4    3    5 am 
     5    4    6 am 
     6    5    7 2  
     7    6    8 2  
     8    1    9 1  
     9    3   10 1  
    10    4   11 1  
    11    5   12 1  
    12    6   13 1  
# Name:          frag3-250-4/96164 -- energy: -0.615143
# Creation time: Sat Jun  5 12:53:17 2010


@<TRIPOS>MOLECULE
frag3-250-4/96164 -- energy: -0.615143
   13    12     1     1     1
SMALL
USER_CHARGES


@<TRIPOS>ATOM
      1 N4          1.3759    1.0654   -0.5141 N.2        1 <1>        0.000
      2 C20         1.7578   -0.1576   -0.1442 C.2        1 <1>        0.000
      3 N5          0.8023   -1.0313    0.2071 N.am       1 <1>        0.000
      4 N6          3.0579   -0.4415   -0.2065 N.am       1 <1>        0.000
      5 C22        -0.5791   -1.0019   -0.0153 C.2        1 <1>        0.000
      6 C24         4.1202    0.1676   -0.8660 C.2        1 <1>        0.000
      7 O1         -1.0699    0.0679   -0.3320 O.2        1 <1>        0.000
      8 O2          5.2559   -0.2125   -0.6548 O.2        1 <1>        0.000
      9 H           2.0701    1.7428   -0.8298 H.spc      1 <1>        0.000
     10 H           1.1363   -1.8482    0.7184 H.spc      1 <1>        0.000
     11 H           3.3260   -1.2642    0.3336 H.spc      1 <1>        0.000
     12 H          -1.1905   -1.8981    0.0903 H.spc      1 <1>        0.000
     13 H           3.9359    0.9808   -1.5680 H.spc      1 <1>        0.000
@<TRIPOS>BOND
     1    1    2 2  
     2    2    3 1  
     3    2    4 1  
     4    3    5 am 
     5    4    6 am 
     6    5    7 2  
     7    6    8 2  
     8    1    9 1  
     9    3   10 1  
    10    4   11 1  
    11    5   12 1  
    12    6   13 1  
# Name:          frag3-250-4/96164 -- energy: 2.356228
# Creation time: Sat Jun  5 12:53:17 2010


@<TRIPOS>MOLECULE
frag3-250-4/96164 -- energy: 2.356228
   13    12     1     1     1
SMALL
USER_CHARGES


@<TRIPOS>ATOM
      1 N4          1.2173    1.7672   -1.0421 N.2        1 <1>        0.000
      2 C20         1.8703    0.6752   -0.6474 C.2        1 <1>        0.000
      3 N5          3.1916    0.6852   -0.4473 N.am       1 <1>        0.000
      4 N6          1.1903   -0.4171   -0.3758 N.am       1 <1>        0.000
      5 C22         4.0666   -0.3520   -0.2062 C.2        1 <1>        0.000
      6 C24        -0.0979   -0.6668    0.0846 C.2        1 <1>        0.000
      7 O1          3.6471   -1.4797   -0.4381 O.2        1 <1>        0.000
      8 O2         -0.3644   -1.7560    0.5465 O.2        1 <1>        0.000
      9 H           0.2013    1.7498   -1.1307 H.spc      1 <1>        0.000
     10 H           3.6219    1.6095   -0.4779 H.spc      1 <1>        0.000
     11 H           1.7261   -1.2696   -0.5389 H.spc      1 <1>        0.000
     12 H           5.0750   -0.1789    0.1696 H.spc      1 <1>        0.000
     13 H          -0.8612    0.1094    0.0308 H.spc      1 <1>        0.000
@<TRIPOS>BOND
     1    1    2 2  
     2    2    3 1  
     3    2    4 1  
     4    3    5 am 
     5    4    6 am 
     6    5    7 2  
     7    6    8 2  
     8    1    9 1  
     9    3   10 1  
    10    4   11 1  
    11    5   12 1  
    12    6   13 1  
