#      Rotatable Fragment
#      Build by yxyuan
#
# Name:          frag4-473-34/48856
# Creation time: Sat Jun  5 12:52:49 2010


@<TRIPOS>MOLECULE
frag4-473-34/48856
    9     9     1     1     1
SMALL
USER_CHARGES


@<TRIPOS>ATOM
      1 C27         3.5561   -0.0611    1.0297 C.3        1 <1>        0.000
      2 N7          2.2455   -0.6915    1.1298 N.2        1 <1>        0.000
      3 C28         2.1745   -1.3175    2.2359 C.2        1 <1>        0.000
      4 N8          3.4276   -1.1286    2.9100 N.2        1 <1>        0.000
      5 C29         4.2804   -0.4261    2.3014 C.2        1 <1>        0.000
      6 H           3.4706    1.0196    0.9161 H.spc      1 <1>        0.000
      7 H           4.0981   -0.4067    0.1494 H.spc      1 <1>        0.000
      8 H           1.3221   -1.8896    2.6024 H.spc      1 <1>        0.000
      9 H           5.2875   -0.1518    2.6155 H.spc      1 <1>        0.000
@<TRIPOS>BOND
     1    1    2 1  
     2    1    5 1  
     3    2    3 2  
     4    3    4 1  
     5    4    5 2  
     6    1    6 1  
     7    1    7 1  
     8    3    8 1  
     9    5    9 1  
# Name:          frag4-473-34/48856 -- energy: -0.245838
# Creation time: Sat Jun  5 12:52:49 2010


@<TRIPOS>MOLECULE
frag4-473-34/48856 -- energy: -0.245838
    9     9     1     1     1
SMALL
USER_CHARGES


@<TRIPOS>ATOM
      1 C27         3.5561   -0.0611    1.0297 C.3        1 <1>        0.000
      2 N7          2.2455   -0.6915    1.1298 N.2        1 <1>        0.000
      3 C28         2.1745   -1.3175    2.2359 C.2        1 <1>        0.000
      4 N8          3.4276   -1.1286    2.9100 N.2        1 <1>        0.000
      5 C29         4.2804   -0.4261    2.3014 C.2        1 <1>        0.000
      6 H           3.4706    1.0196    0.9161 H.spc      1 <1>        0.000
      7 H           4.0981   -0.4067    0.1494 H.spc      1 <1>        0.000
      8 H           1.3221   -1.8896    2.6024 H.spc      1 <1>        0.000
      9 H           5.2875   -0.1518    2.6155 H.spc      1 <1>        0.000
@<TRIPOS>BOND
     1    1    2 1  
     2    1    5 1  
     3    2    3 2  
     4    3    4 1  
     5    4    5 2  
     6    1    6 1  
     7    1    7 1  
     8    3    8 1  
     9    5    9 1  
