#      Rotatable Fragment
#      Build by yxyuan
#
# Name:          frag4-486-87/150395
# Creation time: Sat Jun  5 12:53:38 2010


@<TRIPOS>MOLECULE
frag4-486-87/150395
   24    25     1     1     1
SMALL
USER_CHARGES


@<TRIPOS>ATOM
      1 C1          1.4832   -1.2242    0.6608 C.3        1 <1>        0.000
      2 C2          0.1382   -0.4934    0.3892 C.3        1 <1>        0.000
      3 C3          1.4215   -2.7207    0.4634 C.2        1 <1>        0.000
      4 C4          2.6535   -0.7597   -0.2447 C.3        1 <1>        0.000
      5 C5         -0.6413   -1.1784   -0.7557 C.3        1 <1>        0.000
      6 C6          2.6659   -3.4651    0.7309 C.2        1 <1>        0.000
      7 C7          0.3209   -3.3568    0.0387 C.2        1 <1>        0.000
      8 C9          3.9812   -1.3867    0.2700 C.3        1 <1>        0.000
      9 C11        -0.9481   -2.6398   -0.3436 C.3        1 <1>        0.000
     10 C12         3.8502   -2.8459    0.6443 C.2        1 <1>        0.000
     11 H           1.6609   -0.9648    1.7045 H.spc      1 <1>        0.000
     12 H           0.3510    0.5360    0.1010 H.spc      1 <1>        0.000
     13 H          -0.4678   -0.5272    1.2946 H.spc      1 <1>        0.000
     14 H           2.4714   -1.0811   -1.2702 H.spc      1 <1>        0.000
     15 H           2.7279    0.3274   -0.2162 H.spc      1 <1>        0.000
     16 H          -0.0442   -1.1686   -1.6675 H.spc      1 <1>        0.000
     17 H          -1.5724   -0.6431   -0.9415 H.spc      1 <1>        0.000
     18 H           2.6218   -4.5206    0.9994 H.spc      1 <1>        0.000
     19 H           0.3449   -4.4441   -0.0336 H.spc      1 <1>        0.000
     20 H           4.7113   -1.3185   -0.5365 H.spc      1 <1>        0.000
     21 H           4.2757   -0.8423    1.1672 H.spc      1 <1>        0.000
     22 H          -1.6228   -2.6325    0.5125 H.spc      1 <1>        0.000
     23 H          -1.4072   -3.1568   -1.1862 H.spc      1 <1>        0.000
     24 H           4.7555   -3.4164    0.8518 H.spc      1 <1>        0.000
@<TRIPOS>BOND
     1    8   10 1  
     2    1    2 1  
     3    6   10 2  
     4    1    3 1  
     5    3    7 2  
     6    7    9 1  
     7    3    6 1  
     8    2    5 1  
     9    4    8 1  
    10    1    4 1  
    11    5    9 1  
    12    1   11 1  
    13    2   12 1  
    14    2   13 1  
    15    4   14 1  
    16    4   15 1  
    17    5   16 1  
    18    5   17 1  
    19    6   18 1  
    20    7   19 1  
    21    8   20 1  
    22    8   21 1  
    23    9   22 1  
    24    9   23 1  
    25   10   24 1  
# Name:          frag4-486-87/150395 -- energy: -2.545829
# Creation time: Sat Jun  5 12:53:38 2010


@<TRIPOS>MOLECULE
frag4-486-87/150395 -- energy: -2.545829
   24    25     1     1     1
SMALL
USER_CHARGES


@<TRIPOS>ATOM
      1 C1          1.4832   -1.2242    0.6608 C.3        1 <1>        0.000
      2 C2          0.1382   -0.4934    0.3892 C.3        1 <1>        0.000
      3 C3          1.4215   -2.7207    0.4634 C.2        1 <1>        0.000
      4 C4          2.6535   -0.7597   -0.2447 C.3        1 <1>        0.000
      5 C5         -0.6413   -1.1784   -0.7557 C.3        1 <1>        0.000
      6 C6          2.6659   -3.4651    0.7309 C.2        1 <1>        0.000
      7 C7          0.3209   -3.3568    0.0387 C.2        1 <1>        0.000
      8 C9          3.9812   -1.3867    0.2700 C.3        1 <1>        0.000
      9 C11        -0.9481   -2.6398   -0.3436 C.3        1 <1>        0.000
     10 C12         3.8502   -2.8459    0.6443 C.2        1 <1>        0.000
     11 H           1.6609   -0.9648    1.7045 H.spc      1 <1>        0.000
     12 H           0.3510    0.5360    0.1010 H.spc      1 <1>        0.000
     13 H          -0.4678   -0.5272    1.2946 H.spc      1 <1>        0.000
     14 H           2.4714   -1.0811   -1.2702 H.spc      1 <1>        0.000
     15 H           2.7279    0.3274   -0.2162 H.spc      1 <1>        0.000
     16 H          -0.0442   -1.1686   -1.6675 H.spc      1 <1>        0.000
     17 H          -1.5724   -0.6431   -0.9415 H.spc      1 <1>        0.000
     18 H           2.6218   -4.5206    0.9994 H.spc      1 <1>        0.000
     19 H           0.3449   -4.4441   -0.0336 H.spc      1 <1>        0.000
     20 H           4.7113   -1.3185   -0.5365 H.spc      1 <1>        0.000
     21 H           4.2757   -0.8423    1.1672 H.spc      1 <1>        0.000
     22 H          -1.6228   -2.6325    0.5125 H.spc      1 <1>        0.000
     23 H          -1.4072   -3.1568   -1.1862 H.spc      1 <1>        0.000
     24 H           4.7555   -3.4164    0.8518 H.spc      1 <1>        0.000
@<TRIPOS>BOND
     1    8   10 1  
     2    1    2 1  
     3    6   10 2  
     4    1    3 1  
     5    3    7 2  
     6    7    9 1  
     7    3    6 1  
     8    2    5 1  
     9    4    8 1  
    10    1    4 1  
    11    5    9 1  
    12    1   11 1  
    13    2   12 1  
    14    2   13 1  
    15    4   14 1  
    16    4   15 1  
    17    5   16 1  
    18    5   17 1  
    19    6   18 1  
    20    7   19 1  
    21    8   20 1  
    22    8   21 1  
    23    9   22 1  
    24    9   23 1  
    25   10   24 1  
