#      Rotatable Fragment
#      Build by yxyuan
#
# Name:          frag3-221-4/31924
# Creation time: Sat Jun  5 12:52:21 2010


@<TRIPOS>MOLECULE
frag3-221-4/31924
   12    11     1     1     1
SMALL
USER_CHARGES


@<TRIPOS>ATOM
      1 C54         2.3890    0.2288    0.0143 C.2        1 <1>        0.000
      2 O13         2.5389    1.3690    0.4246 O.2        1 <1>        0.000
      3 N16         1.2232   -0.4900   -0.0481 N.am       1 <1>        0.000
      4 N17         0.0724   -0.0427    0.5259 N.am       1 <1>        0.000
      5 C55        -0.5003    1.1460    0.2829 C.2        1 <1>        0.000
      6 O14        -1.5361    1.3825    0.8668 O.2        1 <1>        0.000
      7 N18        -0.1088    2.1212   -0.5359 N.am       1 <1>        0.000
      8 H           3.2861   -0.2762   -0.3439 H.spc      1 <1>        0.000
      9 H           1.2178   -1.3846   -0.5381 H.spc      1 <1>        0.000
     10 H          -0.3907   -0.6598    1.1931 H.spc      1 <1>        0.000
     11 H          -0.6693    2.9688   -0.6242 H.spc      1 <1>        0.000
     12 H           0.7515    2.0203   -1.0745 H.spc      1 <1>        0.000
@<TRIPOS>BOND
     1    1    2 2  
     2    1    3 am 
     3    3    4 1  
     4    4    5 am 
     5    5    6 2  
     6    5    7 am 
     7    1    8 1  
     8    3    9 1  
     9    4   10 1  
    10    7   11 1  
    11    7   12 1  
# Name:          frag3-221-4/31924
# Creation time: Sat Jun  5 12:52:21 2010


@<TRIPOS>MOLECULE
frag3-221-4/31924
   12    11     1     1     1
SMALL
USER_CHARGES


@<TRIPOS>ATOM
      1 C54         2.6044    0.2135    0.5868 C.2        1 <1>        0.000
      2 O13         3.6854    0.1553    0.0151 O.2        1 <1>        0.000
      3 N16         1.4045    0.5020   -0.0349 N.am       1 <1>        0.000
      4 N17         0.1802    0.4019    0.5478 N.am       1 <1>        0.000
      5 C55        -0.8975    1.2137    0.2382 C.2        1 <1>        0.000
      6 O14        -1.9892    0.9469    0.8129 O.2        1 <1>        0.000
      7 N18        -0.9093    2.2813   -0.6353 N.am       1 <1>        0.000
      8 H           2.5872    0.0247    1.6602 H.spc      1 <1>        0.000
      9 H           1.4400    0.8140   -1.0054 H.spc      1 <1>        0.000
     10 H           0.0473   -0.3174    1.2586 H.spc      1 <1>        0.000
     11 H          -1.7703    2.8068   -0.7868 H.spc      1 <1>        0.000
     12 H          -0.0570    2.5452   -1.1297 H.spc      1 <1>        0.000
@<TRIPOS>BOND
     1    1    2 2  
     2    1    3 am 
     3    3    4 1  
     4    4    5 am 
     5    5    6 2  
     6    5    7 am 
     7    1    8 1  
     8    3    9 1  
     9    4   10 1  
    10    7   11 1  
    11    7   12 1  
# Name:          frag3-221-4/31924
# Creation time: Sat Jun  5 12:52:21 2010


@<TRIPOS>MOLECULE
frag3-221-4/31924
   12    11     1     1     1
SMALL
USER_CHARGES


@<TRIPOS>ATOM
      1 C54         2.2593    0.7520    0.3158 C.2        1 <1>        0.000
      2 O13         3.3882    0.6649   -0.1467 O.2        1 <1>        0.000
      3 N16         1.2863   -0.2289    0.2005 N.am       1 <1>        0.000
      4 N17        -0.0191   -0.0502    0.5337 N.am       1 <1>        0.000
      5 C55        -0.7048    1.1309    0.2869 C.2        1 <1>        0.000
      6 O14        -1.9293    1.1481    0.5953 O.2        1 <1>        0.000
      7 N18        -0.2023    2.2980   -0.2550 N.am       1 <1>        0.000
      8 H           2.0005    1.6630    0.8555 H.spc      1 <1>        0.000
      9 H           1.5678   -1.1419   -0.1568 H.spc      1 <1>        0.000
     10 H          -0.5167   -0.8178    0.9849 H.spc      1 <1>        0.000
     11 H          -0.8129    3.1048   -0.3836 H.spc      1 <1>        0.000
     12 H           0.7794    2.3529   -0.5265 H.spc      1 <1>        0.000
@<TRIPOS>BOND
     1    1    2 2  
     2    1    3 am 
     3    3    4 1  
     4    4    5 am 
     5    5    6 2  
     6    5    7 am 
     7    1    8 1  
     8    3    9 1  
     9    4   10 1  
    10    7   11 1  
    11    7   12 1  
# Name:          frag3-221-4/31924
# Creation time: Sat Jun  5 12:52:21 2010


@<TRIPOS>MOLECULE
frag3-221-4/31924
   12    11     1     1     1
SMALL
USER_CHARGES


@<TRIPOS>ATOM
      1 C54         2.3370    0.1869   -0.2320 C.2        1 <1>        0.000
      2 O13         3.5443    0.3771   -0.1530 O.2        1 <1>        0.000
      3 N16         1.4357    0.4231    0.7900 N.am       1 <1>        0.000
      4 N17         0.0941    0.2177    0.7009 N.am       1 <1>        0.000
      5 C55        -0.8015    1.1858    0.2841 C.2        1 <1>        0.000
      6 O14        -1.9736    0.7941    0.0258 O.2        1 <1>        0.000
      7 N18        -0.5577    2.5298    0.1149 N.am       1 <1>        0.000
      8 H           1.9452   -0.1956   -1.1745 H.spc      1 <1>        0.000
      9 H           1.8032    0.7765    1.6734 H.spc      1 <1>        0.000
     10 H          -0.2713   -0.7000    0.9552 H.spc      1 <1>        0.000
     11 H          -1.3046    3.1476   -0.2028 H.spc      1 <1>        0.000
     12 H           0.3698    2.9080    0.3073 H.spc      1 <1>        0.000
@<TRIPOS>BOND
     1    1    2 2  
     2    1    3 am 
     3    3    4 1  
     4    4    5 am 
     5    5    6 2  
     6    5    7 am 
     7    1    8 1  
     8    3    9 1  
     9    4   10 1  
    10    7   11 1  
    11    7   12 1  
# Name:          frag3-221-4/31924
# Creation time: Sat Jun  5 12:52:21 2010


@<TRIPOS>MOLECULE
frag3-221-4/31924
   12    11     1     1     1
SMALL
USER_CHARGES


@<TRIPOS>ATOM
      1 C54         2.6338    0.2252    0.3314 C.2        1 <1>        0.000
      2 O13         2.8915    0.2551   -0.8665 O.2        1 <1>        0.000
      3 N16         1.4243    0.3126    0.9402 N.am       1 <1>        0.000
      4 N17         0.2294    0.2806    0.2892 N.am       1 <1>        0.000
      5 C55        -0.6777    1.2392    0.2949 C.2        1 <1>        0.000
      6 O14        -1.7350    0.9667   -0.3043 O.2        1 <1>        0.000
      7 N18        -0.6879    2.4353    0.8457 N.am       1 <1>        0.000
      8 H           3.4903    0.1135    0.9962 H.spc      1 <1>        0.000
      9 H           1.4095    0.4089    1.9555 H.spc      1 <1>        0.000
     10 H           0.0162   -0.5582   -0.2506 H.spc      1 <1>        0.000
     11 H          -1.5104    3.0316    0.7549 H.spc      1 <1>        0.000
     12 H           0.1267    2.7654    1.3632 H.spc      1 <1>        0.000
@<TRIPOS>BOND
     1    1    2 2  
     2    1    3 am 
     3    3    4 1  
     4    4    5 am 
     5    5    6 2  
     6    5    7 am 
     7    1    8 1  
     8    3    9 1  
     9    4   10 1  
    10    7   11 1  
    11    7   12 1  
# Name:          frag3-221-4/31924
# Creation time: Sat Jun  5 12:52:21 2010


@<TRIPOS>MOLECULE
frag3-221-4/31924
   12    11     1     1     1
SMALL
USER_CHARGES


@<TRIPOS>ATOM
      1 C54         2.3262    0.5852    0.6577 C.2        1 <1>        0.000
      2 O13         3.5143    0.6271    0.3603 O.2        1 <1>        0.000
      3 N16         1.3628    0.0223   -0.2081 N.am       1 <1>        0.000
      4 N17         0.0519   -0.0151    0.0999 N.am       1 <1>        0.000
      5 C55        -0.7759    1.1345    0.1775 C.2        1 <1>        0.000
      6 O14        -0.2530    2.2457   -0.0684 O.2        1 <1>        0.000
      7 N18        -2.1480    1.1150    0.5118 N.am       1 <1>        0.000
      8 H           2.0044    0.9932    1.6159 H.spc      1 <1>        0.000
      9 H           1.6705   -0.3698   -1.0981 H.spc      1 <1>        0.000
     10 H          -0.3707   -0.9241    0.2886 H.spc      1 <1>        0.000
     11 H          -2.6769    1.9864    0.5463 H.spc      1 <1>        0.000
     12 H          -2.6100    0.2295    0.7187 H.spc      1 <1>        0.000
@<TRIPOS>BOND
     1    1    2 2  
     2    1    3 am 
     3    3    4 1  
     4    4    5 am 
     5    5    6 2  
     6    5    7 am 
     7    1    8 1  
     8    3    9 1  
     9    4   10 1  
    10    7   11 1  
    11    7   12 1  
# Name:          frag3-221-4/31924
# Creation time: Sat Jun  5 12:52:21 2010


@<TRIPOS>MOLECULE
frag3-221-4/31924
   12    11     1     1     1
SMALL
USER_CHARGES


@<TRIPOS>ATOM
      1 C54         2.6705    0.1382    0.1038 C.2        1 <1>        0.000
      2 O13         3.5528   -0.1118    0.9169 O.2        1 <1>        0.000
      3 N16         1.3585    0.4692    0.5083 N.am       1 <1>        0.000
      4 N17         0.4649    1.0230   -0.3339 N.am       1 <1>        0.000
      5 C55        -0.8814    1.3027    0.0144 C.2        1 <1>        0.000
      6 O14        -1.2254    1.1152    1.2045 O.2        1 <1>        0.000
      7 N18        -1.8616    1.7783   -0.8833 N.am       1 <1>        0.000
      8 H           2.9047    0.1042   -0.9602 H.spc      1 <1>        0.000
      9 H           1.0780    0.2825    1.4710 H.spc      1 <1>        0.000
     10 H           0.7746    1.2549   -1.2777 H.spc      1 <1>        0.000
     11 H          -2.8106    1.9567   -0.5546 H.spc      1 <1>        0.000
     12 H          -1.6209    1.9435   -1.8606 H.spc      1 <1>        0.000
@<TRIPOS>BOND
     1    1    2 2  
     2    1    3 am 
     3    3    4 1  
     4    4    5 am 
     5    5    6 2  
     6    5    7 am 
     7    1    8 1  
     8    3    9 1  
     9    4   10 1  
    10    7   11 1  
    11    7   12 1  
# Name:          frag3-221-4/31924
# Creation time: Sat Jun  5 12:52:21 2010


@<TRIPOS>MOLECULE
frag3-221-4/31924
   12    11     1     1     1
SMALL
USER_CHARGES


@<TRIPOS>ATOM
      1 C54         2.4756   -0.0461    0.7142 C.2        1 <1>        0.000
      2 O13         3.0680    0.9119    0.2312 O.2        1 <1>        0.000
      3 N16         1.1334   -0.3333    0.3912 N.am       1 <1>        0.000
      4 N17         0.3945    0.4646   -0.4036 N.am       1 <1>        0.000
      5 C55        -0.6557    1.2940    0.0598 C.2        1 <1>        0.000
      6 O14        -1.1411    1.0397    1.1885 O.2        1 <1>        0.000
      7 N18        -1.1964    2.3840   -0.6508 N.am       1 <1>        0.000
      8 H           3.0018   -0.6953    1.4141 H.spc      1 <1>        0.000
      9 H           0.7061   -1.1768    0.7737 H.spc      1 <1>        0.000
     10 H           0.6045    0.4719   -1.4017 H.spc      1 <1>        0.000
     11 H          -1.9540    2.9326   -0.2441 H.spc      1 <1>        0.000
     12 H          -0.8302    2.6244   -1.5719 H.spc      1 <1>        0.000
@<TRIPOS>BOND
     1    1    2 2  
     2    1    3 am 
     3    3    4 1  
     4    4    5 am 
     5    5    6 2  
     6    5    7 am 
     7    1    8 1  
     8    3    9 1  
     9    4   10 1  
    10    7   11 1  
    11    7   12 1  
# Name:          frag3-221-4/31924
# Creation time: Sat Jun  5 12:52:21 2010


@<TRIPOS>MOLECULE
frag3-221-4/31924
   12    11     1     1     1
SMALL
USER_CHARGES


@<TRIPOS>ATOM
      1 C54         2.5965    0.0623    0.0228 C.2        1 <1>        0.000
      2 O13         3.1613    0.8219    0.8013 O.2        1 <1>        0.000
      3 N16         1.2677   -0.0658   -0.2216 N.am       1 <1>        0.000
      4 N17         0.2711    0.4056    0.5756 N.am       1 <1>        0.000
      5 C55        -0.6976    1.2241    0.2087 C.2        1 <1>        0.000
      6 O14        -1.6501    1.2999    1.0086 O.2        1 <1>        0.000
      7 N18        -0.8706    1.9667   -0.8647 N.am       1 <1>        0.000
      8 H           3.2480   -0.5982   -0.5493 H.spc      1 <1>        0.000
      9 H           0.9936   -0.5559   -1.0731 H.spc      1 <1>        0.000
     10 H           0.2725    0.0977    1.5480 H.spc      1 <1>        0.000
     11 H          -1.7193    2.5228   -0.9688 H.spc      1 <1>        0.000
     12 H          -0.1559    1.9859   -1.5922 H.spc      1 <1>        0.000
@<TRIPOS>BOND
     1    1    2 2  
     2    1    3 am 
     3    3    4 1  
     4    4    5 am 
     5    5    6 2  
     6    5    7 am 
     7    1    8 1  
     8    3    9 1  
     9    4   10 1  
    10    7   11 1  
    11    7   12 1  
# Name:          frag3-221-4/31924
# Creation time: Sat Jun  5 12:52:21 2010


@<TRIPOS>MOLECULE
frag3-221-4/31924
   12    11     1     1     1
SMALL
USER_CHARGES


@<TRIPOS>ATOM
      1 C54         2.3954    0.2678    0.1188 C.2        1 <1>        0.000
      2 O13         2.3934    1.2020   -0.6458 O.2        1 <1>        0.000
      3 N16         1.3223   -0.3844    0.6912 N.am       1 <1>        0.000
      4 N17         0.0310   -0.0832    0.3629 N.am       1 <1>        0.000
      5 C55        -0.4798    1.1473    0.3533 C.2        1 <1>        0.000
      6 O14        -1.5990    1.2659   -0.1434 O.2        1 <1>        0.000
      7 N18         0.0150    2.2993    0.7935 N.am       1 <1>        0.000
      8 H           3.3790   -0.1125    0.3947 H.spc      1 <1>        0.000
      9 H           1.4990   -1.1145    1.3813 H.spc      1 <1>        0.000
     10 H          -0.5855   -0.8545    0.1071 H.spc      1 <1>        0.000
     11 H          -0.5286    3.1572    0.6989 H.spc      1 <1>        0.000
     12 H           0.9384    2.3257    1.2260 H.spc      1 <1>        0.000
@<TRIPOS>BOND
     1    1    2 2  
     2    1    3 am 
     3    3    4 1  
     4    4    5 am 
     5    5    6 2  
     6    5    7 am 
     7    1    8 1  
     8    3    9 1  
     9    4   10 1  
    10    7   11 1  
    11    7   12 1  
# Name:          frag3-221-4/31924
# Creation time: Sat Jun  5 12:52:21 2010


@<TRIPOS>MOLECULE
frag3-221-4/31924
   12    11     1     1     1
SMALL
USER_CHARGES


@<TRIPOS>ATOM
      1 C54         2.3252    0.7231    0.3050 C.2        1 <1>        0.000
      2 O13         3.3316    0.5102    0.9712 O.2        1 <1>        0.000
      3 N16         1.2771   -0.2190    0.2193 N.am       1 <1>        0.000
      4 N17         0.0901    0.0726   -0.3468 N.am       1 <1>        0.000
      5 C55        -0.7110    1.1837    0.0210 C.2        1 <1>        0.000
      6 O14        -0.3822    1.8237    1.0466 O.2        1 <1>        0.000
      7 N18        -1.8526    1.6204   -0.6857 N.am       1 <1>        0.000
      8 H           2.2369    1.6652   -0.2360 H.spc      1 <1>        0.000
      9 H           1.4240   -1.1539    0.5997 H.spc      1 <1>        0.000
     10 H          -0.2533   -0.5427   -1.0843 H.spc      1 <1>        0.000
     11 H          -2.3773    2.4306   -0.3562 H.spc      1 <1>        0.000
     12 H          -2.1526    1.1256   -1.5257 H.spc      1 <1>        0.000
@<TRIPOS>BOND
     1    1    2 2  
     2    1    3 am 
     3    3    4 1  
     4    4    5 am 
     5    5    6 2  
     6    5    7 am 
     7    1    8 1  
     8    3    9 1  
     9    4   10 1  
    10    7   11 1  
    11    7   12 1  
# Name:          frag3-221-4/31924
# Creation time: Sat Jun  5 12:52:21 2010


@<TRIPOS>MOLECULE
frag3-221-4/31924
   12    11     1     1     1
SMALL
USER_CHARGES


@<TRIPOS>ATOM
      1 C54         2.5715   -0.1085   -0.0862 C.2        1 <1>        0.000
      2 O13         3.1953    0.8986    0.2372 O.2        1 <1>        0.000
      3 N16         1.1872   -0.2237    0.1000 N.am       1 <1>        0.000
      4 N17         0.4642    0.6907    0.7824 N.am       1 <1>        0.000
      5 C55        -0.7200    1.2905    0.3151 C.2        1 <1>        0.000
      6 O14        -0.7733    1.5825   -0.9095 O.2        1 <1>        0.000
      7 N18        -1.8466    1.5846    1.0916 N.am       1 <1>        0.000
      8 H           3.1133   -0.9418   -0.5336 H.spc      1 <1>        0.000
      9 H           0.7060   -1.0311   -0.2960 H.spc      1 <1>        0.000
     10 H           0.8015    0.9669    1.7046 H.spc      1 <1>        0.000
     11 H          -2.6639    2.0171    0.6611 H.spc      1 <1>        0.000
     12 H          -1.8503    1.3665    2.0880 H.spc      1 <1>        0.000
@<TRIPOS>BOND
     1    1    2 2  
     2    1    3 am 
     3    3    4 1  
     4    4    5 am 
     5    5    6 2  
     6    5    7 am 
     7    1    8 1  
     8    3    9 1  
     9    4   10 1  
    10    7   11 1  
    11    7   12 1  
# Name:          frag3-221-4/31924
# Creation time: Sat Jun  5 12:52:21 2010


@<TRIPOS>MOLECULE
frag3-221-4/31924
   12    11     1     1     1
SMALL
USER_CHARGES


@<TRIPOS>ATOM
      1 C54         2.5110   -0.3356    0.2108 C.2        1 <1>        0.000
      2 O13         3.4586    0.4355    0.3024 O.2        1 <1>        0.000
      3 N16         1.2027    0.0438    0.5813 N.am       1 <1>        0.000
      4 N17         0.6176    1.1635    0.1155 N.am       1 <1>        0.000
      5 C55        -0.7831    1.3833    0.1146 C.2        1 <1>        0.000
      6 O14        -1.5096    0.5057    0.6371 O.2        1 <1>        0.000
      7 N18        -1.4190    2.5185   -0.4311 N.am       1 <1>        0.000
      8 H           2.6830   -1.3433   -0.1675 H.spc      1 <1>        0.000
      9 H           0.6818   -0.5517    1.2251 H.spc      1 <1>        0.000
     10 H           1.2182    1.8978   -0.2593 H.spc      1 <1>        0.000
     11 H          -2.4348    2.6025   -0.3914 H.spc      1 <1>        0.000
     12 H          -0.8629    3.2552   -0.8653 H.spc      1 <1>        0.000
@<TRIPOS>BOND
     1    1    2 2  
     2    1    3 am 
     3    3    4 1  
     4    4    5 am 
     5    5    6 2  
     6    5    7 am 
     7    1    8 1  
     8    3    9 1  
     9    4   10 1  
    10    7   11 1  
    11    7   12 1  
# Name:          frag3-221-4/31924 -- energy: -0.906013
# Creation time: Sat Jun  5 12:52:22 2010


@<TRIPOS>MOLECULE
frag3-221-4/31924 -- energy: -0.906013
   12    11     1     1     1
SMALL
USER_CHARGES


@<TRIPOS>ATOM
      1 C54         2.3890    0.2288    0.0143 C.2        1 <1>        0.000
      2 O13         2.5389    1.3690    0.4246 O.2        1 <1>        0.000
      3 N16         1.2232   -0.4900   -0.0481 N.am       1 <1>        0.000
      4 N17         0.0724   -0.0427    0.5259 N.am       1 <1>        0.000
      5 C55        -0.5003    1.1460    0.2829 C.2        1 <1>        0.000
      6 O14        -1.5361    1.3825    0.8668 O.2        1 <1>        0.000
      7 N18        -0.1088    2.1212   -0.5359 N.am       1 <1>        0.000
      8 H           3.2861   -0.2762   -0.3439 H.spc      1 <1>        0.000
      9 H           1.2178   -1.3846   -0.5381 H.spc      1 <1>        0.000
     10 H          -0.3907   -0.6598    1.1931 H.spc      1 <1>        0.000
     11 H          -0.6693    2.9688   -0.6242 H.spc      1 <1>        0.000
     12 H           0.7515    2.0203   -1.0745 H.spc      1 <1>        0.000
@<TRIPOS>BOND
     1    1    2 2  
     2    1    3 am 
     3    3    4 1  
     4    4    5 am 
     5    5    6 2  
     6    5    7 am 
     7    1    8 1  
     8    3    9 1  
     9    4   10 1  
    10    7   11 1  
    11    7   12 1  
# Name:          frag3-221-4/31924 -- energy: -0.801643
# Creation time: Sat Jun  5 12:52:22 2010


@<TRIPOS>MOLECULE
frag3-221-4/31924 -- energy: -0.801643
   12    11     1     1     1
SMALL
USER_CHARGES


@<TRIPOS>ATOM
      1 C54         2.6044    0.2135    0.5868 C.2        1 <1>        0.000
      2 O13         3.6854    0.1553    0.0151 O.2        1 <1>        0.000
      3 N16         1.4045    0.5020   -0.0349 N.am       1 <1>        0.000
      4 N17         0.1802    0.4019    0.5478 N.am       1 <1>        0.000
      5 C55        -0.8975    1.2137    0.2382 C.2        1 <1>        0.000
      6 O14        -1.9892    0.9469    0.8129 O.2        1 <1>        0.000
      7 N18        -0.9093    2.2813   -0.6353 N.am       1 <1>        0.000
      8 H           2.5872    0.0247    1.6602 H.spc      1 <1>        0.000
      9 H           1.4400    0.8140   -1.0054 H.spc      1 <1>        0.000
     10 H           0.0473   -0.3174    1.2586 H.spc      1 <1>        0.000
     11 H          -1.7703    2.8068   -0.7868 H.spc      1 <1>        0.000
     12 H          -0.0570    2.5452   -1.1297 H.spc      1 <1>        0.000
@<TRIPOS>BOND
     1    1    2 2  
     2    1    3 am 
     3    3    4 1  
     4    4    5 am 
     5    5    6 2  
     6    5    7 am 
     7    1    8 1  
     8    3    9 1  
     9    4   10 1  
    10    7   11 1  
    11    7   12 1  
# Name:          frag3-221-4/31924 -- energy: -0.270714
# Creation time: Sat Jun  5 12:52:22 2010


@<TRIPOS>MOLECULE
frag3-221-4/31924 -- energy: -0.270714
   12    11     1     1     1
SMALL
USER_CHARGES


@<TRIPOS>ATOM
      1 C54         2.2593    0.7520    0.3158 C.2        1 <1>        0.000
      2 O13         3.3882    0.6649   -0.1467 O.2        1 <1>        0.000
      3 N16         1.2863   -0.2289    0.2005 N.am       1 <1>        0.000
      4 N17        -0.0191   -0.0502    0.5337 N.am       1 <1>        0.000
      5 C55        -0.7048    1.1309    0.2869 C.2        1 <1>        0.000
      6 O14        -1.9293    1.1481    0.5953 O.2        1 <1>        0.000
      7 N18        -0.2023    2.2980   -0.2550 N.am       1 <1>        0.000
      8 H           2.0005    1.6630    0.8555 H.spc      1 <1>        0.000
      9 H           1.5678   -1.1419   -0.1568 H.spc      1 <1>        0.000
     10 H          -0.5167   -0.8178    0.9849 H.spc      1 <1>        0.000
     11 H          -0.8129    3.1048   -0.3836 H.spc      1 <1>        0.000
     12 H           0.7794    2.3529   -0.5265 H.spc      1 <1>        0.000
@<TRIPOS>BOND
     1    1    2 2  
     2    1    3 am 
     3    3    4 1  
     4    4    5 am 
     5    5    6 2  
     6    5    7 am 
     7    1    8 1  
     8    3    9 1  
     9    4   10 1  
    10    7   11 1  
    11    7   12 1  
# Name:          frag3-221-4/31924 -- energy: -0.891198
# Creation time: Sat Jun  5 12:52:22 2010


@<TRIPOS>MOLECULE
frag3-221-4/31924 -- energy: -0.891198
   12    11     1     1     1
SMALL
USER_CHARGES


@<TRIPOS>ATOM
      1 C54         2.3370    0.1869   -0.2320 C.2        1 <1>        0.000
      2 O13         3.5443    0.3771   -0.1530 O.2        1 <1>        0.000
      3 N16         1.4357    0.4231    0.7900 N.am       1 <1>        0.000
      4 N17         0.0941    0.2177    0.7009 N.am       1 <1>        0.000
      5 C55        -0.8015    1.1858    0.2841 C.2        1 <1>        0.000
      6 O14        -1.9736    0.7941    0.0258 O.2        1 <1>        0.000
      7 N18        -0.5577    2.5298    0.1149 N.am       1 <1>        0.000
      8 H           1.9452   -0.1956   -1.1745 H.spc      1 <1>        0.000
      9 H           1.8032    0.7765    1.6734 H.spc      1 <1>        0.000
     10 H          -0.2713   -0.7000    0.9552 H.spc      1 <1>        0.000
     11 H          -1.3046    3.1476   -0.2028 H.spc      1 <1>        0.000
     12 H           0.3698    2.9080    0.3073 H.spc      1 <1>        0.000
@<TRIPOS>BOND
     1    1    2 2  
     2    1    3 am 
     3    3    4 1  
     4    4    5 am 
     5    5    6 2  
     6    5    7 am 
     7    1    8 1  
     8    3    9 1  
     9    4   10 1  
    10    7   11 1  
    11    7   12 1  
# Name:          frag3-221-4/31924 -- energy: -0.781294
# Creation time: Sat Jun  5 12:52:22 2010


@<TRIPOS>MOLECULE
frag3-221-4/31924 -- energy: -0.781294
   12    11     1     1     1
SMALL
USER_CHARGES


@<TRIPOS>ATOM
      1 C54         2.6338    0.2252    0.3314 C.2        1 <1>        0.000
      2 O13         2.8915    0.2551   -0.8665 O.2        1 <1>        0.000
      3 N16         1.4243    0.3126    0.9402 N.am       1 <1>        0.000
      4 N17         0.2294    0.2806    0.2892 N.am       1 <1>        0.000
      5 C55        -0.6777    1.2392    0.2949 C.2        1 <1>        0.000
      6 O14        -1.7350    0.9667   -0.3043 O.2        1 <1>        0.000
      7 N18        -0.6879    2.4353    0.8457 N.am       1 <1>        0.000
      8 H           3.4903    0.1135    0.9962 H.spc      1 <1>        0.000
      9 H           1.4095    0.4089    1.9555 H.spc      1 <1>        0.000
     10 H           0.0162   -0.5582   -0.2506 H.spc      1 <1>        0.000
     11 H          -1.5104    3.0316    0.7549 H.spc      1 <1>        0.000
     12 H           0.1267    2.7654    1.3632 H.spc      1 <1>        0.000
@<TRIPOS>BOND
     1    1    2 2  
     2    1    3 am 
     3    3    4 1  
     4    4    5 am 
     5    5    6 2  
     6    5    7 am 
     7    1    8 1  
     8    3    9 1  
     9    4   10 1  
    10    7   11 1  
    11    7   12 1  
# Name:          frag3-221-4/31924 -- energy: -0.860308
# Creation time: Sat Jun  5 12:52:22 2010


@<TRIPOS>MOLECULE
frag3-221-4/31924 -- energy: -0.860308
   12    11     1     1     1
SMALL
USER_CHARGES


@<TRIPOS>ATOM
      1 C54         2.3262    0.5852    0.6577 C.2        1 <1>        0.000
      2 O13         3.5143    0.6271    0.3603 O.2        1 <1>        0.000
      3 N16         1.3628    0.0223   -0.2081 N.am       1 <1>        0.000
      4 N17         0.0519   -0.0151    0.0999 N.am       1 <1>        0.000
      5 C55        -0.7759    1.1345    0.1775 C.2        1 <1>        0.000
      6 O14        -0.2530    2.2457   -0.0684 O.2        1 <1>        0.000
      7 N18        -2.1480    1.1150    0.5118 N.am       1 <1>        0.000
      8 H           2.0044    0.9932    1.6159 H.spc      1 <1>        0.000
      9 H           1.6705   -0.3698   -1.0981 H.spc      1 <1>        0.000
     10 H          -0.3707   -0.9241    0.2886 H.spc      1 <1>        0.000
     11 H          -2.6769    1.9864    0.5463 H.spc      1 <1>        0.000
     12 H          -2.6100    0.2295    0.7187 H.spc      1 <1>        0.000
@<TRIPOS>BOND
     1    1    2 2  
     2    1    3 am 
     3    3    4 1  
     4    4    5 am 
     5    5    6 2  
     6    5    7 am 
     7    1    8 1  
     8    3    9 1  
     9    4   10 1  
    10    7   11 1  
    11    7   12 1  
# Name:          frag3-221-4/31924 -- energy: -0.642427
# Creation time: Sat Jun  5 12:52:22 2010


@<TRIPOS>MOLECULE
frag3-221-4/31924 -- energy: -0.642427
   12    11     1     1     1
SMALL
USER_CHARGES


@<TRIPOS>ATOM
      1 C54         2.6705    0.1382    0.1038 C.2        1 <1>        0.000
      2 O13         3.5528   -0.1118    0.9169 O.2        1 <1>        0.000
      3 N16         1.3585    0.4692    0.5083 N.am       1 <1>        0.000
      4 N17         0.4649    1.0230   -0.3339 N.am       1 <1>        0.000
      5 C55        -0.8814    1.3027    0.0144 C.2        1 <1>        0.000
      6 O14        -1.2254    1.1152    1.2045 O.2        1 <1>        0.000
      7 N18        -1.8616    1.7783   -0.8833 N.am       1 <1>        0.000
      8 H           2.9047    0.1042   -0.9602 H.spc      1 <1>        0.000
      9 H           1.0780    0.2825    1.4710 H.spc      1 <1>        0.000
     10 H           0.7746    1.2549   -1.2777 H.spc      1 <1>        0.000
     11 H          -2.8106    1.9567   -0.5546 H.spc      1 <1>        0.000
     12 H          -1.6209    1.9435   -1.8606 H.spc      1 <1>        0.000
@<TRIPOS>BOND
     1    1    2 2  
     2    1    3 am 
     3    3    4 1  
     4    4    5 am 
     5    5    6 2  
     6    5    7 am 
     7    1    8 1  
     8    3    9 1  
     9    4   10 1  
    10    7   11 1  
    11    7   12 1  
# Name:          frag3-221-4/31924 -- energy: -0.833214
# Creation time: Sat Jun  5 12:52:22 2010


@<TRIPOS>MOLECULE
frag3-221-4/31924 -- energy: -0.833214
   12    11     1     1     1
SMALL
USER_CHARGES


@<TRIPOS>ATOM
      1 C54         2.4756   -0.0461    0.7142 C.2        1 <1>        0.000
      2 O13         3.0680    0.9119    0.2312 O.2        1 <1>        0.000
      3 N16         1.1334   -0.3333    0.3912 N.am       1 <1>        0.000
      4 N17         0.3945    0.4646   -0.4036 N.am       1 <1>        0.000
      5 C55        -0.6557    1.2940    0.0598 C.2        1 <1>        0.000
      6 O14        -1.1411    1.0397    1.1885 O.2        1 <1>        0.000
      7 N18        -1.1964    2.3840   -0.6508 N.am       1 <1>        0.000
      8 H           3.0018   -0.6953    1.4141 H.spc      1 <1>        0.000
      9 H           0.7061   -1.1768    0.7737 H.spc      1 <1>        0.000
     10 H           0.6045    0.4719   -1.4017 H.spc      1 <1>        0.000
     11 H          -1.9540    2.9326   -0.2441 H.spc      1 <1>        0.000
     12 H          -0.8302    2.6244   -1.5719 H.spc      1 <1>        0.000
@<TRIPOS>BOND
     1    1    2 2  
     2    1    3 am 
     3    3    4 1  
     4    4    5 am 
     5    5    6 2  
     6    5    7 am 
     7    1    8 1  
     8    3    9 1  
     9    4   10 1  
    10    7   11 1  
    11    7   12 1  
# Name:          frag3-221-4/31924 -- energy: -0.769363
# Creation time: Sat Jun  5 12:52:22 2010


@<TRIPOS>MOLECULE
frag3-221-4/31924 -- energy: -0.769363
   12    11     1     1     1
SMALL
USER_CHARGES


@<TRIPOS>ATOM
      1 C54         2.5965    0.0623    0.0228 C.2        1 <1>        0.000
      2 O13         3.1613    0.8219    0.8013 O.2        1 <1>        0.000
      3 N16         1.2677   -0.0658   -0.2216 N.am       1 <1>        0.000
      4 N17         0.2711    0.4056    0.5756 N.am       1 <1>        0.000
      5 C55        -0.6976    1.2241    0.2087 C.2        1 <1>        0.000
      6 O14        -1.6501    1.2999    1.0086 O.2        1 <1>        0.000
      7 N18        -0.8706    1.9667   -0.8647 N.am       1 <1>        0.000
      8 H           3.2480   -0.5982   -0.5493 H.spc      1 <1>        0.000
      9 H           0.9936   -0.5559   -1.0731 H.spc      1 <1>        0.000
     10 H           0.2725    0.0977    1.5480 H.spc      1 <1>        0.000
     11 H          -1.7193    2.5228   -0.9688 H.spc      1 <1>        0.000
     12 H          -0.1559    1.9859   -1.5922 H.spc      1 <1>        0.000
@<TRIPOS>BOND
     1    1    2 2  
     2    1    3 am 
     3    3    4 1  
     4    4    5 am 
     5    5    6 2  
     6    5    7 am 
     7    1    8 1  
     8    3    9 1  
     9    4   10 1  
    10    7   11 1  
    11    7   12 1  
# Name:          frag3-221-4/31924 -- energy: -0.991075
# Creation time: Sat Jun  5 12:52:22 2010


@<TRIPOS>MOLECULE
frag3-221-4/31924 -- energy: -0.991075
   12    11     1     1     1
SMALL
USER_CHARGES


@<TRIPOS>ATOM
      1 C54         2.3954    0.2678    0.1188 C.2        1 <1>        0.000
      2 O13         2.3934    1.2020   -0.6458 O.2        1 <1>        0.000
      3 N16         1.3223   -0.3844    0.6912 N.am       1 <1>        0.000
      4 N17         0.0310   -0.0832    0.3629 N.am       1 <1>        0.000
      5 C55        -0.4798    1.1473    0.3533 C.2        1 <1>        0.000
      6 O14        -1.5990    1.2659   -0.1434 O.2        1 <1>        0.000
      7 N18         0.0150    2.2993    0.7935 N.am       1 <1>        0.000
      8 H           3.3790   -0.1125    0.3947 H.spc      1 <1>        0.000
      9 H           1.4990   -1.1145    1.3813 H.spc      1 <1>        0.000
     10 H          -0.5855   -0.8545    0.1071 H.spc      1 <1>        0.000
     11 H          -0.5286    3.1572    0.6989 H.spc      1 <1>        0.000
     12 H           0.9384    2.3257    1.2260 H.spc      1 <1>        0.000
@<TRIPOS>BOND
     1    1    2 2  
     2    1    3 am 
     3    3    4 1  
     4    4    5 am 
     5    5    6 2  
     6    5    7 am 
     7    1    8 1  
     8    3    9 1  
     9    4   10 1  
    10    7   11 1  
    11    7   12 1  
# Name:          frag3-221-4/31924 -- energy: -0.849173
# Creation time: Sat Jun  5 12:52:22 2010


@<TRIPOS>MOLECULE
frag3-221-4/31924 -- energy: -0.849173
   12    11     1     1     1
SMALL
USER_CHARGES


@<TRIPOS>ATOM
      1 C54         2.3252    0.7231    0.3050 C.2        1 <1>        0.000
      2 O13         3.3316    0.5102    0.9712 O.2        1 <1>        0.000
      3 N16         1.2771   -0.2190    0.2193 N.am       1 <1>        0.000
      4 N17         0.0901    0.0726   -0.3468 N.am       1 <1>        0.000
      5 C55        -0.7110    1.1837    0.0210 C.2        1 <1>        0.000
      6 O14        -0.3822    1.8237    1.0466 O.2        1 <1>        0.000
      7 N18        -1.8526    1.6204   -0.6857 N.am       1 <1>        0.000
      8 H           2.2369    1.6652   -0.2360 H.spc      1 <1>        0.000
      9 H           1.4240   -1.1539    0.5997 H.spc      1 <1>        0.000
     10 H          -0.2533   -0.5427   -1.0843 H.spc      1 <1>        0.000
     11 H          -2.3773    2.4306   -0.3562 H.spc      1 <1>        0.000
     12 H          -2.1526    1.1256   -1.5257 H.spc      1 <1>        0.000
@<TRIPOS>BOND
     1    1    2 2  
     2    1    3 am 
     3    3    4 1  
     4    4    5 am 
     5    5    6 2  
     6    5    7 am 
     7    1    8 1  
     8    3    9 1  
     9    4   10 1  
    10    7   11 1  
    11    7   12 1  
# Name:          frag3-221-4/31924 -- energy: -0.812720
# Creation time: Sat Jun  5 12:52:22 2010


@<TRIPOS>MOLECULE
frag3-221-4/31924 -- energy: -0.812720
   12    11     1     1     1
SMALL
USER_CHARGES


@<TRIPOS>ATOM
      1 C54         2.5715   -0.1085   -0.0862 C.2        1 <1>        0.000
      2 O13         3.1953    0.8986    0.2372 O.2        1 <1>        0.000
      3 N16         1.1872   -0.2237    0.1000 N.am       1 <1>        0.000
      4 N17         0.4642    0.6907    0.7824 N.am       1 <1>        0.000
      5 C55        -0.7200    1.2905    0.3151 C.2        1 <1>        0.000
      6 O14        -0.7733    1.5825   -0.9095 O.2        1 <1>        0.000
      7 N18        -1.8466    1.5846    1.0916 N.am       1 <1>        0.000
      8 H           3.1133   -0.9418   -0.5336 H.spc      1 <1>        0.000
      9 H           0.7060   -1.0311   -0.2960 H.spc      1 <1>        0.000
     10 H           0.8015    0.9669    1.7046 H.spc      1 <1>        0.000
     11 H          -2.6639    2.0171    0.6611 H.spc      1 <1>        0.000
     12 H          -1.8503    1.3665    2.0880 H.spc      1 <1>        0.000
@<TRIPOS>BOND
     1    1    2 2  
     2    1    3 am 
     3    3    4 1  
     4    4    5 am 
     5    5    6 2  
     6    5    7 am 
     7    1    8 1  
     8    3    9 1  
     9    4   10 1  
    10    7   11 1  
    11    7   12 1  
# Name:          frag3-221-4/31924 -- energy: -0.706671
# Creation time: Sat Jun  5 12:52:22 2010


@<TRIPOS>MOLECULE
frag3-221-4/31924 -- energy: -0.706671
   12    11     1     1     1
SMALL
USER_CHARGES


@<TRIPOS>ATOM
      1 C54         2.5110   -0.3356    0.2108 C.2        1 <1>        0.000
      2 O13         3.4586    0.4355    0.3024 O.2        1 <1>        0.000
      3 N16         1.2027    0.0438    0.5813 N.am       1 <1>        0.000
      4 N17         0.6176    1.1635    0.1155 N.am       1 <1>        0.000
      5 C55        -0.7831    1.3833    0.1146 C.2        1 <1>        0.000
      6 O14        -1.5096    0.5057    0.6371 O.2        1 <1>        0.000
      7 N18        -1.4190    2.5185   -0.4311 N.am       1 <1>        0.000
      8 H           2.6830   -1.3433   -0.1675 H.spc      1 <1>        0.000
      9 H           0.6818   -0.5517    1.2251 H.spc      1 <1>        0.000
     10 H           1.2182    1.8978   -0.2593 H.spc      1 <1>        0.000
     11 H          -2.4348    2.6025   -0.3914 H.spc      1 <1>        0.000
     12 H          -0.8629    3.2552   -0.8653 H.spc      1 <1>        0.000
@<TRIPOS>BOND
     1    1    2 2  
     2    1    3 am 
     3    3    4 1  
     4    4    5 am 
     5    5    6 2  
     6    5    7 am 
     7    1    8 1  
     8    3    9 1  
     9    4   10 1  
    10    7   11 1  
    11    7   12 1  
