#      Rotatable Fragment
#      Build by yxyuan
#
# Name:          frag5-572-44/41815
# Creation time: Sat Jun  5 12:52:54 2010


@<TRIPOS>MOLECULE
frag5-572-44/41815
    7     7     1     1     1
SMALL
USER_CHARGES


@<TRIPOS>ATOM
      1 S2          1.8668   -0.6474   -0.4198 S.3        1 <1>        0.000
      2 C6          0.2766   -0.0203   -0.1688 C.ar       1 <1>        0.000
      3 N2         -0.8331   -0.5992   -0.1724 N.ar       1 <1>        0.000
      4 N3         -1.8548    0.2576    0.1289 N.ar       1 <1>        0.000
      5 N4         -1.3179    1.4418    0.3363 N.ar       1 <1>        0.000
      6 N5         -0.0516    1.2873    0.1766 N.ar       1 <1>        0.000
      7 H           1.7883   -1.9368   -0.7364 H.spc      1 <1>        0.000
@<TRIPOS>BOND
     1    1    2 1  
     2    2    6 ar 
     3    3    4 ar 
     4    4    5 ar 
     5    5    6 ar 
     6    2    3 ar 
     7    1    7 1  
# Name:          frag5-572-44/41815 -- energy: -0.161371
# Creation time: Sat Jun  5 12:52:54 2010


@<TRIPOS>MOLECULE
frag5-572-44/41815 -- energy: -0.161371
    7     7     1     1     1
SMALL
USER_CHARGES


@<TRIPOS>ATOM
      1 S2          1.8668   -0.6474   -0.4198 S.3        1 <1>        0.000
      2 C6          0.2766   -0.0203   -0.1688 C.ar       1 <1>        0.000
      3 N2         -0.8331   -0.5992   -0.1724 N.ar       1 <1>        0.000
      4 N3         -1.8548    0.2576    0.1289 N.ar       1 <1>        0.000
      5 N4         -1.3179    1.4418    0.3363 N.ar       1 <1>        0.000
      6 N5         -0.0516    1.2873    0.1766 N.ar       1 <1>        0.000
      7 H           1.7883   -1.9368   -0.7364 H.spc      1 <1>        0.000
@<TRIPOS>BOND
     1    1    2 1  
     2    2    6 ar 
     3    3    4 ar 
     4    4    5 ar 
     5    5    6 ar 
     6    2    3 ar 
     7    1    7 1  
