#      Rotatable Fragment
#      Build by yxyuan
#
# Name:          frag2-085-1/319335
# Creation time: Sat Jun  5 12:52:06 2010


@<TRIPOS>MOLECULE
frag2-085-1/319335
   18    20     1     1     1
SMALL
USER_CHARGES


@<TRIPOS>ATOM
      1 C1         -0.0165   -0.1258    0.0002 C.ar       1 <1>        0.000
      2 C2          0.3935    1.1545    0.0113 C.ar       1 <1>        0.000
      3 C3          0.7118   -1.3235   -0.0173 C.ar       1 <1>        0.000
      4 C4         -1.3997   -0.5030    0.0011 C.ar       1 <1>        0.000
      5 C5          1.8081    1.2700    0.0038 C.ar       1 <1>        0.000
      6 N1         -0.5156    2.1318    0.0262 N.ar       1 <1>        0.000
      7 C6          2.0916   -1.2061   -0.0224 C.ar       1 <1>        0.000
      8 N2         -0.1954   -2.4407   -0.0262 N.2        1 <1>        0.000
      9 C7         -2.3801    0.5117    0.0233 C.ar       1 <1>        0.000
     10 C8         -1.4625   -1.9383   -0.0228 C.2        1 <1>        0.000
     11 C9          2.6446    0.0971   -0.0124 C.ar       1 <1>        0.000
     12 C10        -1.8450    1.8320    0.0348 C.ar       1 <1>        0.000
     13 H           2.2674    2.2585    0.0104 H.spc      1 <1>        0.000
     14 H           2.7313   -2.0886   -0.0337 H.spc      1 <1>        0.000
     15 H          -3.4501    0.3041    0.0310 H.spc      1 <1>        0.000
     16 H          -2.3773   -2.5308   -0.0361 H.spc      1 <1>        0.000
     17 H           3.7281    0.2158   -0.0171 H.spc      1 <1>        0.000
     18 H          -2.5503    2.6629    0.0517 H.spc      1 <1>        0.000
@<TRIPOS>BOND
     1    4    9 ar 
     2    5   11 ar 
     3    9   12 ar 
     4    3    8 1  
     5    8   10 2  
     6    7   11 ar 
     7    6   12 ar 
     8    4   10 1  
     9    3    7 ar 
    10    1    2 ar 
    11    1    3 ar 
    12    1    4 ar 
    13    2    5 ar 
    14    2    6 ar 
    15    5   13 1  
    16    7   14 1  
    17    9   15 1  
    18   10   16 1  
    19   11   17 1  
    20   12   18 1  
# Name:          frag2-085-1/319335 -- energy: -0.245402
# Creation time: Sat Jun  5 12:52:06 2010


@<TRIPOS>MOLECULE
frag2-085-1/319335 -- energy: -0.245402
   18    20     1     1     1
SMALL
USER_CHARGES


@<TRIPOS>ATOM
      1 C1         -0.0165   -0.1258    0.0002 C.ar       1 <1>        0.000
      2 C2          0.3935    1.1545    0.0113 C.ar       1 <1>        0.000
      3 C3          0.7118   -1.3235   -0.0173 C.ar       1 <1>        0.000
      4 C4         -1.3997   -0.5030    0.0011 C.ar       1 <1>        0.000
      5 C5          1.8081    1.2700    0.0038 C.ar       1 <1>        0.000
      6 N1         -0.5156    2.1318    0.0262 N.ar       1 <1>        0.000
      7 C6          2.0916   -1.2061   -0.0224 C.ar       1 <1>        0.000
      8 N2         -0.1954   -2.4407   -0.0262 N.2        1 <1>        0.000
      9 C7         -2.3801    0.5117    0.0233 C.ar       1 <1>        0.000
     10 C8         -1.4625   -1.9383   -0.0228 C.2        1 <1>        0.000
     11 C9          2.6446    0.0971   -0.0124 C.ar       1 <1>        0.000
     12 C10        -1.8450    1.8320    0.0348 C.ar       1 <1>        0.000
     13 H           2.2674    2.2585    0.0104 H.spc      1 <1>        0.000
     14 H           2.7313   -2.0886   -0.0337 H.spc      1 <1>        0.000
     15 H          -3.4501    0.3041    0.0310 H.spc      1 <1>        0.000
     16 H          -2.3773   -2.5308   -0.0361 H.spc      1 <1>        0.000
     17 H           3.7281    0.2158   -0.0171 H.spc      1 <1>        0.000
     18 H          -2.5503    2.6629    0.0517 H.spc      1 <1>        0.000
@<TRIPOS>BOND
     1    4    9 ar 
     2    5   11 ar 
     3    9   12 ar 
     4    3    8 1  
     5    8   10 2  
     6    7   11 ar 
     7    6   12 ar 
     8    4   10 1  
     9    3    7 ar 
    10    1    2 ar 
    11    1    3 ar 
    12    1    4 ar 
    13    2    5 ar 
    14    2    6 ar 
    15    5   13 1  
    16    7   14 1  
    17    9   15 1  
    18   10   16 1  
    19   11   17 1  
    20   12   18 1  
