#      Rotatable Fragment
#      Build by yxyuan
#
# Name:          frag3-256-3/31924
# Creation time: Sat Jun  5 12:52:40 2010


@<TRIPOS>MOLECULE
frag3-256-3/31924
   11    10     1     1     1
SMALL
USER_CHARGES


@<TRIPOS>ATOM
      1 C8         -0.7726    0.0482   -0.5788 C.2        1 <1>        0.000
      2 O1         -0.2601   -0.1782   -1.6799 O.2        1 <1>        0.000
      3 N1         -2.1180   -0.0291   -0.2570 N.am       1 <1>        0.000
      4 C9         -2.5105   -0.0386    1.0846 C.2        1 <1>        0.000
      5 N2         -1.6441    0.2117    2.0013 N.2        1 <1>        0.000
      6 N3         -3.8206   -0.3120    1.3769 N.pl3      1 <1>        0.000
      7 H          -0.0951    0.3394    0.2239 H.spc      1 <1>        0.000
      8 H          -2.8192   -0.0789   -0.9960 H.spc      1 <1>        0.000
      9 H          -1.9245    0.2107    2.9820 H.spc      1 <1>        0.000
     10 H          -4.1355   -0.3214    2.3470 H.spc      1 <1>        0.000
     11 H          -4.4812   -0.5062    0.6244 H.spc      1 <1>        0.000
@<TRIPOS>BOND
     1    1    2 2  
     2    1    3 am 
     3    3    4 1  
     4    4    5 2  
     5    4    6 1  
     6    1    7 1  
     7    3    8 1  
     8    5    9 1  
     9    6   10 1  
    10    6   11 1  
# Name:          frag3-256-3/31924
# Creation time: Sat Jun  5 12:52:40 2010


@<TRIPOS>MOLECULE
frag3-256-3/31924
   11    10     1     1     1
SMALL
USER_CHARGES


@<TRIPOS>ATOM
      1 C8         -1.3614   -0.3030   -0.9610 C.2        1 <1>        0.000
      2 O1         -0.6004    0.0092   -1.8788 O.2        1 <1>        0.000
      3 N1         -1.1846   -0.0904    0.3861 N.am       1 <1>        0.000
      4 C9         -2.3154    0.0073    1.2101 C.2        1 <1>        0.000
      5 N2         -2.0881    0.3380    2.4360 N.2        1 <1>        0.000
      6 N3         -3.5761   -0.2591    0.7548 N.pl3      1 <1>        0.000
      7 H          -2.2832   -0.8070   -1.2512 H.spc      1 <1>        0.000
      8 H          -0.2473   -0.0052    0.7793 H.spc      1 <1>        0.000
      9 H          -2.8615    0.4070    3.0974 H.spc      1 <1>        0.000
     10 H          -4.3713   -0.1990    1.3907 H.spc      1 <1>        0.000
     11 H          -3.7218   -0.5180   -0.2210 H.spc      1 <1>        0.000
@<TRIPOS>BOND
     1    1    2 2  
     2    1    3 am 
     3    3    4 1  
     4    4    5 2  
     5    4    6 1  
     6    1    7 1  
     7    3    8 1  
     8    5    9 1  
     9    6   10 1  
    10    6   11 1  
# Name:          frag3-256-3/31924
# Creation time: Sat Jun  5 12:52:40 2010


@<TRIPOS>MOLECULE
frag3-256-3/31924
   11    10     1     1     1
SMALL
USER_CHARGES


@<TRIPOS>ATOM
      1 C8         -0.9693    0.2605   -0.9149 C.2        1 <1>        0.000
      2 O1         -1.2840   -0.8500   -1.3555 O.2        1 <1>        0.000
      3 N1         -1.3148    0.8080    0.2835 N.am       1 <1>        0.000
      4 C9         -2.2316    0.0462    1.0742 C.2        1 <1>        0.000
      5 N2         -2.1627    0.2267    2.3505 N.2        1 <1>        0.000
      6 N3         -3.1635   -0.7894    0.5095 N.pl3      1 <1>        0.000
      7 H          -0.3415    0.8741   -1.5610 H.spc      1 <1>        0.000
      8 H          -0.9432    1.7046    0.5973 H.spc      1 <1>        0.000
      9 H          -2.8120   -0.2581    2.9699 H.spc      1 <1>        0.000
     10 H          -3.8267   -1.2884    1.1023 H.spc      1 <1>        0.000
     11 H          -3.1925   -0.9110   -0.5028 H.spc      1 <1>        0.000
@<TRIPOS>BOND
     1    1    2 2  
     2    1    3 am 
     3    3    4 1  
     4    4    5 2  
     5    4    6 1  
     6    1    7 1  
     7    3    8 1  
     8    5    9 1  
     9    6   10 1  
    10    6   11 1  
# Name:          frag3-256-3/31924 -- energy: -0.344447
# Creation time: Sat Jun  5 12:52:40 2010


@<TRIPOS>MOLECULE
frag3-256-3/31924 -- energy: -0.344447
   11    10     1     1     1
SMALL
USER_CHARGES


@<TRIPOS>ATOM
      1 C8         -0.7726    0.0482   -0.5788 C.2        1 <1>        0.000
      2 O1         -0.2601   -0.1782   -1.6799 O.2        1 <1>        0.000
      3 N1         -2.1180   -0.0291   -0.2570 N.am       1 <1>        0.000
      4 C9         -2.5105   -0.0386    1.0846 C.2        1 <1>        0.000
      5 N2         -1.6441    0.2117    2.0013 N.2        1 <1>        0.000
      6 N3         -3.8206   -0.3120    1.3769 N.pl3      1 <1>        0.000
      7 H          -0.0951    0.3394    0.2239 H.spc      1 <1>        0.000
      8 H          -2.8192   -0.0789   -0.9960 H.spc      1 <1>        0.000
      9 H          -1.9245    0.2107    2.9820 H.spc      1 <1>        0.000
     10 H          -4.1355   -0.3214    2.3470 H.spc      1 <1>        0.000
     11 H          -4.4812   -0.5062    0.6244 H.spc      1 <1>        0.000
@<TRIPOS>BOND
     1    1    2 2  
     2    1    3 am 
     3    3    4 1  
     4    4    5 2  
     5    4    6 1  
     6    1    7 1  
     7    3    8 1  
     8    5    9 1  
     9    6   10 1  
    10    6   11 1  
# Name:          frag3-256-3/31924 -- energy: 0.545595
# Creation time: Sat Jun  5 12:52:40 2010


@<TRIPOS>MOLECULE
frag3-256-3/31924 -- energy: 0.545595
   11    10     1     1     1
SMALL
USER_CHARGES


@<TRIPOS>ATOM
      1 C8         -1.3614   -0.3030   -0.9610 C.2        1 <1>        0.000
      2 O1         -0.6004    0.0092   -1.8788 O.2        1 <1>        0.000
      3 N1         -1.1846   -0.0904    0.3861 N.am       1 <1>        0.000
      4 C9         -2.3154    0.0073    1.2101 C.2        1 <1>        0.000
      5 N2         -2.0881    0.3380    2.4360 N.2        1 <1>        0.000
      6 N3         -3.5761   -0.2591    0.7548 N.pl3      1 <1>        0.000
      7 H          -2.2832   -0.8070   -1.2512 H.spc      1 <1>        0.000
      8 H          -0.2473   -0.0052    0.7793 H.spc      1 <1>        0.000
      9 H          -2.8615    0.4070    3.0974 H.spc      1 <1>        0.000
     10 H          -4.3713   -0.1990    1.3907 H.spc      1 <1>        0.000
     11 H          -3.7218   -0.5180   -0.2210 H.spc      1 <1>        0.000
@<TRIPOS>BOND
     1    1    2 2  
     2    1    3 am 
     3    3    4 1  
     4    4    5 2  
     5    4    6 1  
     6    1    7 1  
     7    3    8 1  
     8    5    9 1  
     9    6   10 1  
    10    6   11 1  
# Name:          frag3-256-3/31924 -- energy: 0.728290
# Creation time: Sat Jun  5 12:52:40 2010


@<TRIPOS>MOLECULE
frag3-256-3/31924 -- energy: 0.728290
   11    10     1     1     1
SMALL
USER_CHARGES


@<TRIPOS>ATOM
      1 C8         -0.9693    0.2605   -0.9149 C.2        1 <1>        0.000
      2 O1         -1.2840   -0.8500   -1.3555 O.2        1 <1>        0.000
      3 N1         -1.3148    0.8080    0.2835 N.am       1 <1>        0.000
      4 C9         -2.2316    0.0462    1.0742 C.2        1 <1>        0.000
      5 N2         -2.1627    0.2267    2.3505 N.2        1 <1>        0.000
      6 N3         -3.1635   -0.7894    0.5095 N.pl3      1 <1>        0.000
      7 H          -0.3415    0.8741   -1.5610 H.spc      1 <1>        0.000
      8 H          -0.9432    1.7046    0.5973 H.spc      1 <1>        0.000
      9 H          -2.8120   -0.2581    2.9699 H.spc      1 <1>        0.000
     10 H          -3.8267   -1.2884    1.1023 H.spc      1 <1>        0.000
     11 H          -3.1925   -0.9110   -0.5028 H.spc      1 <1>        0.000
@<TRIPOS>BOND
     1    1    2 2  
     2    1    3 am 
     3    3    4 1  
     4    4    5 2  
     5    4    6 1  
     6    1    7 1  
     7    3    8 1  
     8    5    9 1  
     9    6   10 1  
    10    6   11 1  
