#      Rotatable Fragment
#      Build by yxyuan
#
# Name:          frag3-134-32/31924
# Creation time: Sat Jun  5 12:52:03 2010


@<TRIPOS>MOLECULE
frag3-134-32/31924
   10     9     1     1     1
SMALL
USER_CHARGES


@<TRIPOS>ATOM
      1 N2          3.8861    1.9498   -0.0476 N.am       1 <1>        0.000
      2 C12         4.7824    1.0652    0.4096 C.2        1 <1>        0.000
      3 O2          5.9780    1.1395    0.2152 O.2        1 <1>        0.000
      4 C13         4.2860   -0.0873    1.1959 C.2        1 <1>        0.000
      5 N3          3.0930   -0.5098    1.0437 N.2        1 <1>        0.000
      6 O3          2.8455   -1.5786    1.8752 O.3        1 <1>        0.000
      7 H           4.1951    2.7504   -0.5989 H.spc      1 <1>        0.000
      8 H           2.8947    1.8227    0.1556 H.spc      1 <1>        0.000
      9 H           4.9462   -0.5784    1.9107 H.spc      1 <1>        0.000
     10 H           1.9438   -1.8813    1.7456 H.spc      1 <1>        0.000
@<TRIPOS>BOND
     1    1    2 am 
     2    2    3 2  
     3    2    4 1  
     4    4    5 2  
     5    5    6 1  
     6    1    7 1  
     7    1    8 1  
     8    4    9 1  
     9    6   10 1  
# Name:          frag3-134-32/31924
# Creation time: Sat Jun  5 12:52:03 2010


@<TRIPOS>MOLECULE
frag3-134-32/31924
   10     9     1     1     1
SMALL
USER_CHARGES


@<TRIPOS>ATOM
      1 N2          4.1918    2.3410   -0.1180 N.am       1 <1>        0.000
      2 C12         4.5809    1.1430    0.3513 C.2        1 <1>        0.000
      3 O2          5.7443    0.7751    0.3359 O.2        1 <1>        0.000
      4 C13         3.5726    0.2206    0.9142 C.2        1 <1>        0.000
      5 N3          3.9503   -0.9033    1.3723 N.2        1 <1>        0.000
      6 O3          2.8313   -1.5977    1.8363 O.3        1 <1>        0.000
      7 H           4.8808    2.9845   -0.5073 H.spc      1 <1>        0.000
      8 H           3.2075    2.6066   -0.0848 H.spc      1 <1>        0.000
      9 H           2.5193    0.5003    0.9362 H.spc      1 <1>        0.000
     10 H           3.1061   -2.4490    2.1848 H.spc      1 <1>        0.000
@<TRIPOS>BOND
     1    1    2 am 
     2    2    3 2  
     3    2    4 1  
     4    4    5 2  
     5    5    6 1  
     6    1    7 1  
     7    1    8 1  
     8    4    9 1  
     9    6   10 1  
# Name:          frag3-134-32/31924 -- energy: -0.362762
# Creation time: Sat Jun  5 12:52:03 2010


@<TRIPOS>MOLECULE
frag3-134-32/31924 -- energy: -0.362762
   10     9     1     1     1
SMALL
USER_CHARGES


@<TRIPOS>ATOM
      1 N2          3.8861    1.9498   -0.0476 N.am       1 <1>        0.000
      2 C12         4.7824    1.0652    0.4096 C.2        1 <1>        0.000
      3 O2          5.9780    1.1395    0.2152 O.2        1 <1>        0.000
      4 C13         4.2860   -0.0873    1.1959 C.2        1 <1>        0.000
      5 N3          3.0930   -0.5098    1.0437 N.2        1 <1>        0.000
      6 O3          2.8455   -1.5786    1.8752 O.3        1 <1>        0.000
      7 H           4.1951    2.7504   -0.5989 H.spc      1 <1>        0.000
      8 H           2.8947    1.8227    0.1556 H.spc      1 <1>        0.000
      9 H           4.9462   -0.5784    1.9107 H.spc      1 <1>        0.000
     10 H           1.9438   -1.8813    1.7456 H.spc      1 <1>        0.000
@<TRIPOS>BOND
     1    1    2 am 
     2    2    3 2  
     3    2    4 1  
     4    4    5 2  
     5    5    6 1  
     6    1    7 1  
     7    1    8 1  
     8    4    9 1  
     9    6   10 1  
# Name:          frag3-134-32/31924 -- energy: -0.292376
# Creation time: Sat Jun  5 12:52:03 2010


@<TRIPOS>MOLECULE
frag3-134-32/31924 -- energy: -0.292376
   10     9     1     1     1
SMALL
USER_CHARGES


@<TRIPOS>ATOM
      1 N2          4.1918    2.3410   -0.1180 N.am       1 <1>        0.000
      2 C12         4.5809    1.1430    0.3513 C.2        1 <1>        0.000
      3 O2          5.7443    0.7751    0.3359 O.2        1 <1>        0.000
      4 C13         3.5726    0.2206    0.9142 C.2        1 <1>        0.000
      5 N3          3.9503   -0.9033    1.3723 N.2        1 <1>        0.000
      6 O3          2.8313   -1.5977    1.8363 O.3        1 <1>        0.000
      7 H           4.8808    2.9845   -0.5073 H.spc      1 <1>        0.000
      8 H           3.2075    2.6066   -0.0848 H.spc      1 <1>        0.000
      9 H           2.5193    0.5003    0.9362 H.spc      1 <1>        0.000
     10 H           3.1061   -2.4490    2.1848 H.spc      1 <1>        0.000
@<TRIPOS>BOND
     1    1    2 am 
     2    2    3 2  
     3    2    4 1  
     4    4    5 2  
     5    5    6 1  
     6    1    7 1  
     7    1    8 1  
     8    4    9 1  
     9    6   10 1  
