#      Rotatable Fragment
#      Build by yxyuan
#
# Name:          frag4-447-41/48856
# Creation time: Sat Jun  5 12:52:48 2010


@<TRIPOS>MOLECULE
frag4-447-41/48856
   16    17     1     1     1
SMALL
USER_CHARGES


@<TRIPOS>ATOM
      1 N2          2.4157   -0.6674   -0.0451 N.ar       1 <1>        0.000
      2 C15         2.3632    0.5925    0.1093 C.ar       1 <1>        0.000
      3 N3          1.2179    1.3174    0.1828 N.ar       1 <1>        0.000
      4 C16         0.0572    0.7492    0.0980 C.ar       1 <1>        0.000
      5 C17         0.0546   -0.7740   -0.0868 C.ar       1 <1>        0.000
      6 C18        -1.2103   -1.4377   -0.1916 C.ar       1 <1>        0.000
      7 C19        -2.3192   -0.6887   -0.1294 C.ar       1 <1>        0.000
      8 C20        -2.3258    0.7372    0.0471 C.ar       1 <1>        0.000
      9 C21        -1.2189    1.4985    0.1687 C.ar       1 <1>        0.000
     10 C22         1.2373   -1.3474   -0.1386 C.ar       1 <1>        0.000
     11 H           3.3075    1.1311    0.1886 H.spc      1 <1>        0.000
     12 H          -1.2688   -2.5188   -0.3181 H.spc      1 <1>        0.000
     13 H          -3.2805   -1.1947   -0.2186 H.spc      1 <1>        0.000
     14 H          -3.2928    1.2388    0.0854 H.spc      1 <1>        0.000
     15 H          -1.2601    2.5788    0.3079 H.spc      1 <1>        0.000
     16 H           1.2779   -2.4295   -0.2636 H.spc      1 <1>        0.000
@<TRIPOS>BOND
     1    5    6 ar 
     2    8    9 ar 
     3    7    8 ar 
     4    5   10 ar 
     5    4    9 ar 
     6    6    7 ar 
     7    1   10 ar 
     8    1    2 ar 
     9    2    3 ar 
    10    3    4 ar 
    11    4    5 ar 
    12    2   11 1  
    13    6   12 1  
    14    7   13 1  
    15    8   14 1  
    16    9   15 1  
    17   10   16 1  
# Name:          frag4-447-41/48856 -- energy: -0.052817
# Creation time: Sat Jun  5 12:52:48 2010


@<TRIPOS>MOLECULE
frag4-447-41/48856 -- energy: -0.052817
   16    17     1     1     1
SMALL
USER_CHARGES


@<TRIPOS>ATOM
      1 N2          2.4157   -0.6674   -0.0451 N.ar       1 <1>        0.000
      2 C15         2.3632    0.5925    0.1093 C.ar       1 <1>        0.000
      3 N3          1.2179    1.3174    0.1828 N.ar       1 <1>        0.000
      4 C16         0.0572    0.7492    0.0980 C.ar       1 <1>        0.000
      5 C17         0.0546   -0.7740   -0.0868 C.ar       1 <1>        0.000
      6 C18        -1.2103   -1.4377   -0.1916 C.ar       1 <1>        0.000
      7 C19        -2.3192   -0.6887   -0.1294 C.ar       1 <1>        0.000
      8 C20        -2.3258    0.7372    0.0471 C.ar       1 <1>        0.000
      9 C21        -1.2189    1.4985    0.1687 C.ar       1 <1>        0.000
     10 C22         1.2373   -1.3474   -0.1386 C.ar       1 <1>        0.000
     11 H           3.3075    1.1311    0.1886 H.spc      1 <1>        0.000
     12 H          -1.2688   -2.5188   -0.3181 H.spc      1 <1>        0.000
     13 H          -3.2805   -1.1947   -0.2186 H.spc      1 <1>        0.000
     14 H          -3.2928    1.2388    0.0854 H.spc      1 <1>        0.000
     15 H          -1.2601    2.5788    0.3079 H.spc      1 <1>        0.000
     16 H           1.2779   -2.4295   -0.2636 H.spc      1 <1>        0.000
@<TRIPOS>BOND
     1    5    6 ar 
     2    8    9 ar 
     3    7    8 ar 
     4    5   10 ar 
     5    4    9 ar 
     6    6    7 ar 
     7    1   10 ar 
     8    1    2 ar 
     9    2    3 ar 
    10    3    4 ar 
    11    4    5 ar 
    12    2   11 1  
    13    6   12 1  
    14    7   13 1  
    15    8   14 1  
    16    9   15 1  
    17   10   16 1  
