#      Rotatable Fragment
#      Build by yxyuan
#
# Name:          frag4-360-102/48856
# Creation time: Sat Jun  5 12:53:16 2010


@<TRIPOS>MOLECULE
frag4-360-102/48856
   17    18     1     1     1
SMALL
USER_CHARGES


@<TRIPOS>ATOM
      1 C1         -0.8444    1.8797    1.5879 C.ar       1 <1>        0.000
      2 C2         -1.2596    0.9110    0.6980 C.ar       1 <1>        0.000
      3 C3         -0.2483    0.1747    0.0369 C.ar       1 <1>        0.000
      4 C4          1.0945    0.5175    0.2178 C.ar       1 <1>        0.000
      5 C5          1.4575    1.4990    1.1339 C.ar       1 <1>        0.000
      6 C6          0.4946    2.1709    1.8162 C.ar       1 <1>        0.000
      7 C15        -0.9060   -0.8724   -0.7591 C.3        1 <1>        0.000
      8 C16        -2.3427   -0.7179   -0.2854 C.3        1 <1>        0.000
      9 O3         -2.4924    0.4917    0.4020 O.3        1 <1>        0.000
     10 H          -1.6005    2.4416    2.1363 H.spc      1 <1>        0.000
     11 H           1.8643    0.0110   -0.3644 H.spc      1 <1>        0.000
     12 H           2.5097    1.7278    1.3034 H.spc      1 <1>        0.000
     13 H           0.7716    2.9365    2.5409 H.spc      1 <1>        0.000
     14 H          -0.7770   -0.7614   -1.8357 H.spc      1 <1>        0.000
     15 H          -0.4927   -1.8702   -0.6120 H.spc      1 <1>        0.000
     16 H          -3.0077   -0.7243   -1.1490 H.spc      1 <1>        0.000
     17 H          -2.5909   -1.5429    0.3823 H.spc      1 <1>        0.000
@<TRIPOS>BOND
     1    8    9 1  
     2    7    8 1  
     3    1    2 ar 
     4    1    6 ar 
     5    2    3 ar 
     6    2    9 1  
     7    3    4 ar 
     8    3    7 1  
     9    4    5 ar 
    10    5    6 ar 
    11    1   10 1  
    12    4   11 1  
    13    5   12 1  
    14    6   13 1  
    15    7   14 1  
    16    7   15 1  
    17    8   16 1  
    18    8   17 1  
# Name:          frag4-360-102/48856 -- energy: -0.651592
# Creation time: Sat Jun  5 12:53:16 2010


@<TRIPOS>MOLECULE
frag4-360-102/48856 -- energy: -0.651592
   17    18     1     1     1
SMALL
USER_CHARGES


@<TRIPOS>ATOM
      1 C1         -0.8444    1.8797    1.5879 C.ar       1 <1>        0.000
      2 C2         -1.2596    0.9110    0.6980 C.ar       1 <1>        0.000
      3 C3         -0.2483    0.1747    0.0369 C.ar       1 <1>        0.000
      4 C4          1.0945    0.5175    0.2178 C.ar       1 <1>        0.000
      5 C5          1.4575    1.4990    1.1339 C.ar       1 <1>        0.000
      6 C6          0.4946    2.1709    1.8162 C.ar       1 <1>        0.000
      7 C15        -0.9060   -0.8724   -0.7591 C.3        1 <1>        0.000
      8 C16        -2.3427   -0.7179   -0.2854 C.3        1 <1>        0.000
      9 O3         -2.4924    0.4917    0.4020 O.3        1 <1>        0.000
     10 H          -1.6005    2.4416    2.1363 H.spc      1 <1>        0.000
     11 H           1.8643    0.0110   -0.3644 H.spc      1 <1>        0.000
     12 H           2.5097    1.7278    1.3034 H.spc      1 <1>        0.000
     13 H           0.7716    2.9365    2.5409 H.spc      1 <1>        0.000
     14 H          -0.7770   -0.7614   -1.8357 H.spc      1 <1>        0.000
     15 H          -0.4927   -1.8702   -0.6120 H.spc      1 <1>        0.000
     16 H          -3.0077   -0.7243   -1.1490 H.spc      1 <1>        0.000
     17 H          -2.5909   -1.5429    0.3823 H.spc      1 <1>        0.000
@<TRIPOS>BOND
     1    8    9 1  
     2    7    8 1  
     3    1    2 ar 
     4    1    6 ar 
     5    2    3 ar 
     6    2    9 1  
     7    3    4 ar 
     8    3    7 1  
     9    4    5 ar 
    10    5    6 ar 
    11    1   10 1  
    12    4   11 1  
    13    5   12 1  
    14    6   13 1  
    15    7   14 1  
    16    7   15 1  
    17    8   16 1  
    18    8   17 1  
