#      Rotatable Fragment
#      Build by yxyuan
#
# Name:          frag3-134-39/96164
# Creation time: Sat Jun  5 12:53:02 2010


@<TRIPOS>MOLECULE
frag3-134-39/96164
    8     7     1     1     1
SMALL
USER_CHARGES


@<TRIPOS>ATOM
      1 C16        -1.2085   -0.0394    0.3082 C.2        1 <1>        0.000
      2 C17        -0.0090   -0.0807   -0.5535 C.2        1 <1>        0.000
      3 O2         -1.2731    0.2090    1.5033 O.2        1 <1>        0.000
      4 C18        -0.1421   -0.3598   -1.8573 C.2        1 <1>        0.000
      5 H          -2.1560   -0.2582   -0.1843 H.spc      1 <1>        0.000
      6 H           0.9770    0.1144   -0.1317 H.spc      1 <1>        0.000
      7 H          -1.1300   -0.5543   -2.2749 H.spc      1 <1>        0.000
      8 H           0.7375   -0.3923   -2.5002 H.spc      1 <1>        0.000
@<TRIPOS>BOND
     1    1    2 1  
     2    1    3 2  
     3    2    4 2  
     4    1    5 1  
     5    2    6 1  
     6    4    7 1  
     7    4    8 1  
# Name:          frag3-134-39/96164
# Creation time: Sat Jun  5 12:53:02 2010


@<TRIPOS>MOLECULE
frag3-134-39/96164
    8     7     1     1     1
SMALL
USER_CHARGES


@<TRIPOS>ATOM
      1 C16        -0.5751    0.2788    0.6617 C.2        1 <1>        0.000
      2 C17         0.1488    0.0154   -0.6118 C.2        1 <1>        0.000
      3 O2         -1.6914   -0.0877    1.0114 O.2        1 <1>        0.000
      4 C18        -0.5149   -0.4774   -1.6607 C.2        1 <1>        0.000
      5 H          -0.0345    0.8852    1.3884 H.spc      1 <1>        0.000
      6 H           1.2160    0.2238   -0.6880 H.spc      1 <1>        0.000
      7 H          -1.5821   -0.6849   -1.5819 H.spc      1 <1>        0.000
      8 H           0.0106   -0.6721   -2.5956 H.spc      1 <1>        0.000
@<TRIPOS>BOND
     1    1    2 1  
     2    1    3 2  
     3    2    4 2  
     4    1    5 1  
     5    2    6 1  
     6    4    7 1  
     7    4    8 1  
# Name:          frag3-134-39/96164 -- energy: -0.226562
# Creation time: Sat Jun  5 12:53:02 2010


@<TRIPOS>MOLECULE
frag3-134-39/96164 -- energy: -0.226562
    8     7     1     1     1
SMALL
USER_CHARGES


@<TRIPOS>ATOM
      1 C16        -1.2085   -0.0394    0.3082 C.2        1 <1>        0.000
      2 C17        -0.0090   -0.0807   -0.5535 C.2        1 <1>        0.000
      3 O2         -1.2731    0.2090    1.5033 O.2        1 <1>        0.000
      4 C18        -0.1421   -0.3598   -1.8573 C.2        1 <1>        0.000
      5 H          -2.1560   -0.2582   -0.1843 H.spc      1 <1>        0.000
      6 H           0.9770    0.1144   -0.1317 H.spc      1 <1>        0.000
      7 H          -1.1300   -0.5543   -2.2749 H.spc      1 <1>        0.000
      8 H           0.7375   -0.3923   -2.5002 H.spc      1 <1>        0.000
@<TRIPOS>BOND
     1    1    2 1  
     2    1    3 2  
     3    2    4 2  
     4    1    5 1  
     5    2    6 1  
     6    4    7 1  
     7    4    8 1  
# Name:          frag3-134-39/96164 -- energy: -0.238847
# Creation time: Sat Jun  5 12:53:02 2010


@<TRIPOS>MOLECULE
frag3-134-39/96164 -- energy: -0.238847
    8     7     1     1     1
SMALL
USER_CHARGES


@<TRIPOS>ATOM
      1 C16        -0.5751    0.2788    0.6617 C.2        1 <1>        0.000
      2 C17         0.1488    0.0154   -0.6118 C.2        1 <1>        0.000
      3 O2         -1.6914   -0.0877    1.0114 O.2        1 <1>        0.000
      4 C18        -0.5149   -0.4774   -1.6607 C.2        1 <1>        0.000
      5 H          -0.0345    0.8852    1.3884 H.spc      1 <1>        0.000
      6 H           1.2160    0.2238   -0.6880 H.spc      1 <1>        0.000
      7 H          -1.5821   -0.6849   -1.5819 H.spc      1 <1>        0.000
      8 H           0.0106   -0.6721   -2.5956 H.spc      1 <1>        0.000
@<TRIPOS>BOND
     1    1    2 1  
     2    1    3 2  
     3    2    4 2  
     4    1    5 1  
     5    2    6 1  
     6    4    7 1  
     7    4    8 1  
