#      Rotatable Fragment
#      Build by yxyuan
#
# Name:          frag3-152-23/96164
# Creation time: Sat Jun  5 12:53:06 2010


@<TRIPOS>MOLECULE
frag3-152-23/96164
    6     5     1     1     1
SMALL
USER_CHARGES


@<TRIPOS>ATOM
      1 C2          0.5606    0.2841    0.0021 C.2        1 <1>        0.000
      2 C5         -0.6415   -0.2476    0.0064 C.2        1 <1>        0.000
      3 F1          1.7116   -0.3902   -0.1898 F          1 <1>        0.000
      4 H           0.6325    1.3591    0.1674 H.spc      1 <1>        0.000
      5 H          -0.7643   -1.3186   -0.1545 H.spc      1 <1>        0.000
      6 H          -1.5156    0.3825    0.1709 H.spc      1 <1>        0.000
@<TRIPOS>BOND
     1    1    3 1  
     2    1    2 2  
     3    1    4 1  
     4    2    5 1  
     5    2    6 1  
# Name:          frag3-152-23/96164 -- energy: -0.078852
# Creation time: Sat Jun  5 12:53:06 2010


@<TRIPOS>MOLECULE
frag3-152-23/96164 -- energy: -0.078852
    6     5     1     1     1
SMALL
USER_CHARGES


@<TRIPOS>ATOM
      1 C2          0.5606    0.2841    0.0021 C.2        1 <1>        0.000
      2 C5         -0.6415   -0.2476    0.0064 C.2        1 <1>        0.000
      3 F1          1.7116   -0.3902   -0.1898 F          1 <1>        0.000
      4 H           0.6325    1.3591    0.1674 H.spc      1 <1>        0.000
      5 H          -0.7643   -1.3186   -0.1545 H.spc      1 <1>        0.000
      6 H          -1.5156    0.3825    0.1709 H.spc      1 <1>        0.000
@<TRIPOS>BOND
     1    1    3 1  
     2    1    2 2  
     3    1    4 1  
     4    2    5 1  
     5    2    6 1  
