#      Rotatable Fragment
#      Build by yxyuan
#
# Name:          frag3-280-2/31924
# Creation time: Sat Jun  5 12:52:45 2010


@<TRIPOS>MOLECULE
frag3-280-2/31924
    6     5     1     1     1
SMALL
USER_CHARGES


@<TRIPOS>ATOM
      1 S1          0.6160    1.1956    0.2527 S.3        1 <1>        0.000
      2 S2         -0.5431    1.0964   -1.3518 S.3        1 <1>        0.000
      3 S3          0.1736    2.6148   -2.3897 S.3        1 <1>        0.000
      4 S4          1.8539   -0.2972   -0.1169 S.3        1 <1>        0.000
      5 H          -0.4920    2.7195   -3.5364 H.spc      1 <1>        0.000
      6 H           2.7347   -0.3965    0.8747 H.spc      1 <1>        0.000
@<TRIPOS>BOND
     1    1    2 1  
     2    1    4 1  
     3    2    3 1  
     4    3    5 1  
     5    4    6 1  
# Name:          frag3-280-2/31924
# Creation time: Sat Jun  5 12:52:45 2010


@<TRIPOS>MOLECULE
frag3-280-2/31924
    6     5     1     1     1
SMALL
USER_CHARGES


@<TRIPOS>ATOM
      1 S1          0.1343    0.3110   -0.0295 S.3        1 <1>        0.000
      2 S2         -0.4863    1.9688   -0.7951 S.3        1 <1>        0.000
      3 S3          0.3459    2.1042   -2.5951 S.3        1 <1>        0.000
      4 S4          2.1065    0.2256   -0.1859 S.3        1 <1>        0.000
      5 H          -0.0452    3.2334   -3.1788 H.spc      1 <1>        0.000
      6 H           2.5424   -0.9155    0.3402 H.spc      1 <1>        0.000
@<TRIPOS>BOND
     1    1    2 1  
     2    1    4 1  
     3    2    3 1  
     4    3    5 1  
     5    4    6 1  
# Name:          frag3-280-2/31924
# Creation time: Sat Jun  5 12:52:45 2010


@<TRIPOS>MOLECULE
frag3-280-2/31924
    6     5     1     1     1
SMALL
USER_CHARGES


@<TRIPOS>ATOM
      1 S1          1.3995    1.2516   -0.3260 S.3        1 <1>        0.000
      2 S2          0.1716    1.0302   -1.8972 S.3        1 <1>        0.000
      3 S3         -0.6600    2.8237   -1.9598 S.3        1 <1>        0.000
      4 S4          1.1892   -0.4959    0.5773 S.3        1 <1>        0.000
      5 H          -1.5289    2.8729   -2.9655 H.spc      1 <1>        0.000
      6 H           1.9515   -0.5246    1.6668 H.spc      1 <1>        0.000
@<TRIPOS>BOND
     1    1    2 1  
     2    1    4 1  
     3    2    3 1  
     4    3    5 1  
     5    4    6 1  
# Name:          frag3-280-2/31924 -- energy: -0.161314
# Creation time: Sat Jun  5 12:52:45 2010


@<TRIPOS>MOLECULE
frag3-280-2/31924 -- energy: -0.161314
    6     5     1     1     1
SMALL
USER_CHARGES


@<TRIPOS>ATOM
      1 S1          0.6160    1.1956    0.2527 S.3        1 <1>        0.000
      2 S2         -0.5431    1.0964   -1.3518 S.3        1 <1>        0.000
      3 S3          0.1736    2.6148   -2.3897 S.3        1 <1>        0.000
      4 S4          1.8539   -0.2972   -0.1169 S.3        1 <1>        0.000
      5 H          -0.4920    2.7195   -3.5364 H.spc      1 <1>        0.000
      6 H           2.7347   -0.3965    0.8747 H.spc      1 <1>        0.000
@<TRIPOS>BOND
     1    1    2 1  
     2    1    4 1  
     3    2    3 1  
     4    3    5 1  
     5    4    6 1  
# Name:          frag3-280-2/31924 -- energy: -0.207102
# Creation time: Sat Jun  5 12:52:45 2010


@<TRIPOS>MOLECULE
frag3-280-2/31924 -- energy: -0.207102
    6     5     1     1     1
SMALL
USER_CHARGES


@<TRIPOS>ATOM
      1 S1          0.1343    0.3110   -0.0295 S.3        1 <1>        0.000
      2 S2         -0.4863    1.9688   -0.7951 S.3        1 <1>        0.000
      3 S3          0.3459    2.1042   -2.5951 S.3        1 <1>        0.000
      4 S4          2.1065    0.2256   -0.1859 S.3        1 <1>        0.000
      5 H          -0.0452    3.2334   -3.1788 H.spc      1 <1>        0.000
      6 H           2.5424   -0.9155    0.3402 H.spc      1 <1>        0.000
@<TRIPOS>BOND
     1    1    2 1  
     2    1    4 1  
     3    2    3 1  
     4    3    5 1  
     5    4    6 1  
# Name:          frag3-280-2/31924 -- energy: -0.103149
# Creation time: Sat Jun  5 12:52:45 2010


@<TRIPOS>MOLECULE
frag3-280-2/31924 -- energy: -0.103149
    6     5     1     1     1
SMALL
USER_CHARGES


@<TRIPOS>ATOM
      1 S1          1.3995    1.2516   -0.3260 S.3        1 <1>        0.000
      2 S2          0.1716    1.0302   -1.8972 S.3        1 <1>        0.000
      3 S3         -0.6600    2.8237   -1.9598 S.3        1 <1>        0.000
      4 S4          1.1892   -0.4959    0.5773 S.3        1 <1>        0.000
      5 H          -1.5289    2.8729   -2.9655 H.spc      1 <1>        0.000
      6 H           1.9515   -0.5246    1.6668 H.spc      1 <1>        0.000
@<TRIPOS>BOND
     1    1    2 1  
     2    1    4 1  
     3    2    3 1  
     4    3    5 1  
     5    4    6 1  
