#      Rotatable Fragment
#      Build by yxyuan
#
# Name:          frag5-494-2363/41815
# Creation time: Sat Jun  5 12:52:50 2010


@<TRIPOS>MOLECULE
frag5-494-2363/41815
   13    13     1     1     1
SMALL
USER_CHARGES


@<TRIPOS>ATOM
      1 C4          1.5825    0.5411   -0.0286 C.ar       1 <1>        0.000
      2 C5          0.5635    1.4908   -0.0737 C.ar       1 <1>        0.000
      3 C6         -0.7737    1.0884   -0.0325 C.ar       1 <1>        0.000
      4 C7         -1.1099   -0.2685    0.0559 C.ar       1 <1>        0.000
      5 C8         -0.0784   -1.2175    0.1007 C.ar       1 <1>        0.000
      6 C9          1.2624   -0.8114    0.0589 C.ar       1 <1>        0.000
      7 O1         -2.4383   -0.6617    0.0983 O.3        1 <1>        0.000
      8 H           2.6256    0.8556   -0.0617 H.spc      1 <1>        0.000
      9 H           0.8105    2.5503   -0.1413 H.spc      1 <1>        0.000
     10 H          -1.5638    1.8383   -0.0695 H.spc      1 <1>        0.000
     11 H          -0.3210   -2.2780    0.1685 H.spc      1 <1>        0.000
     12 H           2.0571   -1.5565    0.0950 H.spc      1 <1>        0.000
     13 H          -2.4858   -1.6187    0.1581 H.spc      1 <1>        0.000
@<TRIPOS>BOND
     1    1    2 ar 
     2    1    6 ar 
     3    2    3 ar 
     4    3    4 ar 
     5    4    5 ar 
     6    4    7 1  
     7    5    6 ar 
     8    1    8 1  
     9    2    9 1  
    10    3   10 1  
    11    5   11 1  
    12    6   12 1  
    13    7   13 1  
# Name:          frag5-494-2363/41815 -- energy: 0.000055
# Creation time: Sat Jun  5 12:52:50 2010


@<TRIPOS>MOLECULE
frag5-494-2363/41815 -- energy: 0.000055
   13    13     1     1     1
SMALL
USER_CHARGES


@<TRIPOS>ATOM
      1 C4          1.5825    0.5411   -0.0286 C.ar       1 <1>        0.000
      2 C5          0.5635    1.4908   -0.0737 C.ar       1 <1>        0.000
      3 C6         -0.7737    1.0884   -0.0325 C.ar       1 <1>        0.000
      4 C7         -1.1099   -0.2685    0.0559 C.ar       1 <1>        0.000
      5 C8         -0.0784   -1.2175    0.1007 C.ar       1 <1>        0.000
      6 C9          1.2624   -0.8114    0.0589 C.ar       1 <1>        0.000
      7 O1         -2.4383   -0.6617    0.0983 O.3        1 <1>        0.000
      8 H           2.6256    0.8556   -0.0617 H.spc      1 <1>        0.000
      9 H           0.8105    2.5503   -0.1413 H.spc      1 <1>        0.000
     10 H          -1.5638    1.8383   -0.0695 H.spc      1 <1>        0.000
     11 H          -0.3210   -2.2780    0.1685 H.spc      1 <1>        0.000
     12 H           2.0571   -1.5565    0.0950 H.spc      1 <1>        0.000
     13 H          -2.4858   -1.6187    0.1581 H.spc      1 <1>        0.000
@<TRIPOS>BOND
     1    1    2 ar 
     2    1    6 ar 
     3    2    3 ar 
     4    3    4 ar 
     5    4    5 ar 
     6    4    7 1  
     7    5    6 ar 
     8    1    8 1  
     9    2    9 1  
    10    3   10 1  
    11    5   11 1  
    12    6   12 1  
    13    7   13 1  
