#      Rotatable Fragment
#      Build by yxyuan
#
# Name:          frag5-640-82/138278
# Creation time: Sat Jun  5 12:53:49 2010


@<TRIPOS>MOLECULE
frag5-640-82/138278
    7     7     1     1     1
SMALL
USER_CHARGES


@<TRIPOS>ATOM
      1 S2          0.1326    0.1192    0.9119 S.3        1 <1>        0.000
      2 C14         1.5618   -0.4747    0.2058 C.ar       1 <1>        0.000
      3 N3          2.4968    0.3645   -0.0590 N.ar       1 <1>        0.000
      4 N4          2.0045   -1.6953   -0.2989 N.ar       1 <1>        0.000
      5 N5          3.5074   -0.2567   -0.6253 N.ar       1 <1>        0.000
      6 N6          3.2123   -1.5558   -0.7640 N.ar       1 <1>        0.000
      7 H           0.2880    1.4065    1.2081 H.spc      1 <1>        0.000
@<TRIPOS>BOND
     1    1    2 1  
     2    2    4 ar 
     3    3    5 ar 
     4    4    6 ar 
     5    5    6 ar 
     6    2    3 ar 
     7    1    7 1  
# Name:          frag5-640-82/138278 -- energy: -0.179974
# Creation time: Sat Jun  5 12:53:49 2010


@<TRIPOS>MOLECULE
frag5-640-82/138278 -- energy: -0.179974
    7     7     1     1     1
SMALL
USER_CHARGES


@<TRIPOS>ATOM
      1 S2          0.1326    0.1192    0.9119 S.3        1 <1>        0.000
      2 C14         1.5618   -0.4747    0.2058 C.ar       1 <1>        0.000
      3 N3          2.4968    0.3645   -0.0590 N.ar       1 <1>        0.000
      4 N4          2.0045   -1.6953   -0.2989 N.ar       1 <1>        0.000
      5 N5          3.5074   -0.2567   -0.6253 N.ar       1 <1>        0.000
      6 N6          3.2123   -1.5558   -0.7640 N.ar       1 <1>        0.000
      7 H           0.2880    1.4065    1.2081 H.spc      1 <1>        0.000
@<TRIPOS>BOND
     1    1    2 1  
     2    2    4 ar 
     3    3    5 ar 
     4    4    6 ar 
     5    5    6 ar 
     6    2    3 ar 
     7    1    7 1  
