#      Rotatable Fragment
#      Build by yxyuan
#
# Name:          frag5-587-123/138278
# Creation time: Sat Jun  5 12:53:45 2010


@<TRIPOS>MOLECULE
frag5-587-123/138278
   29    32     1     1     1
SMALL
USER_CHARGES


@<TRIPOS>ATOM
      1 C1          0.3750   -1.4157    0.6058 C.3        1 <1>        0.000
      2 C2         -0.9109   -0.6902    0.2103 C.ar       1 <1>        0.000
      3 C3          1.6035   -0.6169    0.1461 C.3        1 <1>        0.000
      4 C5         -0.9215    0.6933   -0.1275 C.ar       1 <1>        0.000
      5 C6         -2.1019   -1.4203    0.1879 C.ar       1 <1>        0.000
      6 C7          1.4766    0.8265    0.6534 C.3        1 <1>        0.000
      7 C8          2.9543   -0.9294    0.7233 C.2        1 <1>        0.000
      8 O4         -4.5096   -1.3699   -0.3246 O.3        1 <1>        0.000
      9 C11         0.3504    1.5386   -0.1173 C.3        1 <1>        0.000
     10 C12        -2.1241    1.3132   -0.4826 C.ar       1 <1>        0.000
     11 C13        -3.2739   -0.7925   -0.1970 C.ar       1 <1>        0.000
     12 C14         2.9204    1.3038    0.4596 C.3        1 <1>        0.000
     13 O1          3.6902    0.1811    0.9135 O.3        1 <1>        0.000
     14 O2          3.3373   -2.0514    1.0165 O.2        1 <1>        0.000
     15 C17        -3.2864    0.5623   -0.5171 C.ar       1 <1>        0.000
     16 O6         -4.5352    1.0031   -0.8656 O.3        1 <1>        0.000
     17 C20        -5.1880   -0.2895   -1.0244 C.3        1 <1>        0.000
     18 H           0.4047   -1.5197    1.6904 H.spc      1 <1>        0.000
     19 H           0.3904   -2.3960    0.1295 H.spc      1 <1>        0.000
     20 H           1.5858   -0.8399   -0.9207 H.spc      1 <1>        0.000
     21 H          -2.1081   -2.4730    0.4705 H.spc      1 <1>        0.000
     22 H           1.1621    1.0050    1.6817 H.spc      1 <1>        0.000
     23 H           0.1363    2.4884    0.3728 H.spc      1 <1>        0.000
     24 H           0.6748    1.6964   -1.1459 H.spc      1 <1>        0.000
     25 H          -2.1457    2.3747   -0.7292 H.spc      1 <1>        0.000
     26 H           3.1410    1.5804   -0.5714 H.spc      1 <1>        0.000
     27 H           3.1417    2.2194    1.0080 H.spc      1 <1>        0.000
     28 H          -5.1822   -0.5319   -2.0871 H.spc      1 <1>        0.000
     29 H          -6.1904   -0.2049   -0.6048 H.spc      1 <1>        0.000
@<TRIPOS>BOND
     1   16   17 1  
     2   15   16 1  
     3    8   17 1  
     4    2    5 ar 
     5   12   13 1  
     6    1    3 1  
     7   11   15 ar 
     8    3    7 1  
     9    6   12 1  
    10    7   13 1  
    11    5   11 ar 
    12    1    2 1  
    13    3    6 1  
    14    4    9 1  
    15    7   14 2  
    16    4   10 ar 
    17   11    8 1  
    18    2    4 ar 
    19    6    9 1  
    20   10   15 ar 
    21    1   18 1  
    22    1   19 1  
    23    3   20 1  
    24    5   21 1  
    25    6   22 1  
    26    9   23 1  
    27    9   24 1  
    28   10   25 1  
    29   12   26 1  
    30   12   27 1  
    31   17   28 1  
    32   17   29 1  
# Name:          frag5-587-123/138278 -- energy: -3.470669
# Creation time: Sat Jun  5 12:53:45 2010


@<TRIPOS>MOLECULE
frag5-587-123/138278 -- energy: -3.470669
   29    32     1     1     1
SMALL
USER_CHARGES


@<TRIPOS>ATOM
      1 C1          0.3750   -1.4157    0.6058 C.3        1 <1>        0.000
      2 C2         -0.9109   -0.6902    0.2103 C.ar       1 <1>        0.000
      3 C3          1.6035   -0.6169    0.1461 C.3        1 <1>        0.000
      4 C5         -0.9215    0.6933   -0.1275 C.ar       1 <1>        0.000
      5 C6         -2.1019   -1.4203    0.1879 C.ar       1 <1>        0.000
      6 C7          1.4766    0.8265    0.6534 C.3        1 <1>        0.000
      7 C8          2.9543   -0.9294    0.7233 C.2        1 <1>        0.000
      8 O4         -4.5096   -1.3699   -0.3246 O.3        1 <1>        0.000
      9 C11         0.3504    1.5386   -0.1173 C.3        1 <1>        0.000
     10 C12        -2.1241    1.3132   -0.4826 C.ar       1 <1>        0.000
     11 C13        -3.2739   -0.7925   -0.1970 C.ar       1 <1>        0.000
     12 C14         2.9204    1.3038    0.4596 C.3        1 <1>        0.000
     13 O1          3.6902    0.1811    0.9135 O.3        1 <1>        0.000
     14 O2          3.3373   -2.0514    1.0165 O.2        1 <1>        0.000
     15 C17        -3.2864    0.5623   -0.5171 C.ar       1 <1>        0.000
     16 O6         -4.5352    1.0031   -0.8656 O.3        1 <1>        0.000
     17 C20        -5.1880   -0.2895   -1.0244 C.3        1 <1>        0.000
     18 H           0.4047   -1.5197    1.6904 H.spc      1 <1>        0.000
     19 H           0.3904   -2.3960    0.1295 H.spc      1 <1>        0.000
     20 H           1.5858   -0.8399   -0.9207 H.spc      1 <1>        0.000
     21 H          -2.1081   -2.4730    0.4705 H.spc      1 <1>        0.000
     22 H           1.1621    1.0050    1.6817 H.spc      1 <1>        0.000
     23 H           0.1363    2.4884    0.3728 H.spc      1 <1>        0.000
     24 H           0.6748    1.6964   -1.1459 H.spc      1 <1>        0.000
     25 H          -2.1457    2.3747   -0.7292 H.spc      1 <1>        0.000
     26 H           3.1410    1.5804   -0.5714 H.spc      1 <1>        0.000
     27 H           3.1417    2.2194    1.0080 H.spc      1 <1>        0.000
     28 H          -5.1822   -0.5319   -2.0871 H.spc      1 <1>        0.000
     29 H          -6.1904   -0.2049   -0.6048 H.spc      1 <1>        0.000
@<TRIPOS>BOND
     1   16   17 1  
     2   15   16 1  
     3    8   17 1  
     4    2    5 ar 
     5   12   13 1  
     6    1    3 1  
     7   11   15 ar 
     8    3    7 1  
     9    6   12 1  
    10    7   13 1  
    11    5   11 ar 
    12    1    2 1  
    13    3    6 1  
    14    4    9 1  
    15    7   14 2  
    16    4   10 ar 
    17   11    8 1  
    18    2    4 ar 
    19    6    9 1  
    20   10   15 ar 
    21    1   18 1  
    22    1   19 1  
    23    3   20 1  
    24    5   21 1  
    25    6   22 1  
    26    9   23 1  
    27    9   24 1  
    28   10   25 1  
    29   12   26 1  
    30   12   27 1  
    31   17   28 1  
    32   17   29 1  
