#      Rotatable Fragment
#      Build by yxyuan
#
# Name:          frag4-389-70/48856
# Creation time: Sat Jun  5 12:53:41 2010


@<TRIPOS>MOLECULE
frag4-389-70/48856
   25    26     1     1     1
SMALL
USER_CHARGES


@<TRIPOS>ATOM
      1 N1         -0.2344    0.4033   -0.0282 N.4        1 <1>        0.000
      2 C1          0.7207    0.8103   -1.0785 C.3        1 <1>        0.000
      3 C2          1.9154    1.4762   -0.3910 C.3        1 <1>        0.000
      4 C3          3.0092    0.4959   -0.0348 C.ar       1 <1>        0.000
      5 C4          2.7735   -0.5452    0.9045 C.ar       1 <1>        0.000
      6 C5          3.8191   -1.4415    1.1858 C.ar       1 <1>        0.000
      7 C6          5.0625   -1.3339    0.5768 C.ar       1 <1>        0.000
      8 C7          5.2910   -0.3144   -0.3439 C.ar       1 <1>        0.000
      9 C8          4.2725    0.5811   -0.6418 C.ar       1 <1>        0.000
     10 C10         1.4207   -0.6900    1.5797 C.3        1 <1>        0.000
     11 C11         0.1281   -0.7945    0.7500 C.3        1 <1>        0.000
     12 H          -1.1067    0.1793   -0.5070 H.spc      1 <1>        0.000
     13 H          -0.2726    1.1752    0.6374 H.spc      1 <1>        0.000
     14 H           0.2473    1.5052   -1.7721 H.spc      1 <1>        0.000
     15 H           1.0483   -0.0584   -1.6496 H.spc      1 <1>        0.000
     16 H           1.5582    1.9277    0.5345 H.spc      1 <1>        0.000
     17 H           2.3345    2.2058   -1.0839 H.spc      1 <1>        0.000
     18 H           3.6490   -2.2445    1.9030 H.spc      1 <1>        0.000
     19 H           5.8545   -2.0429    0.8179 H.spc      1 <1>        0.000
     20 H           6.2632   -0.2200   -0.8276 H.spc      1 <1>        0.000
     21 H           4.4589    1.3727   -1.3675 H.spc      1 <1>        0.000
     22 H           1.3026    0.2391    2.1374 H.spc      1 <1>        0.000
     23 H           1.4831   -1.6490    2.0940 H.spc      1 <1>        0.000
     24 H          -0.6818   -0.9555    1.4616 H.spc      1 <1>        0.000
     25 H           0.2909   -1.5934    0.0266 H.spc      1 <1>        0.000
@<TRIPOS>BOND
     1    1    2 1  
     2    5    6 ar 
     3    5   10 1  
     4    7    8 ar 
     5    8    9 ar 
     6    4    9 ar 
     7    6    7 ar 
     8    2    3 1  
     9    3    4 1  
    10   10   11 1  
    11    1   11 1  
    12    4    5 ar 
    13    1   12 1  
    14    1   13 1  
    15    2   14 1  
    16    2   15 1  
    17    3   16 1  
    18    3   17 1  
    19    6   18 1  
    20    7   19 1  
    21    8   20 1  
    22    9   21 1  
    23   10   22 1  
    24   10   23 1  
    25   11   24 1  
    26   11   25 1  
# Name:          frag4-389-70/48856 -- energy: -2.356682
# Creation time: Sat Jun  5 12:53:41 2010


@<TRIPOS>MOLECULE
frag4-389-70/48856 -- energy: -2.356682
   25    26     1     1     1
SMALL
USER_CHARGES


@<TRIPOS>ATOM
      1 N1         -0.2344    0.4033   -0.0282 N.4        1 <1>        0.000
      2 C1          0.7207    0.8103   -1.0785 C.3        1 <1>        0.000
      3 C2          1.9154    1.4762   -0.3910 C.3        1 <1>        0.000
      4 C3          3.0092    0.4959   -0.0348 C.ar       1 <1>        0.000
      5 C4          2.7735   -0.5452    0.9045 C.ar       1 <1>        0.000
      6 C5          3.8191   -1.4415    1.1858 C.ar       1 <1>        0.000
      7 C6          5.0625   -1.3339    0.5768 C.ar       1 <1>        0.000
      8 C7          5.2910   -0.3144   -0.3439 C.ar       1 <1>        0.000
      9 C8          4.2725    0.5811   -0.6418 C.ar       1 <1>        0.000
     10 C10         1.4207   -0.6900    1.5797 C.3        1 <1>        0.000
     11 C11         0.1281   -0.7945    0.7500 C.3        1 <1>        0.000
     12 H          -1.1067    0.1793   -0.5070 H.spc      1 <1>        0.000
     13 H          -0.2726    1.1752    0.6374 H.spc      1 <1>        0.000
     14 H           0.2473    1.5052   -1.7721 H.spc      1 <1>        0.000
     15 H           1.0483   -0.0584   -1.6496 H.spc      1 <1>        0.000
     16 H           1.5582    1.9277    0.5345 H.spc      1 <1>        0.000
     17 H           2.3345    2.2058   -1.0839 H.spc      1 <1>        0.000
     18 H           3.6490   -2.2445    1.9030 H.spc      1 <1>        0.000
     19 H           5.8545   -2.0429    0.8179 H.spc      1 <1>        0.000
     20 H           6.2632   -0.2200   -0.8276 H.spc      1 <1>        0.000
     21 H           4.4589    1.3727   -1.3675 H.spc      1 <1>        0.000
     22 H           1.3026    0.2391    2.1374 H.spc      1 <1>        0.000
     23 H           1.4831   -1.6490    2.0940 H.spc      1 <1>        0.000
     24 H          -0.6818   -0.9555    1.4616 H.spc      1 <1>        0.000
     25 H           0.2909   -1.5934    0.0266 H.spc      1 <1>        0.000
@<TRIPOS>BOND
     1    1    2 1  
     2    5    6 ar 
     3    5   10 1  
     4    7    8 ar 
     5    8    9 ar 
     6    4    9 ar 
     7    6    7 ar 
     8    2    3 1  
     9    3    4 1  
    10   10   11 1  
    11    1   11 1  
    12    4    5 ar 
    13    1   12 1  
    14    1   13 1  
    15    2   14 1  
    16    2   15 1  
    17    3   16 1  
    18    3   17 1  
    19    6   18 1  
    20    7   19 1  
    21    8   20 1  
    22    9   21 1  
    23   10   22 1  
    24   10   23 1  
    25   11   24 1  
    26   11   25 1  
