#      Rotatable Fragment
#      Build by yxyuan
#
# Name:          frag4-329-652/150395
# Creation time: Sat Jun  5 12:53:31 2010


@<TRIPOS>MOLECULE
frag4-329-652/150395
    8     8     1     1     1
SMALL
USER_CHARGES


@<TRIPOS>ATOM
      1 C1         -0.5929    0.4836    0.1774 C.ar       1 <1>        0.000
      2 C3          0.8476    0.6779   -0.0570 C.ar       1 <1>        0.000
      3 C4         -0.6127   -0.8356    0.0438 C.ar       1 <1>        0.000
      4 O2          1.5050   -0.4199   -0.2233 O.3        1 <1>        0.000
      5 N2          0.5842   -1.4514   -0.1891 N.ar       1 <1>        0.000
      6 H          -1.3890    1.1965    0.3922 H.spc      1 <1>        0.000
      7 H           1.3168    1.6613   -0.0873 H.spc      1 <1>        0.000
      8 H          -1.5410   -1.4023    0.1165 H.spc      1 <1>        0.000
@<TRIPOS>BOND
     1    1    2 ar 
     2    1    3 ar 
     3    2    4 ar 
     4    4    5 ar 
     5    3    5 ar 
     6    1    6 1  
     7    2    7 1  
     8    3    8 1  
# Name:          frag4-329-652/150395 -- energy: -0.163944
# Creation time: Sat Jun  5 12:53:31 2010


@<TRIPOS>MOLECULE
frag4-329-652/150395 -- energy: -0.163944
    8     8     1     1     1
SMALL
USER_CHARGES


@<TRIPOS>ATOM
      1 C1         -0.5929    0.4836    0.1774 C.ar       1 <1>        0.000
      2 C3          0.8476    0.6779   -0.0570 C.ar       1 <1>        0.000
      3 C4         -0.6127   -0.8356    0.0438 C.ar       1 <1>        0.000
      4 O2          1.5050   -0.4199   -0.2233 O.3        1 <1>        0.000
      5 N2          0.5842   -1.4514   -0.1891 N.ar       1 <1>        0.000
      6 H          -1.3890    1.1965    0.3922 H.spc      1 <1>        0.000
      7 H           1.3168    1.6613   -0.0873 H.spc      1 <1>        0.000
      8 H          -1.5410   -1.4023    0.1165 H.spc      1 <1>        0.000
@<TRIPOS>BOND
     1    1    2 ar 
     2    1    3 ar 
     3    2    4 ar 
     4    4    5 ar 
     5    3    5 ar 
     6    1    6 1  
     7    2    7 1  
     8    3    8 1  
