#      Rotatable Fragment
#      Build by yxyuan
#
# Name:          frag4-461-37/48856
# Creation time: Sat Jun  5 12:52:48 2010


@<TRIPOS>MOLECULE
frag4-461-37/48856
   22    24     1     1     1
SMALL
USER_CHARGES


@<TRIPOS>ATOM
      1 N1          2.1027   -1.9364   -0.2501 N.2        1 <1>        0.000
      2 C1          0.6983   -2.4348   -0.1558 C.3        1 <1>        0.000
      3 C2         -0.3274   -1.4566   -0.0275 C.ar       1 <1>        0.000
      4 C3         -0.0061   -0.0039   -0.0019 C.ar       1 <1>        0.000
      5 C4         -1.0359    0.9909    0.1273 C.ar       1 <1>        0.000
      6 C5         -0.7256    2.3893    0.1519 C.ar       1 <1>        0.000
      7 C6          0.6463    2.7658    0.0425 C.ar       1 <1>        0.000
      8 C7          1.6927    1.7833   -0.0889 C.ar       1 <1>        0.000
      9 C8          1.4309    0.3744   -0.1146 C.ar       1 <1>        0.000
     10 C9          2.4452   -0.6328   -0.2368 C.2        1 <1>        0.000
     11 C10        -2.4162    0.6245    0.2383 C.ar       1 <1>        0.000
     12 C11        -2.7367   -0.7653    0.2147 C.ar       1 <1>        0.000
     13 C12        -1.7190   -1.7716    0.0851 C.ar       1 <1>        0.000
     14 H           0.5018   -2.9503   -1.0959 H.spc      1 <1>        0.000
     15 H           0.6552   -3.0323    0.7548 H.spc      1 <1>        0.000
     16 H          -1.5102    3.1395    0.2507 H.spc      1 <1>        0.000
     17 H           0.9097    3.8234    0.0587 H.spc      1 <1>        0.000
     18 H           2.7243    2.1254   -0.1720 H.spc      1 <1>        0.000
     19 H           3.4930   -0.3438   -0.3189 H.spc      1 <1>        0.000
     20 H          -3.1944    1.3812    0.3373 H.spc      1 <1>        0.000
     21 H          -3.7795   -1.0716    0.2970 H.spc      1 <1>        0.000
     22 H          -2.0197   -2.8192    0.0720 H.spc      1 <1>        0.000
@<TRIPOS>BOND
     1    6    7 ar 
     2    2    3 1  
     3   11   12 ar 
     4    5    6 ar 
     5    3   13 ar 
     6    9   10 1  
     7   12   13 ar 
     8    5   11 ar 
     9    8    9 ar 
    10    4    9 ar 
    11    3    4 ar 
    12    4    5 ar 
    13    7    8 ar 
    14    1    2 1  
    15    1   10 2  
    16    2   14 1  
    17    2   15 1  
    18    6   16 1  
    19    7   17 1  
    20    8   18 1  
    21   10   19 1  
    22   11   20 1  
    23   12   21 1  
    24   13   22 1  
# Name:          frag4-461-37/48856 -- energy: -1.526235
# Creation time: Sat Jun  5 12:52:48 2010


@<TRIPOS>MOLECULE
frag4-461-37/48856 -- energy: -1.526235
   22    24     1     1     1
SMALL
USER_CHARGES


@<TRIPOS>ATOM
      1 N1          2.1027   -1.9364   -0.2501 N.2        1 <1>        0.000
      2 C1          0.6983   -2.4348   -0.1558 C.3        1 <1>        0.000
      3 C2         -0.3274   -1.4566   -0.0275 C.ar       1 <1>        0.000
      4 C3         -0.0061   -0.0039   -0.0019 C.ar       1 <1>        0.000
      5 C4         -1.0359    0.9909    0.1273 C.ar       1 <1>        0.000
      6 C5         -0.7256    2.3893    0.1519 C.ar       1 <1>        0.000
      7 C6          0.6463    2.7658    0.0425 C.ar       1 <1>        0.000
      8 C7          1.6927    1.7833   -0.0889 C.ar       1 <1>        0.000
      9 C8          1.4309    0.3744   -0.1146 C.ar       1 <1>        0.000
     10 C9          2.4452   -0.6328   -0.2368 C.2        1 <1>        0.000
     11 C10        -2.4162    0.6245    0.2383 C.ar       1 <1>        0.000
     12 C11        -2.7367   -0.7653    0.2147 C.ar       1 <1>        0.000
     13 C12        -1.7190   -1.7716    0.0851 C.ar       1 <1>        0.000
     14 H           0.5018   -2.9503   -1.0959 H.spc      1 <1>        0.000
     15 H           0.6552   -3.0323    0.7548 H.spc      1 <1>        0.000
     16 H          -1.5102    3.1395    0.2507 H.spc      1 <1>        0.000
     17 H           0.9097    3.8234    0.0587 H.spc      1 <1>        0.000
     18 H           2.7243    2.1254   -0.1720 H.spc      1 <1>        0.000
     19 H           3.4930   -0.3438   -0.3189 H.spc      1 <1>        0.000
     20 H          -3.1944    1.3812    0.3373 H.spc      1 <1>        0.000
     21 H          -3.7795   -1.0716    0.2970 H.spc      1 <1>        0.000
     22 H          -2.0197   -2.8192    0.0720 H.spc      1 <1>        0.000
@<TRIPOS>BOND
     1    6    7 ar 
     2    2    3 1  
     3   11   12 ar 
     4    5    6 ar 
     5    3   13 ar 
     6    9   10 1  
     7   12   13 ar 
     8    5   11 ar 
     9    8    9 ar 
    10    4    9 ar 
    11    3    4 ar 
    12    4    5 ar 
    13    7    8 ar 
    14    1    2 1  
    15    1   10 2  
    16    2   14 1  
    17    2   15 1  
    18    6   16 1  
    19    7   17 1  
    20    8   18 1  
    21   10   19 1  
    22   11   20 1  
    23   12   21 1  
    24   13   22 1  
