#      Rotatable Fragment
#      Build by yxyuan
#
# Name:          frag4-341-478/150395
# Creation time: Sat Jun  5 12:53:31 2010


@<TRIPOS>MOLECULE
frag4-341-478/150395
   11    11     1     1     1
SMALL
USER_CHARGES


@<TRIPOS>ATOM
      1 C1          1.2904    0.4605   -0.3927 C.ar       1 <1>        0.000
      2 C3         -0.3640    1.2849   -0.3403 C.ar       1 <1>        0.000
      3 C4          1.4039   -0.8349   -0.0522 C.ar       1 <1>        0.000
      4 C7         -1.5737    0.6568    0.1439 C.ar       1 <1>        0.000
      5 N1          0.1182   -1.3115    0.2473 N.ar       1 <1>        0.000
      6 C10        -0.7046   -0.3538    0.1969 C.ar       1 <1>        0.000
      7 H           2.1718    1.0239   -0.6991 H.spc      1 <1>        0.000
      8 H          -0.4321    2.3123   -0.6980 H.spc      1 <1>        0.000
      9 H           2.3282   -1.4115   -0.0153 H.spc      1 <1>        0.000
     10 H          -2.6194    0.8841    0.3512 H.spc      1 <1>        0.000
     11 H           0.0915    0.3131   -0.1340 H.spc      1 <1>        0.000
@<TRIPOS>BOND
     1    1    3 ar 
     2    1    2 ar 
     3    2    4 ar 
     4    3    5 ar 
     5    4    6 ar 
     6    5    6 ar 
     7    1    7 1  
     8    2    8 1  
     9    3    9 1  
    10    4   10 1  
    11    6   11 1  
