#      Rotatable Fragment
#      Build by yxyuan
#
# Name:          frag5-607-96/138278
# Creation time: Sat Jun  5 12:53:46 2010


@<TRIPOS>MOLECULE
frag5-607-96/138278
   19    20     1     1     1
SMALL
USER_CHARGES


@<TRIPOS>ATOM
      1 O2          0.1966   -0.4061   -0.2236 O.3        1 <1>        0.000
      2 C16         1.4036    0.3037   -0.1607 C.ar       1 <1>        0.000
      3 C17         2.6132   -0.3972   -0.1002 C.ar       1 <1>        0.000
      4 C18         1.4025    1.7023   -0.1579 C.ar       1 <1>        0.000
      5 C19         3.8242    0.3082    0.0168 C.ar       1 <1>        0.000
      6 C20         2.6355   -1.7949   -0.1523 C.ar       1 <1>        0.000
      7 C21         2.6066    2.4033   -0.0509 C.ar       1 <1>        0.000
      8 C22         3.8124    1.7072    0.0463 C.ar       1 <1>        0.000
      9 C23         5.0316   -0.3943    0.1023 C.ar       1 <1>        0.000
     10 C24         3.8438   -2.4904   -0.0796 C.ar       1 <1>        0.000
     11 C25         5.0449   -1.7897    0.0520 C.ar       1 <1>        0.000
     12 H          -0.5360    0.2132   -0.2599 H.spc      1 <1>        0.000
     13 H           0.4614    2.2461   -0.2393 H.spc      1 <1>        0.000
     14 H           1.7004   -2.3463   -0.2506 H.spc      1 <1>        0.000
     15 H           2.6041    3.4933   -0.0434 H.spc      1 <1>        0.000
     16 H           4.7491    2.2557    0.1456 H.spc      1 <1>        0.000
     17 H           5.9688    0.1520    0.2090 H.spc      1 <1>        0.000
     18 H           3.8499   -3.5794   -0.1255 H.spc      1 <1>        0.000
     19 H           5.9893   -2.3303    0.1152 H.spc      1 <1>        0.000
@<TRIPOS>BOND
     1    4    7 ar 
     2    6   10 ar 
     3   10   11 ar 
     4    5    9 ar 
     5    9   11 ar 
     6    5    8 ar 
     7    7    8 ar 
     8    1    2 1  
     9    2    3 ar 
    10    2    4 ar 
    11    3    5 ar 
    12    3    6 ar 
    13    1   12 1  
    14    4   13 1  
    15    6   14 1  
    16    7   15 1  
    17    8   16 1  
    18    9   17 1  
    19   10   18 1  
    20   11   19 1  
# Name:          frag5-607-96/138278 -- energy: -0.410434
# Creation time: Sat Jun  5 12:53:46 2010


@<TRIPOS>MOLECULE
frag5-607-96/138278 -- energy: -0.410434
   19    20     1     1     1
SMALL
USER_CHARGES


@<TRIPOS>ATOM
      1 O2          0.1966   -0.4061   -0.2236 O.3        1 <1>        0.000
      2 C16         1.4036    0.3037   -0.1607 C.ar       1 <1>        0.000
      3 C17         2.6132   -0.3972   -0.1002 C.ar       1 <1>        0.000
      4 C18         1.4025    1.7023   -0.1579 C.ar       1 <1>        0.000
      5 C19         3.8242    0.3082    0.0168 C.ar       1 <1>        0.000
      6 C20         2.6355   -1.7949   -0.1523 C.ar       1 <1>        0.000
      7 C21         2.6066    2.4033   -0.0509 C.ar       1 <1>        0.000
      8 C22         3.8124    1.7072    0.0463 C.ar       1 <1>        0.000
      9 C23         5.0316   -0.3943    0.1023 C.ar       1 <1>        0.000
     10 C24         3.8438   -2.4904   -0.0796 C.ar       1 <1>        0.000
     11 C25         5.0449   -1.7897    0.0520 C.ar       1 <1>        0.000
     12 H          -0.5360    0.2132   -0.2599 H.spc      1 <1>        0.000
     13 H           0.4614    2.2461   -0.2393 H.spc      1 <1>        0.000
     14 H           1.7004   -2.3463   -0.2506 H.spc      1 <1>        0.000
     15 H           2.6041    3.4933   -0.0434 H.spc      1 <1>        0.000
     16 H           4.7491    2.2557    0.1456 H.spc      1 <1>        0.000
     17 H           5.9688    0.1520    0.2090 H.spc      1 <1>        0.000
     18 H           3.8499   -3.5794   -0.1255 H.spc      1 <1>        0.000
     19 H           5.9893   -2.3303    0.1152 H.spc      1 <1>        0.000
@<TRIPOS>BOND
     1    4    7 ar 
     2    6   10 ar 
     3   10   11 ar 
     4    5    9 ar 
     5    9   11 ar 
     6    5    8 ar 
     7    7    8 ar 
     8    1    2 1  
     9    2    3 ar 
    10    2    4 ar 
    11    3    5 ar 
    12    3    6 ar 
    13    1   12 1  
    14    4   13 1  
    15    6   14 1  
    16    7   15 1  
    17    8   16 1  
    18    9   17 1  
    19   10   18 1  
    20   11   19 1  
