#      Rotatable Fragment
#      Build by yxyuan
#
# Name:          frag5-541-70/41815
# Creation time: Sat Jun  5 12:52:52 2010


@<TRIPOS>MOLECULE
frag5-541-70/41815
   19    19     1     1     1
SMALL
USER_CHARGES


@<TRIPOS>ATOM
      1 N1          0.8047   -3.3888    0.0648 N.am       1 <1>        0.000
      2 C1          0.0048   -3.8537    1.2079 C.3        1 <1>        0.000
      3 C2         -1.1789   -2.9025    1.3717 C.3        1 <1>        0.000
      4 C3         -1.9971   -2.8292    0.0748 C.3        1 <1>        0.000
      5 C4         -1.3564   -3.6341   -1.0698 C.3        1 <1>        0.000
      6 C5          0.1322   -3.3356   -1.2236 C.3        1 <1>        0.000
      7 C18         2.0965   -3.0418    0.2030 C.2        1 <1>        0.000
      8 O5          2.7760   -3.2262    1.2002 O.2        1 <1>        0.000
      9 H           0.6107   -3.8613    2.1140 H.spc      1 <1>        0.000
     10 H          -0.3492   -4.8695    1.0322 H.spc      1 <1>        0.000
     11 H          -0.8021   -1.9074    1.6081 H.spc      1 <1>        0.000
     12 H          -1.8195   -3.2708    2.1730 H.spc      1 <1>        0.000
     13 H          -2.9822   -3.2513    0.2734 H.spc      1 <1>        0.000
     14 H          -2.0467   -1.7850   -0.2340 H.spc      1 <1>        0.000
     15 H          -1.4673   -4.6942   -0.8417 H.spc      1 <1>        0.000
     16 H          -1.8550   -3.3573   -1.9987 H.spc      1 <1>        0.000
     17 H           0.2491   -2.3352   -1.6403 H.spc      1 <1>        0.000
     18 H           0.5745   -4.0829   -1.8824 H.spc      1 <1>        0.000
     19 H           2.5768   -2.5554   -0.6460 H.spc      1 <1>        0.000
@<TRIPOS>BOND
     1    5    6 1  
     2    4    5 1  
     3    7    8 2  
     4    1    2 1  
     5    1    6 1  
     6    1    7 am 
     7    2    3 1  
     8    3    4 1  
     9    2    9 1  
    10    2   10 1  
    11    3   11 1  
    12    3   12 1  
    13    4   13 1  
    14    4   14 1  
    15    5   15 1  
    16    5   16 1  
    17    6   17 1  
    18    6   18 1  
    19    7   19 1  
# Name:          frag5-541-70/41815
# Creation time: Sat Jun  5 12:52:52 2010


@<TRIPOS>MOLECULE
frag5-541-70/41815
   19    19     1     1     1
SMALL
USER_CHARGES


@<TRIPOS>ATOM
      1 N1          0.8163   -3.2166    0.0207 N.am       1 <1>        0.000
      2 C1          0.1149   -3.4570   -1.2322 C.3        1 <1>        0.000
      3 C2         -1.3550   -3.0623   -1.1140 C.3        1 <1>        0.000
      4 C3         -2.0092   -3.6221    0.1604 C.3        1 <1>        0.000
      5 C4         -1.1601   -3.3757    1.4167 C.3        1 <1>        0.000
      6 C5          0.0614   -2.5258    1.0749 C.3        1 <1>        0.000
      7 C18         2.0904   -3.5864    0.2403 C.2        1 <1>        0.000
      8 O5          2.7231   -3.3662    1.2621 O.2        1 <1>        0.000
      9 H           0.1759   -4.5187   -1.4714 H.spc      1 <1>        0.000
     10 H           0.5783   -2.8571   -2.0155 H.spc      1 <1>        0.000
     11 H          -1.8852   -3.4715   -1.9740 H.spc      1 <1>        0.000
     12 H          -1.4107   -1.9745   -1.0728 H.spc      1 <1>        0.000
     13 H          -2.9651   -3.1164    0.2969 H.spc      1 <1>        0.000
     14 H          -2.1194   -4.6993    0.0357 H.spc      1 <1>        0.000
     15 H          -1.7638   -2.8488    2.1556 H.spc      1 <1>        0.000
     16 H          -0.8259   -4.3345    1.8132 H.spc      1 <1>        0.000
     17 H           0.6856   -2.3921    1.9584 H.spc      1 <1>        0.000
     18 H          -0.2509   -1.5403    0.7295 H.spc      1 <1>        0.000
     19 H           2.5999   -4.1263   -0.5578 H.spc      1 <1>        0.000
@<TRIPOS>BOND
     1    5    6 1  
     2    4    5 1  
     3    7    8 2  
     4    1    2 1  
     5    1    6 1  
     6    1    7 am 
     7    2    3 1  
     8    3    4 1  
     9    2    9 1  
    10    2   10 1  
    11    3   11 1  
    12    3   12 1  
    13    4   13 1  
    14    4   14 1  
    15    5   15 1  
    16    5   16 1  
    17    6   17 1  
    18    6   18 1  
    19    7   19 1  
# Name:          frag5-541-70/41815
# Creation time: Sat Jun  5 12:52:52 2010


@<TRIPOS>MOLECULE
frag5-541-70/41815
   19    19     1     1     1
SMALL
USER_CHARGES


@<TRIPOS>ATOM
      1 N1          0.7890   -3.5511    0.1790 N.am       1 <1>        0.000
      2 C1          0.0186   -3.8600   -1.0182 C.3        1 <1>        0.000
      3 C2         -1.1407   -2.8882   -1.1915 C.3        1 <1>        0.000
      4 C3         -1.9452   -2.7132    0.0997 C.3        1 <1>        0.000
      5 C4         -1.4126   -3.6330    1.2039 C.3        1 <1>        0.000
      6 C5          0.0625   -3.3779    1.4424 C.3        1 <1>        0.000
      7 C18         2.1113   -3.3333    0.1133 C.2        1 <1>        0.000
      8 O5          2.7989   -2.8553    1.0003 O.2        1 <1>        0.000
      9 H          -0.3836   -4.8686   -0.9230 H.spc      1 <1>        0.000
     10 H           0.6743   -3.7782   -1.8851 H.spc      1 <1>        0.000
     11 H          -1.8075   -3.2879   -1.9555 H.spc      1 <1>        0.000
     12 H          -0.7312   -1.9174   -1.4706 H.spc      1 <1>        0.000
     13 H          -1.8557   -1.6787    0.4313 H.spc      1 <1>        0.000
     14 H          -2.9861   -2.9689   -0.0982 H.spc      1 <1>        0.000
     15 H          -1.9598   -3.4336    2.1253 H.spc      1 <1>        0.000
     16 H          -1.5473   -4.6700    0.8964 H.spc      1 <1>        0.000
     17 H           0.4417   -4.0817    2.1834 H.spc      1 <1>        0.000
     18 H           0.2045   -2.3621    1.8112 H.spc      1 <1>        0.000
     19 H           2.6151   -3.6074   -0.8136 H.spc      1 <1>        0.000
@<TRIPOS>BOND
     1    5    6 1  
     2    4    5 1  
     3    7    8 2  
     4    1    2 1  
     5    1    6 1  
     6    1    7 am 
     7    2    3 1  
     8    3    4 1  
     9    2    9 1  
    10    2   10 1  
    11    3   11 1  
    12    3   12 1  
    13    4   13 1  
    14    4   14 1  
    15    5   15 1  
    16    5   16 1  
    17    6   17 1  
    18    6   18 1  
    19    7   19 1  
# Name:          frag5-541-70/41815
# Creation time: Sat Jun  5 12:52:52 2010


@<TRIPOS>MOLECULE
frag5-541-70/41815
   19    19     1     1     1
SMALL
USER_CHARGES


@<TRIPOS>ATOM
      1 N1          0.7648   -3.6077    0.4004 N.am       1 <1>        0.000
      2 C1          0.3410   -3.3629   -0.9731 C.3        1 <1>        0.000
      3 C2         -1.1509   -3.4378   -1.1234 C.3        1 <1>        0.000
      4 C3         -1.9224   -2.6983   -0.0606 C.3        1 <1>        0.000
      5 C4         -1.3798   -2.9921    1.3245 C.3        1 <1>        0.000
      6 C5         -0.2829   -4.0176    1.3017 C.3        1 <1>        0.000
      7 C18         1.9949   -3.2625    0.8171 C.2        1 <1>        0.000
      8 O5          2.9171   -2.8329    0.1424 O.2        1 <1>        0.000
      9 H           0.7864   -4.1283   -1.6087 H.spc      1 <1>        0.000
     10 H           0.6620   -2.3601   -1.2552 H.spc      1 <1>        0.000
     11 H          -1.4275   -4.4893   -1.0458 H.spc      1 <1>        0.000
     12 H          -1.3995   -2.9755   -2.0787 H.spc      1 <1>        0.000
     13 H          -1.8304   -1.6285   -0.2481 H.spc      1 <1>        0.000
     14 H          -2.9624   -3.0221   -0.1002 H.spc      1 <1>        0.000
     15 H          -0.9695   -2.0673    1.7300 H.spc      1 <1>        0.000
     16 H          -2.1962   -3.3838    1.9313 H.spc      1 <1>        0.000
     17 H          -0.6920   -4.9695    0.9632 H.spc      1 <1>        0.000
     18 H           0.1301   -4.1200    2.3052 H.spc      1 <1>        0.000
     19 H           2.1924   -3.3799    1.8826 H.spc      1 <1>        0.000
@<TRIPOS>BOND
     1    5    6 1  
     2    4    5 1  
     3    7    8 2  
     4    1    2 1  
     5    1    6 1  
     6    1    7 am 
     7    2    3 1  
     8    3    4 1  
     9    2    9 1  
    10    2   10 1  
    11    3   11 1  
    12    3   12 1  
    13    4   13 1  
    14    4   14 1  
    15    5   15 1  
    16    5   16 1  
    17    6   17 1  
    18    6   18 1  
    19    7   19 1  
# Name:          frag5-541-70/41815 -- energy: -1.315859
# Creation time: Sat Jun  5 12:52:52 2010


@<TRIPOS>MOLECULE
frag5-541-70/41815 -- energy: -1.315859
   19    19     1     1     1
SMALL
USER_CHARGES


@<TRIPOS>ATOM
      1 N1          0.8047   -3.3888    0.0648 N.am       1 <1>        0.000
      2 C1          0.0048   -3.8537    1.2079 C.3        1 <1>        0.000
      3 C2         -1.1789   -2.9025    1.3717 C.3        1 <1>        0.000
      4 C3         -1.9971   -2.8292    0.0748 C.3        1 <1>        0.000
      5 C4         -1.3564   -3.6341   -1.0698 C.3        1 <1>        0.000
      6 C5          0.1322   -3.3356   -1.2236 C.3        1 <1>        0.000
      7 C18         2.0965   -3.0418    0.2030 C.2        1 <1>        0.000
      8 O5          2.7760   -3.2262    1.2002 O.2        1 <1>        0.000
      9 H           0.6107   -3.8613    2.1140 H.spc      1 <1>        0.000
     10 H          -0.3492   -4.8695    1.0322 H.spc      1 <1>        0.000
     11 H          -0.8021   -1.9074    1.6081 H.spc      1 <1>        0.000
     12 H          -1.8195   -3.2708    2.1730 H.spc      1 <1>        0.000
     13 H          -2.9822   -3.2513    0.2734 H.spc      1 <1>        0.000
     14 H          -2.0467   -1.7850   -0.2340 H.spc      1 <1>        0.000
     15 H          -1.4673   -4.6942   -0.8417 H.spc      1 <1>        0.000
     16 H          -1.8550   -3.3573   -1.9987 H.spc      1 <1>        0.000
     17 H           0.2491   -2.3352   -1.6403 H.spc      1 <1>        0.000
     18 H           0.5745   -4.0829   -1.8824 H.spc      1 <1>        0.000
     19 H           2.5768   -2.5554   -0.6460 H.spc      1 <1>        0.000
@<TRIPOS>BOND
     1    5    6 1  
     2    4    5 1  
     3    7    8 2  
     4    1    2 1  
     5    1    6 1  
     6    1    7 am 
     7    2    3 1  
     8    3    4 1  
     9    2    9 1  
    10    2   10 1  
    11    3   11 1  
    12    3   12 1  
    13    4   13 1  
    14    4   14 1  
    15    5   15 1  
    16    5   16 1  
    17    6   17 1  
    18    6   18 1  
    19    7   19 1  
# Name:          frag5-541-70/41815 -- energy: -1.224164
# Creation time: Sat Jun  5 12:52:52 2010


@<TRIPOS>MOLECULE
frag5-541-70/41815 -- energy: -1.224164
   19    19     1     1     1
SMALL
USER_CHARGES


@<TRIPOS>ATOM
      1 N1          0.8163   -3.2166    0.0207 N.am       1 <1>        0.000
      2 C1          0.1149   -3.4570   -1.2322 C.3        1 <1>        0.000
      3 C2         -1.3550   -3.0623   -1.1140 C.3        1 <1>        0.000
      4 C3         -2.0092   -3.6221    0.1604 C.3        1 <1>        0.000
      5 C4         -1.1601   -3.3757    1.4167 C.3        1 <1>        0.000
      6 C5          0.0614   -2.5258    1.0749 C.3        1 <1>        0.000
      7 C18         2.0904   -3.5864    0.2403 C.2        1 <1>        0.000
      8 O5          2.7231   -3.3662    1.2621 O.2        1 <1>        0.000
      9 H           0.1759   -4.5187   -1.4714 H.spc      1 <1>        0.000
     10 H           0.5783   -2.8571   -2.0155 H.spc      1 <1>        0.000
     11 H          -1.8852   -3.4715   -1.9740 H.spc      1 <1>        0.000
     12 H          -1.4107   -1.9745   -1.0728 H.spc      1 <1>        0.000
     13 H          -2.9651   -3.1164    0.2969 H.spc      1 <1>        0.000
     14 H          -2.1194   -4.6993    0.0357 H.spc      1 <1>        0.000
     15 H          -1.7638   -2.8488    2.1556 H.spc      1 <1>        0.000
     16 H          -0.8259   -4.3345    1.8132 H.spc      1 <1>        0.000
     17 H           0.6856   -2.3921    1.9584 H.spc      1 <1>        0.000
     18 H          -0.2509   -1.5403    0.7295 H.spc      1 <1>        0.000
     19 H           2.5999   -4.1263   -0.5578 H.spc      1 <1>        0.000
@<TRIPOS>BOND
     1    5    6 1  
     2    4    5 1  
     3    7    8 2  
     4    1    2 1  
     5    1    6 1  
     6    1    7 am 
     7    2    3 1  
     8    3    4 1  
     9    2    9 1  
    10    2   10 1  
    11    3   11 1  
    12    3   12 1  
    13    4   13 1  
    14    4   14 1  
    15    5   15 1  
    16    5   16 1  
    17    6   17 1  
    18    6   18 1  
    19    7   19 1  
# Name:          frag5-541-70/41815 -- energy: -1.283899
# Creation time: Sat Jun  5 12:52:52 2010


@<TRIPOS>MOLECULE
frag5-541-70/41815 -- energy: -1.283899
   19    19     1     1     1
SMALL
USER_CHARGES


@<TRIPOS>ATOM
      1 N1          0.7890   -3.5511    0.1790 N.am       1 <1>        0.000
      2 C1          0.0186   -3.8600   -1.0182 C.3        1 <1>        0.000
      3 C2         -1.1407   -2.8882   -1.1915 C.3        1 <1>        0.000
      4 C3         -1.9452   -2.7132    0.0997 C.3        1 <1>        0.000
      5 C4         -1.4126   -3.6330    1.2039 C.3        1 <1>        0.000
      6 C5          0.0625   -3.3779    1.4424 C.3        1 <1>        0.000
      7 C18         2.1113   -3.3333    0.1133 C.2        1 <1>        0.000
      8 O5          2.7989   -2.8553    1.0003 O.2        1 <1>        0.000
      9 H          -0.3836   -4.8686   -0.9230 H.spc      1 <1>        0.000
     10 H           0.6743   -3.7782   -1.8851 H.spc      1 <1>        0.000
     11 H          -1.8075   -3.2879   -1.9555 H.spc      1 <1>        0.000
     12 H          -0.7312   -1.9174   -1.4706 H.spc      1 <1>        0.000
     13 H          -1.8557   -1.6787    0.4313 H.spc      1 <1>        0.000
     14 H          -2.9861   -2.9689   -0.0982 H.spc      1 <1>        0.000
     15 H          -1.9598   -3.4336    2.1253 H.spc      1 <1>        0.000
     16 H          -1.5473   -4.6700    0.8964 H.spc      1 <1>        0.000
     17 H           0.4417   -4.0817    2.1834 H.spc      1 <1>        0.000
     18 H           0.2045   -2.3621    1.8112 H.spc      1 <1>        0.000
     19 H           2.6151   -3.6074   -0.8136 H.spc      1 <1>        0.000
@<TRIPOS>BOND
     1    5    6 1  
     2    4    5 1  
     3    7    8 2  
     4    1    2 1  
     5    1    6 1  
     6    1    7 am 
     7    2    3 1  
     8    3    4 1  
     9    2    9 1  
    10    2   10 1  
    11    3   11 1  
    12    3   12 1  
    13    4   13 1  
    14    4   14 1  
    15    5   15 1  
    16    5   16 1  
    17    6   17 1  
    18    6   18 1  
    19    7   19 1  
# Name:          frag5-541-70/41815 -- energy: -1.275489
# Creation time: Sat Jun  5 12:52:52 2010


@<TRIPOS>MOLECULE
frag5-541-70/41815 -- energy: -1.275489
   19    19     1     1     1
SMALL
USER_CHARGES


@<TRIPOS>ATOM
      1 N1          0.7648   -3.6077    0.4004 N.am       1 <1>        0.000
      2 C1          0.3410   -3.3629   -0.9731 C.3        1 <1>        0.000
      3 C2         -1.1509   -3.4378   -1.1234 C.3        1 <1>        0.000
      4 C3         -1.9224   -2.6983   -0.0606 C.3        1 <1>        0.000
      5 C4         -1.3798   -2.9921    1.3245 C.3        1 <1>        0.000
      6 C5         -0.2829   -4.0176    1.3017 C.3        1 <1>        0.000
      7 C18         1.9949   -3.2625    0.8171 C.2        1 <1>        0.000
      8 O5          2.9171   -2.8329    0.1424 O.2        1 <1>        0.000
      9 H           0.7864   -4.1283   -1.6087 H.spc      1 <1>        0.000
     10 H           0.6620   -2.3601   -1.2552 H.spc      1 <1>        0.000
     11 H          -1.4275   -4.4893   -1.0458 H.spc      1 <1>        0.000
     12 H          -1.3995   -2.9755   -2.0787 H.spc      1 <1>        0.000
     13 H          -1.8304   -1.6285   -0.2481 H.spc      1 <1>        0.000
     14 H          -2.9624   -3.0221   -0.1002 H.spc      1 <1>        0.000
     15 H          -0.9695   -2.0673    1.7300 H.spc      1 <1>        0.000
     16 H          -2.1962   -3.3838    1.9313 H.spc      1 <1>        0.000
     17 H          -0.6920   -4.9695    0.9632 H.spc      1 <1>        0.000
     18 H           0.1301   -4.1200    2.3052 H.spc      1 <1>        0.000
     19 H           2.1924   -3.3799    1.8826 H.spc      1 <1>        0.000
@<TRIPOS>BOND
     1    5    6 1  
     2    4    5 1  
     3    7    8 2  
     4    1    2 1  
     5    1    6 1  
     6    1    7 am 
     7    2    3 1  
     8    3    4 1  
     9    2    9 1  
    10    2   10 1  
    11    3   11 1  
    12    3   12 1  
    13    4   13 1  
    14    4   14 1  
    15    5   15 1  
    16    5   16 1  
    17    6   17 1  
    18    6   18 1  
    19    7   19 1  
