#      Rotatable Fragment
#      Build by yxyuan
#
# Name:          frag4-363-98/48856
# Creation time: Sat Jun  5 12:53:23 2010


@<TRIPOS>MOLECULE
frag4-363-98/48856
   18    19     1     1     1
SMALL
USER_CHARGES


@<TRIPOS>ATOM
      1 C16         1.8563   -2.8168    1.0407 C.3        1 <1>        0.000
      2 O2          2.4555   -1.5144    1.0010 O.3        1 <1>        0.000
      3 C17         3.8408   -1.5046    0.8226 C.ar       1 <1>        0.000
      4 C18         4.6037   -2.6551    1.0727 C.ar       1 <1>        0.000
      5 C19         5.9897   -2.6201    0.8965 C.ar       1 <1>        0.000
      6 C20         6.6182   -1.4465    0.4719 C.ar       1 <1>        0.000
      7 C21         5.8579   -0.3008    0.2211 C.ar       1 <1>        0.000
      8 C22         4.4722   -0.3325    0.3976 C.ar       1 <1>        0.000
      9 O3          3.9922   -3.8400    1.4894 O.3        1 <1>        0.000
     10 C23         2.6696   -3.6869    2.0226 C.3        1 <1>        0.000
     11 H           0.8202   -2.7445    1.3713 H.spc      1 <1>        0.000
     12 H           1.8627   -3.2645    0.0469 H.spc      1 <1>        0.000
     13 H           6.5836   -3.5131    1.0913 H.spc      1 <1>        0.000
     14 H           7.6995   -1.4246    0.3365 H.spc      1 <1>        0.000
     15 H           6.3451    0.6158   -0.1116 H.spc      1 <1>        0.000
     16 H           3.8804    0.5619    0.2027 H.spc      1 <1>        0.000
     17 H           2.7115   -3.2101    3.0019 H.spc      1 <1>        0.000
     18 H           2.1968   -4.6617    2.1419 H.spc      1 <1>        0.000
@<TRIPOS>BOND
     1    5    6 ar 
     2    7    8 ar 
     3    9   10 1  
     4    4    9 1  
     5    6    7 ar 
     6    1   10 1  
     7    1    2 1  
     8    2    3 1  
     9    3    4 ar 
    10    3    8 ar 
    11    4    5 ar 
    12    1   11 1  
    13    1   12 1  
    14    5   13 1  
    15    6   14 1  
    16    7   15 1  
    17    8   16 1  
    18   10   17 1  
    19   10   18 1  
# Name:          frag4-363-98/48856 -- energy: -0.393995
# Creation time: Sat Jun  5 12:53:23 2010


@<TRIPOS>MOLECULE
frag4-363-98/48856 -- energy: -0.393995
   18    19     1     1     1
SMALL
USER_CHARGES


@<TRIPOS>ATOM
      1 C16         1.8563   -2.8168    1.0407 C.3        1 <1>        0.000
      2 O2          2.4555   -1.5144    1.0010 O.3        1 <1>        0.000
      3 C17         3.8408   -1.5046    0.8226 C.ar       1 <1>        0.000
      4 C18         4.6037   -2.6551    1.0727 C.ar       1 <1>        0.000
      5 C19         5.9897   -2.6201    0.8965 C.ar       1 <1>        0.000
      6 C20         6.6182   -1.4465    0.4719 C.ar       1 <1>        0.000
      7 C21         5.8579   -0.3008    0.2211 C.ar       1 <1>        0.000
      8 C22         4.4722   -0.3325    0.3976 C.ar       1 <1>        0.000
      9 O3          3.9922   -3.8400    1.4894 O.3        1 <1>        0.000
     10 C23         2.6696   -3.6869    2.0226 C.3        1 <1>        0.000
     11 H           0.8202   -2.7445    1.3713 H.spc      1 <1>        0.000
     12 H           1.8627   -3.2645    0.0469 H.spc      1 <1>        0.000
     13 H           6.5836   -3.5131    1.0913 H.spc      1 <1>        0.000
     14 H           7.6995   -1.4246    0.3365 H.spc      1 <1>        0.000
     15 H           6.3451    0.6158   -0.1116 H.spc      1 <1>        0.000
     16 H           3.8804    0.5619    0.2027 H.spc      1 <1>        0.000
     17 H           2.7115   -3.2101    3.0019 H.spc      1 <1>        0.000
     18 H           2.1968   -4.6617    2.1419 H.spc      1 <1>        0.000
@<TRIPOS>BOND
     1    5    6 ar 
     2    7    8 ar 
     3    9   10 1  
     4    4    9 1  
     5    6    7 ar 
     6    1   10 1  
     7    1    2 1  
     8    2    3 1  
     9    3    4 ar 
    10    3    8 ar 
    11    4    5 ar 
    12    1   11 1  
    13    1   12 1  
    14    5   13 1  
    15    6   14 1  
    16    7   15 1  
    17    8   16 1  
    18   10   17 1  
    19   10   18 1  
