#      Rotatable Fragment
#      Build by yxyuan
#
# Name:          frag2-060-25/319335
# Creation time: Sat Jun  5 12:53:46 2010


@<TRIPOS>MOLECULE
frag2-060-25/319335
   15    16     1     1     1
SMALL
USER_CHARGES


@<TRIPOS>ATOM
      1 C1         -0.0330   -0.5612    0.0386 C.ar       1 <1>        0.000
      2 C2         -1.1893   -1.3347    0.1173 C.ar       1 <1>        0.000
      3 C3         -0.1799    0.8368   -0.0519 C.ar       1 <1>        0.000
      4 C4          1.2592   -1.0866    0.0435 C.ar       1 <1>        0.000
      5 N2         -2.4021   -0.7602    0.1074 N.ar       1 <1>        0.000
      6 C5          0.9531    1.6309   -0.1314 C.ar       1 <1>        0.000
      7 N3         -1.4248    1.3653   -0.0581 N.ar       1 <1>        0.000
      8 C6          2.3581   -0.2501   -0.0384 C.ar       1 <1>        0.000
      9 C8         -2.5172    0.5807    0.0196 C.ar       1 <1>        0.000
     10 N4          2.1865    1.0919   -0.1242 N.ar       1 <1>        0.000
     11 H          -1.1078   -2.4194    0.1877 H.spc      1 <1>        0.000
     12 H           1.4043   -2.1647    0.1124 H.spc      1 <1>        0.000
     13 H           0.8433    2.7131   -0.2011 H.spc      1 <1>        0.000
     14 H           3.3636   -0.6708   -0.0339 H.spc      1 <1>        0.000
     15 H          -3.5076    1.0358    0.0114 H.spc      1 <1>        0.000
@<TRIPOS>BOND
     1    8   10 ar 
     2    1    2 ar 
     3    1    3 ar 
     4    1    4 ar 
     5    2    5 ar 
     6    3    6 ar 
     7    3    7 ar 
     8    4    8 ar 
     9    5    9 ar 
    10    6   10 ar 
    11    7    9 ar 
    12    2   11 1  
    13    4   12 1  
    14    6   13 1  
    15    8   14 1  
    16    9   15 1  
# Name:          frag2-060-25/319335 -- energy: 0.173844
# Creation time: Sat Jun  5 12:53:46 2010


@<TRIPOS>MOLECULE
frag2-060-25/319335 -- energy: 0.173844
   15    16     1     1     1
SMALL
USER_CHARGES


@<TRIPOS>ATOM
      1 C1         -0.0330   -0.5612    0.0386 C.ar       1 <1>        0.000
      2 C2         -1.1893   -1.3347    0.1173 C.ar       1 <1>        0.000
      3 C3         -0.1799    0.8368   -0.0519 C.ar       1 <1>        0.000
      4 C4          1.2592   -1.0866    0.0435 C.ar       1 <1>        0.000
      5 N2         -2.4021   -0.7602    0.1074 N.ar       1 <1>        0.000
      6 C5          0.9531    1.6309   -0.1314 C.ar       1 <1>        0.000
      7 N3         -1.4248    1.3653   -0.0581 N.ar       1 <1>        0.000
      8 C6          2.3581   -0.2501   -0.0384 C.ar       1 <1>        0.000
      9 C8         -2.5172    0.5807    0.0196 C.ar       1 <1>        0.000
     10 N4          2.1865    1.0919   -0.1242 N.ar       1 <1>        0.000
     11 H          -1.1078   -2.4194    0.1877 H.spc      1 <1>        0.000
     12 H           1.4043   -2.1647    0.1124 H.spc      1 <1>        0.000
     13 H           0.8433    2.7131   -0.2011 H.spc      1 <1>        0.000
     14 H           3.3636   -0.6708   -0.0339 H.spc      1 <1>        0.000
     15 H          -3.5076    1.0358    0.0114 H.spc      1 <1>        0.000
@<TRIPOS>BOND
     1    8   10 ar 
     2    1    2 ar 
     3    1    3 ar 
     4    1    4 ar 
     5    2    5 ar 
     6    3    6 ar 
     7    3    7 ar 
     8    4    8 ar 
     9    5    9 ar 
    10    6   10 ar 
    11    7    9 ar 
    12    2   11 1  
    13    4   12 1  
    14    6   13 1  
    15    8   14 1  
    16    9   15 1  
