#      Rotatable Fragment
#      Build by yxyuan
#
# Name:          frag2-075-1/92655
# Creation time: Sat Jun  5 12:51:58 2010


@<TRIPOS>MOLECULE
frag2-075-1/92655
   26    29     1     1     1
SMALL
USER_CHARGES


@<TRIPOS>ATOM
      1 C7          0.6647    2.4084    0.1776 C.ar       1 <1>        0.000
      2 C8          0.1147    1.1408    0.0784 C.ar       1 <1>        0.000
      3 C9          0.9184    0.0099    0.0382 C.ar       1 <1>        0.000
      4 C10         2.2617    0.0243    0.0835 C.ar       1 <1>        0.000
      5 C11         2.9141    1.2728    0.1733 C.ar       1 <1>        0.000
      6 C12         2.1023    2.4598    0.2303 C.ar       1 <1>        0.000
      7 C13         2.9456   -1.2099    0.0337 C.ar       1 <1>        0.000
      8 C22        -2.3832   -1.4808   -0.1793 C.ar       1 <1>        0.000
      9 C14         2.1645   -2.4146   -0.0646 C.ar       1 <1>        0.000
     10 C15         0.7258   -2.3946   -0.1095 C.ar       1 <1>        0.000
     11 C16         0.1436   -1.1383   -0.0584 C.ar       1 <1>        0.000
     12 C17        -1.2189   -0.7227   -0.0864 C.ar       1 <1>        0.000
     13 C18        -1.2372    0.6964   -0.0011 C.ar       1 <1>        0.000
     14 C19        -2.4212    1.4300   -0.0039 C.ar       1 <1>        0.000
     15 C20        -3.6351    0.6687   -0.0986 C.ar       1 <1>        0.000
     16 C21        -3.6163   -0.7450   -0.1836 C.ar       1 <1>        0.000
     17 H           0.0495    3.3075    0.2134 H.spc      1 <1>        0.000
     18 H           4.0020    1.3361    0.1988 H.spc      1 <1>        0.000
     19 H           2.5922    3.4297    0.3162 H.spc      1 <1>        0.000
     20 H           4.0343   -1.2492    0.0687 H.spc      1 <1>        0.000
     21 H          -2.3600   -2.5686   -0.2449 H.spc      1 <1>        0.000
     22 H           2.6795   -3.3743   -0.1065 H.spc      1 <1>        0.000
     23 H           0.1338   -3.3071   -0.1791 H.spc      1 <1>        0.000
     24 H          -2.4261    2.5180    0.0619 H.spc      1 <1>        0.000
     25 H          -4.5922    1.1903   -0.1052 H.spc      1 <1>        0.000
     26 H          -4.5595   -1.2868   -0.2539 H.spc      1 <1>        0.000
@<TRIPOS>BOND
     1   13   14 ar 
     2    3   11 ar 
     3   14   15 ar 
     4    3    4 ar 
     5   15   16 ar 
     6    9   10 ar 
     7    2    3 ar 
     8   10   11 ar 
     9    5    6 ar 
    10    7    9 ar 
    11    2   13 1  
    12    1    6 ar 
    13   12   13 ar 
    14   11   12 1  
    15   16    8 ar 
    16   12    8 ar 
    17    1    2 ar 
    18    4    7 ar 
    19    4    5 ar 
    20    1   17 1  
    21    5   18 1  
    22    6   19 1  
    23    7   20 1  
    24    8   21 1  
    25    9   22 1  
    26   10   23 1  
    27   14   24 1  
    28   15   25 1  
    29   16   26 1  
# Name:          frag2-075-1/92655 -- energy: -1.755163
# Creation time: Sat Jun  5 12:51:58 2010


@<TRIPOS>MOLECULE
frag2-075-1/92655 -- energy: -1.755163
   26    29     1     1     1
SMALL
USER_CHARGES


@<TRIPOS>ATOM
      1 C7          0.6647    2.4084    0.1776 C.ar       1 <1>        0.000
      2 C8          0.1147    1.1408    0.0784 C.ar       1 <1>        0.000
      3 C9          0.9184    0.0099    0.0382 C.ar       1 <1>        0.000
      4 C10         2.2617    0.0243    0.0835 C.ar       1 <1>        0.000
      5 C11         2.9141    1.2728    0.1733 C.ar       1 <1>        0.000
      6 C12         2.1023    2.4598    0.2303 C.ar       1 <1>        0.000
      7 C13         2.9456   -1.2099    0.0337 C.ar       1 <1>        0.000
      8 C22        -2.3832   -1.4808   -0.1793 C.ar       1 <1>        0.000
      9 C14         2.1645   -2.4146   -0.0646 C.ar       1 <1>        0.000
     10 C15         0.7258   -2.3946   -0.1095 C.ar       1 <1>        0.000
     11 C16         0.1436   -1.1383   -0.0584 C.ar       1 <1>        0.000
     12 C17        -1.2189   -0.7227   -0.0864 C.ar       1 <1>        0.000
     13 C18        -1.2372    0.6964   -0.0011 C.ar       1 <1>        0.000
     14 C19        -2.4212    1.4300   -0.0039 C.ar       1 <1>        0.000
     15 C20        -3.6351    0.6687   -0.0986 C.ar       1 <1>        0.000
     16 C21        -3.6163   -0.7450   -0.1836 C.ar       1 <1>        0.000
     17 H           0.0495    3.3075    0.2134 H.spc      1 <1>        0.000
     18 H           4.0020    1.3361    0.1988 H.spc      1 <1>        0.000
     19 H           2.5922    3.4297    0.3162 H.spc      1 <1>        0.000
     20 H           4.0343   -1.2492    0.0687 H.spc      1 <1>        0.000
     21 H          -2.3600   -2.5686   -0.2449 H.spc      1 <1>        0.000
     22 H           2.6795   -3.3743   -0.1065 H.spc      1 <1>        0.000
     23 H           0.1338   -3.3071   -0.1791 H.spc      1 <1>        0.000
     24 H          -2.4261    2.5180    0.0619 H.spc      1 <1>        0.000
     25 H          -4.5922    1.1903   -0.1052 H.spc      1 <1>        0.000
     26 H          -4.5595   -1.2868   -0.2539 H.spc      1 <1>        0.000
@<TRIPOS>BOND
     1   13   14 ar 
     2    3   11 ar 
     3   14   15 ar 
     4    3    4 ar 
     5   15   16 ar 
     6    9   10 ar 
     7    2    3 ar 
     8   10   11 ar 
     9    5    6 ar 
    10    7    9 ar 
    11    2   13 1  
    12    1    6 ar 
    13   12   13 ar 
    14   11   12 1  
    15   16    8 ar 
    16   12    8 ar 
    17    1    2 ar 
    18    4    7 ar 
    19    4    5 ar 
    20    1   17 1  
    21    5   18 1  
    22    6   19 1  
    23    7   20 1  
    24    8   21 1  
    25    9   22 1  
    26   10   23 1  
    27   14   24 1  
    28   15   25 1  
    29   16   26 1  
