#      Rotatable Fragment
#      Build by yxyuan
#
# Name:          frag5-661-67/138278
# Creation time: Sat Jun  5 12:51:51 2010


@<TRIPOS>MOLECULE
frag5-661-67/138278
   26    27     1     1     1
SMALL
USER_CHARGES


@<TRIPOS>ATOM
      1 C13        -1.0979   -2.8075   -0.0482 C.ar       1 <1>        0.000
      2 C14        -1.1285   -1.4399    0.2364 C.ar       1 <1>        0.000
      3 N1         -2.1265   -3.3947   -0.6851 N.ar       1 <1>        0.000
      4 C15        -2.2056   -0.6323   -0.1727 C.ar       1 <1>        0.000
      5 C16        -3.2351   -2.6941   -0.9838 C.ar       1 <1>        0.000
      6 N2         -2.1801    0.7317   -0.0465 N.pl3      1 <1>        0.000
      7 C17        -3.3074   -1.3261   -0.7069 C.ar       1 <1>        0.000
      8 C18        -0.9028    1.4539   -0.1557 C.3        1 <1>        0.000
      9 C19        -3.4219    1.4661    0.2552 C.3        1 <1>        0.000
     10 C21        -1.1053    2.8918   -0.6910 C.3        1 <1>        0.000
     11 C22        -3.3727    3.0191    0.2884 C.3        1 <1>        0.000
     12 C23        -1.9831    3.6856    0.2961 C.3        1 <1>        0.000
     13 H          -0.2342   -3.4027    0.2481 H.spc      1 <1>        0.000
     14 H          -0.3018   -0.9899    0.7861 H.spc      1 <1>        0.000
     15 H          -4.0844   -3.1975   -1.4458 H.spc      1 <1>        0.000
     16 H          -4.2332   -0.7872   -0.9082 H.spc      1 <1>        0.000
     17 H          -0.2606    0.9145   -0.8519 H.spc      1 <1>        0.000
     18 H          -0.4561    1.5156    0.8367 H.spc      1 <1>        0.000
     19 H          -4.1047    1.2191   -0.5577 H.spc      1 <1>        0.000
     20 H          -3.6920    1.1670    1.2680 H.spc      1 <1>        0.000
     21 H          -1.5951    2.8527   -1.6639 H.spc      1 <1>        0.000
     22 H          -0.1372    3.3822   -0.7932 H.spc      1 <1>        0.000
     23 H          -3.8513    3.3481   -0.6340 H.spc      1 <1>        0.000
     24 H          -3.8424    3.3080    1.2286 H.spc      1 <1>        0.000
     25 H          -1.5515    3.6720    1.2969 H.spc      1 <1>        0.000
     26 H          -2.0527    4.7320   -0.0011 H.spc      1 <1>        0.000
@<TRIPOS>BOND
     1    6    8 1  
     2   11   12 1  
     3    4    6 1  
     4    8   10 1  
     5    4    7 ar 
     6    2    4 ar 
     7    3    5 ar 
     8   10   12 1  
     9    9   11 1  
    10    6    9 1  
    11    1    3 ar 
    12    1    2 ar 
    13    5    7 ar 
    14    1   13 1  
    15    2   14 1  
    16    5   15 1  
    17    7   16 1  
    18    8   17 1  
    19    8   18 1  
    20    9   19 1  
    21    9   20 1  
    22   10   21 1  
    23   10   22 1  
    24   11   23 1  
    25   11   24 1  
    26   12   25 1  
    27   12   26 1  
# Name:          frag5-661-67/138278
# Creation time: Sat Jun  5 12:51:51 2010


@<TRIPOS>MOLECULE
frag5-661-67/138278
   26    27     1     1     1
SMALL
USER_CHARGES


@<TRIPOS>ATOM
      1 C13        -2.8797   -2.3569   -1.5469 C.ar       1 <1>        0.000
      2 C14        -2.5613   -1.0161   -1.3398 C.ar       1 <1>        0.000
      3 N1         -2.5506   -3.2759   -0.6264 N.ar       1 <1>        0.000
      4 C15        -1.9409   -0.5692   -0.1521 C.ar       1 <1>        0.000
      5 C16        -1.8427   -2.9416    0.4635 C.ar       1 <1>        0.000
      6 N2         -1.7671    0.7509    0.1371 N.pl3      1 <1>        0.000
      7 C17        -1.5014   -1.6101    0.6955 C.ar       1 <1>        0.000
      8 C18        -2.5908    1.3786    1.1755 C.3        1 <1>        0.000
      9 C19        -0.8516    1.6302   -0.5970 C.3        1 <1>        0.000
     10 C21        -3.4443    2.5551    0.6680 C.3        1 <1>        0.000
     11 C22        -1.5613    2.8952   -1.1367 C.3        1 <1>        0.000
     12 C23        -2.5749    3.5134   -0.1544 C.3        1 <1>        0.000
     13 H          -3.3966   -2.6593   -2.4576 H.spc      1 <1>        0.000
     14 H          -2.7981   -0.2903   -2.1178 H.spc      1 <1>        0.000
     15 H          -1.5339   -3.7130    1.1690 H.spc      1 <1>        0.000
     16 H          -0.8777   -1.3653    1.5553 H.spc      1 <1>        0.000
     17 H          -1.9131    1.7726    1.9328 H.spc      1 <1>        0.000
     18 H          -3.2764    0.6181    1.5493 H.spc      1 <1>        0.000
     19 H          -0.0658    1.9488    0.0879 H.spc      1 <1>        0.000
     20 H          -0.4570    1.0743   -1.4475 H.spc      1 <1>        0.000
     21 H          -3.8621    3.0904    1.5206 H.spc      1 <1>        0.000
     22 H          -4.2489    2.1714    0.0407 H.spc      1 <1>        0.000
     23 H          -0.7910    3.6443   -1.3201 H.spc      1 <1>        0.000
     24 H          -2.1144    2.5997   -2.0283 H.spc      1 <1>        0.000
     25 H          -3.2705    4.0818   -0.7718 H.spc      1 <1>        0.000
     26 H          -1.9782    4.0636    0.5731 H.spc      1 <1>        0.000
@<TRIPOS>BOND
     1    6    8 1  
     2   11   12 1  
     3    4    6 1  
     4    8   10 1  
     5    4    7 ar 
     6    2    4 ar 
     7    3    5 ar 
     8   10   12 1  
     9    9   11 1  
    10    6    9 1  
    11    1    3 ar 
    12    1    2 ar 
    13    5    7 ar 
    14    1   13 1  
    15    2   14 1  
    16    5   15 1  
    17    7   16 1  
    18    8   17 1  
    19    8   18 1  
    20    9   19 1  
    21    9   20 1  
    22   10   21 1  
    23   10   22 1  
    24   11   23 1  
    25   11   24 1  
    26   12   25 1  
    27   12   26 1  
# Name:          frag5-661-67/138278 -- energy: -2.193695
# Creation time: Sat Jun  5 12:51:51 2010


@<TRIPOS>MOLECULE
frag5-661-67/138278 -- energy: -2.193695
   26    27     1     1     1
SMALL
USER_CHARGES


@<TRIPOS>ATOM
      1 C13        -1.0979   -2.8075   -0.0482 C.ar       1 <1>        0.000
      2 C14        -1.1285   -1.4399    0.2364 C.ar       1 <1>        0.000
      3 N1         -2.1265   -3.3947   -0.6851 N.ar       1 <1>        0.000
      4 C15        -2.2056   -0.6323   -0.1727 C.ar       1 <1>        0.000
      5 C16        -3.2351   -2.6941   -0.9838 C.ar       1 <1>        0.000
      6 N2         -2.1801    0.7317   -0.0465 N.pl3      1 <1>        0.000
      7 C17        -3.3074   -1.3261   -0.7069 C.ar       1 <1>        0.000
      8 C18        -0.9028    1.4539   -0.1557 C.3        1 <1>        0.000
      9 C19        -3.4219    1.4661    0.2552 C.3        1 <1>        0.000
     10 C21        -1.1053    2.8918   -0.6910 C.3        1 <1>        0.000
     11 C22        -3.3727    3.0191    0.2884 C.3        1 <1>        0.000
     12 C23        -1.9831    3.6856    0.2961 C.3        1 <1>        0.000
     13 H          -0.2342   -3.4027    0.2481 H.spc      1 <1>        0.000
     14 H          -0.3018   -0.9899    0.7861 H.spc      1 <1>        0.000
     15 H          -4.0844   -3.1975   -1.4458 H.spc      1 <1>        0.000
     16 H          -4.2332   -0.7872   -0.9082 H.spc      1 <1>        0.000
     17 H          -0.2606    0.9145   -0.8519 H.spc      1 <1>        0.000
     18 H          -0.4561    1.5156    0.8367 H.spc      1 <1>        0.000
     19 H          -4.1047    1.2191   -0.5577 H.spc      1 <1>        0.000
     20 H          -3.6920    1.1670    1.2680 H.spc      1 <1>        0.000
     21 H          -1.5951    2.8527   -1.6639 H.spc      1 <1>        0.000
     22 H          -0.1372    3.3822   -0.7932 H.spc      1 <1>        0.000
     23 H          -3.8513    3.3481   -0.6340 H.spc      1 <1>        0.000
     24 H          -3.8424    3.3080    1.2286 H.spc      1 <1>        0.000
     25 H          -1.5515    3.6720    1.2969 H.spc      1 <1>        0.000
     26 H          -2.0527    4.7320   -0.0011 H.spc      1 <1>        0.000
@<TRIPOS>BOND
     1    6    8 1  
     2   11   12 1  
     3    4    6 1  
     4    8   10 1  
     5    4    7 ar 
     6    2    4 ar 
     7    3    5 ar 
     8   10   12 1  
     9    9   11 1  
    10    6    9 1  
    11    1    3 ar 
    12    1    2 ar 
    13    5    7 ar 
    14    1   13 1  
    15    2   14 1  
    16    5   15 1  
    17    7   16 1  
    18    8   17 1  
    19    8   18 1  
    20    9   19 1  
    21    9   20 1  
    22   10   21 1  
    23   10   22 1  
    24   11   23 1  
    25   11   24 1  
    26   12   25 1  
    27   12   26 1  
# Name:          frag5-661-67/138278 -- energy: -2.688805
# Creation time: Sat Jun  5 12:51:51 2010


@<TRIPOS>MOLECULE
frag5-661-67/138278 -- energy: -2.688805
   26    27     1     1     1
SMALL
USER_CHARGES


@<TRIPOS>ATOM
      1 C13        -2.8797   -2.3569   -1.5469 C.ar       1 <1>        0.000
      2 C14        -2.5613   -1.0161   -1.3398 C.ar       1 <1>        0.000
      3 N1         -2.5506   -3.2759   -0.6264 N.ar       1 <1>        0.000
      4 C15        -1.9409   -0.5692   -0.1521 C.ar       1 <1>        0.000
      5 C16        -1.8427   -2.9416    0.4635 C.ar       1 <1>        0.000
      6 N2         -1.7671    0.7509    0.1371 N.pl3      1 <1>        0.000
      7 C17        -1.5014   -1.6101    0.6955 C.ar       1 <1>        0.000
      8 C18        -2.5908    1.3786    1.1755 C.3        1 <1>        0.000
      9 C19        -0.8516    1.6302   -0.5970 C.3        1 <1>        0.000
     10 C21        -3.4443    2.5551    0.6680 C.3        1 <1>        0.000
     11 C22        -1.5613    2.8952   -1.1367 C.3        1 <1>        0.000
     12 C23        -2.5749    3.5134   -0.1544 C.3        1 <1>        0.000
     13 H          -3.3966   -2.6593   -2.4576 H.spc      1 <1>        0.000
     14 H          -2.7981   -0.2903   -2.1178 H.spc      1 <1>        0.000
     15 H          -1.5339   -3.7130    1.1690 H.spc      1 <1>        0.000
     16 H          -0.8777   -1.3653    1.5553 H.spc      1 <1>        0.000
     17 H          -1.9131    1.7726    1.9328 H.spc      1 <1>        0.000
     18 H          -3.2764    0.6181    1.5493 H.spc      1 <1>        0.000
     19 H          -0.0658    1.9488    0.0879 H.spc      1 <1>        0.000
     20 H          -0.4570    1.0743   -1.4475 H.spc      1 <1>        0.000
     21 H          -3.8621    3.0904    1.5206 H.spc      1 <1>        0.000
     22 H          -4.2489    2.1714    0.0407 H.spc      1 <1>        0.000
     23 H          -0.7910    3.6443   -1.3201 H.spc      1 <1>        0.000
     24 H          -2.1144    2.5997   -2.0283 H.spc      1 <1>        0.000
     25 H          -3.2705    4.0818   -0.7718 H.spc      1 <1>        0.000
     26 H          -1.9782    4.0636    0.5731 H.spc      1 <1>        0.000
@<TRIPOS>BOND
     1    6    8 1  
     2   11   12 1  
     3    4    6 1  
     4    8   10 1  
     5    4    7 ar 
     6    2    4 ar 
     7    3    5 ar 
     8   10   12 1  
     9    9   11 1  
    10    6    9 1  
    11    1    3 ar 
    12    1    2 ar 
    13    5    7 ar 
    14    1   13 1  
    15    2   14 1  
    16    5   15 1  
    17    7   16 1  
    18    8   17 1  
    19    8   18 1  
    20    9   19 1  
    21    9   20 1  
    22   10   21 1  
    23   10   22 1  
    24   11   23 1  
    25   11   24 1  
    26   12   25 1  
    27   12   26 1  
