#      Rotatable Fragment
#      Build by yxyuan
#
# Name:          frag4-298-1093/48856
# Creation time: Sat Jun  5 12:52:47 2010


@<TRIPOS>MOLECULE
frag4-298-1093/48856
   18    18     1     1     1
SMALL
USER_CHARGES


@<TRIPOS>ATOM
      1 C11         5.6791   -1.0464    0.2852 C.3        1 <1>        0.000
      2 C12         4.8882   -2.0044   -0.6267 C.3        1 <1>        0.000
      3 C13         5.4874   -3.4235   -0.5842 C.3        1 <1>        0.000
      4 C14         6.9786   -3.4022   -0.9726 C.3        1 <1>        0.000
      5 C15         7.7710   -2.4430   -0.0633 C.3        1 <1>        0.000
      6 C16         7.1704   -1.0243   -0.1025 C.3        1 <1>        0.000
      7 H           5.5898   -1.3898    1.3158 H.spc      1 <1>        0.000
      8 H           5.2729   -0.0411    0.1738 H.spc      1 <1>        0.000
      9 H           4.9367   -1.6338   -1.6506 H.spc      1 <1>        0.000
     10 H           3.8565   -2.0488   -0.2778 H.spc      1 <1>        0.000
     11 H           4.9493   -4.0527   -1.2932 H.spc      1 <1>        0.000
     12 H           5.3946   -3.8131    0.4295 H.spc      1 <1>        0.000
     13 H           7.3844   -4.4075   -0.8593 H.spc      1 <1>        0.000
     14 H           7.0670   -3.0603   -2.0038 H.spc      1 <1>        0.000
     15 H           8.8012   -2.3969   -0.4163 H.spc      1 <1>        0.000
     16 H           7.7261   -2.8140    0.9606 H.spc      1 <1>        0.000
     17 H           7.2631   -0.6327   -1.1155 H.spc      1 <1>        0.000
     18 H           7.7078   -0.3968    0.6086 H.spc      1 <1>        0.000
@<TRIPOS>BOND
     1    4    5 1  
     2    5    6 1  
     3    1    2 1  
     4    1    6 1  
     5    2    3 1  
     6    3    4 1  
     7    1    7 1  
     8    1    8 1  
     9    2    9 1  
    10    2   10 1  
    11    3   11 1  
    12    3   12 1  
    13    4   13 1  
    14    4   14 1  
    15    5   15 1  
    16    5   16 1  
    17    6   17 1  
    18    6   18 1  
# Name:          frag4-298-1093/48856 -- energy: -1.646843
# Creation time: Sat Jun  5 12:52:47 2010


@<TRIPOS>MOLECULE
frag4-298-1093/48856 -- energy: -1.646843
   18    18     1     1     1
SMALL
USER_CHARGES


@<TRIPOS>ATOM
      1 C11         5.6791   -1.0464    0.2852 C.3        1 <1>        0.000
      2 C12         4.8882   -2.0044   -0.6267 C.3        1 <1>        0.000
      3 C13         5.4874   -3.4235   -0.5842 C.3        1 <1>        0.000
      4 C14         6.9786   -3.4022   -0.9726 C.3        1 <1>        0.000
      5 C15         7.7710   -2.4430   -0.0633 C.3        1 <1>        0.000
      6 C16         7.1704   -1.0243   -0.1025 C.3        1 <1>        0.000
      7 H           5.5898   -1.3898    1.3158 H.spc      1 <1>        0.000
      8 H           5.2729   -0.0411    0.1738 H.spc      1 <1>        0.000
      9 H           4.9367   -1.6338   -1.6506 H.spc      1 <1>        0.000
     10 H           3.8565   -2.0488   -0.2778 H.spc      1 <1>        0.000
     11 H           4.9493   -4.0527   -1.2932 H.spc      1 <1>        0.000
     12 H           5.3946   -3.8131    0.4295 H.spc      1 <1>        0.000
     13 H           7.3844   -4.4075   -0.8593 H.spc      1 <1>        0.000
     14 H           7.0670   -3.0603   -2.0038 H.spc      1 <1>        0.000
     15 H           8.8012   -2.3969   -0.4163 H.spc      1 <1>        0.000
     16 H           7.7261   -2.8140    0.9606 H.spc      1 <1>        0.000
     17 H           7.2631   -0.6327   -1.1155 H.spc      1 <1>        0.000
     18 H           7.7078   -0.3968    0.6086 H.spc      1 <1>        0.000
@<TRIPOS>BOND
     1    4    5 1  
     2    5    6 1  
     3    1    2 1  
     4    1    6 1  
     5    2    3 1  
     6    3    4 1  
     7    1    7 1  
     8    1    8 1  
     9    2    9 1  
    10    2   10 1  
    11    3   11 1  
    12    3   12 1  
    13    4   13 1  
    14    4   14 1  
    15    5   15 1  
    16    5   16 1  
    17    6   17 1  
    18    6   18 1  
