#      Rotatable Fragment
#      Build by yxyuan
#
# Name:          frag5-682-60/138278
# Creation time: Sat Jun  5 12:51:56 2010


@<TRIPOS>MOLECULE
frag5-682-60/138278
   17    18     1     1     1
SMALL
USER_CHARGES


@<TRIPOS>ATOM
      1 C1          3.3622   -0.9485    0.0562 C.2        1 <1>        0.000
      2 C2          3.4051    0.5324    0.1486 C.2        1 <1>        0.000
      3 N1          2.1893   -1.3660    0.2534 N.2        1 <1>        0.000
      4 C3          4.4167   -1.8730   -0.1218 C.2        1 <1>        0.000
      5 N2          2.2021    0.8707    0.3620 N.2        1 <1>        0.000
      6 C4          4.6816    1.1591   -0.0065 C.2        1 <1>        0.000
      7 C5          1.3171   -0.2335    0.5263 C.3        1 <1>        0.000
      8 C6          5.5330   -1.1665   -0.2420 C.2        1 <1>        0.000
      9 C7          5.6591    0.2562   -0.1871 C.2        1 <1>        0.000
     10 S1         -0.1700   -0.8997    0.8471 S.o        1 <1>        0.000
     11 O1         -0.2201   -2.2638    1.4607 O.2        1 <1>        0.000
     12 H           4.3292   -2.9590   -0.1541 H.spc      1 <1>        0.000
     13 H           4.8412    2.2370    0.0188 H.spc      1 <1>        0.000
     14 H           0.6487    0.5975    0.7518 H.spc      1 <1>        0.000
     15 H           6.4520   -1.7311   -0.3994 H.spc      1 <1>        0.000
     16 H           6.6666    0.6549   -0.3057 H.spc      1 <1>        0.000
     17 H          -0.7582   -1.0283   -0.3388 H.spc      1 <1>        0.000
@<TRIPOS>BOND
     1    7   10 1  
     2   10   11 2  
     3    8    9 1  
     4    6    9 2  
     5    5    7 1  
     6    1    2 1  
     7    1    3 2  
     8    1    4 1  
     9    2    5 2  
    10    2    6 1  
    11    3    7 1  
    12    4    8 2  
    13    4   12 1  
    14    6   13 1  
    15    7   14 1  
    16    8   15 1  
    17    9   16 1  
    18   10   17 1  
# Name:          frag5-682-60/138278
# Creation time: Sat Jun  5 12:51:56 2010


@<TRIPOS>MOLECULE
frag5-682-60/138278
   17    18     1     1     1
SMALL
USER_CHARGES


@<TRIPOS>ATOM
      1 C1          3.4815   -1.0619   -0.0626 C.2        1 <1>        0.000
      2 C2          3.3572    0.3590    0.2983 C.2        1 <1>        0.000
      3 N1          2.3756   -1.6639   -0.0112 N.2        1 <1>        0.000
      4 C3          4.6381   -1.7803   -0.4107 C.2        1 <1>        0.000
      5 N2          2.1120    0.4871    0.5033 N.2        1 <1>        0.000
      6 C4          4.5256    1.2027    0.2710 C.2        1 <1>        0.000
      7 C5          1.4286   -0.7575    0.4451 C.3        1 <1>        0.000
      8 C6          5.6561   -0.9233   -0.4085 C.2        1 <1>        0.000
      9 C7          5.6071    0.4779   -0.0843 C.2        1 <1>        0.000
     10 S1         -0.0653   -1.3928    0.6667 S.o        1 <1>        0.000
     11 O1         -0.7404   -0.8796    1.8897 O.2        1 <1>        0.000
     12 H           4.6915   -2.8445   -0.6404 H.spc      1 <1>        0.000
     13 H           4.5343    2.2677    0.5028 H.spc      1 <1>        0.000
     14 H           0.6159   -0.2242    0.9382 H.spc      1 <1>        0.000
     15 H           6.6316   -1.3258   -0.6815 H.spc      1 <1>        0.000
     16 H           6.5536    1.0165   -0.1312 H.spc      1 <1>        0.000
     17 H           0.0702   -2.7090    0.8011 H.spc      1 <1>        0.000
@<TRIPOS>BOND
     1    7   10 1  
     2   10   11 2  
     3    8    9 1  
     4    6    9 2  
     5    5    7 1  
     6    1    2 1  
     7    1    3 2  
     8    1    4 1  
     9    2    5 2  
    10    2    6 1  
    11    3    7 1  
    12    4    8 2  
    13    4   12 1  
    14    6   13 1  
    15    7   14 1  
    16    8   15 1  
    17    9   16 1  
    18   10   17 1  
# Name:          frag5-682-60/138278
# Creation time: Sat Jun  5 12:51:56 2010


@<TRIPOS>MOLECULE
frag5-682-60/138278
   17    18     1     1     1
SMALL
USER_CHARGES


@<TRIPOS>ATOM
      1 C1          3.4741   -1.0127    0.2950 C.2        1 <1>        0.000
      2 C2          3.3718    0.4693    0.0944 C.2        1 <1>        0.000
      3 N1          2.4237   -1.5063    0.7651 N.2        1 <1>        0.000
      4 C3          4.6163   -1.8472    0.0973 C.2        1 <1>        0.000
      5 N2          2.1751    0.7241    0.5066 N.2        1 <1>        0.000
      6 C4          4.5136    1.2118   -0.4010 C.2        1 <1>        0.000
      7 C5          1.4931   -0.4662    0.9697 C.3        1 <1>        0.000
      8 C6          5.6124   -1.0618   -0.3308 C.2        1 <1>        0.000
      9 C7          5.5564    0.3607   -0.5581 C.2        1 <1>        0.000
     10 S1         -0.0165   -1.0576    1.3384 S.o        1 <1>        0.000
     11 O1         -0.8438   -1.7469    0.3201 O.2        1 <1>        0.000
     12 H           4.6674   -2.9232    0.2639 H.spc      1 <1>        0.000
     13 H           4.5308    2.2809   -0.6128 H.spc      1 <1>        0.000
     14 H           0.9240    0.2257    1.5906 H.spc      1 <1>        0.000
     15 H           6.5669   -1.5496   -0.5284 H.spc      1 <1>        0.000
     16 H           6.4839    0.8160   -0.9054 H.spc      1 <1>        0.000
     17 H          -0.7207    0.0298    1.6391 H.spc      1 <1>        0.000
@<TRIPOS>BOND
     1    7   10 1  
     2   10   11 2  
     3    8    9 1  
     4    6    9 2  
     5    5    7 1  
     6    1    2 1  
     7    1    3 2  
     8    1    4 1  
     9    2    5 2  
    10    2    6 1  
    11    3    7 1  
    12    4    8 2  
    13    4   12 1  
    14    6   13 1  
    15    7   14 1  
    16    8   15 1  
    17    9   16 1  
    18   10   17 1  
# Name:          frag5-682-60/138278 -- energy: -0.444233
# Creation time: Sat Jun  5 12:51:56 2010


@<TRIPOS>MOLECULE
frag5-682-60/138278 -- energy: -0.444233
   17    18     1     1     1
SMALL
USER_CHARGES


@<TRIPOS>ATOM
      1 C1          3.3622   -0.9485    0.0562 C.2        1 <1>        0.000
      2 C2          3.4051    0.5324    0.1486 C.2        1 <1>        0.000
      3 N1          2.1893   -1.3660    0.2534 N.2        1 <1>        0.000
      4 C3          4.4167   -1.8730   -0.1218 C.2        1 <1>        0.000
      5 N2          2.2021    0.8707    0.3620 N.2        1 <1>        0.000
      6 C4          4.6816    1.1591   -0.0065 C.2        1 <1>        0.000
      7 C5          1.3171   -0.2335    0.5263 C.3        1 <1>        0.000
      8 C6          5.5330   -1.1665   -0.2420 C.2        1 <1>        0.000
      9 C7          5.6591    0.2562   -0.1871 C.2        1 <1>        0.000
     10 S1         -0.1700   -0.8997    0.8471 S.o        1 <1>        0.000
     11 O1         -0.2201   -2.2638    1.4607 O.2        1 <1>        0.000
     12 H           4.3292   -2.9590   -0.1541 H.spc      1 <1>        0.000
     13 H           4.8412    2.2370    0.0188 H.spc      1 <1>        0.000
     14 H           0.6487    0.5975    0.7518 H.spc      1 <1>        0.000
     15 H           6.4520   -1.7311   -0.3994 H.spc      1 <1>        0.000
     16 H           6.6666    0.6549   -0.3057 H.spc      1 <1>        0.000
     17 H          -0.7582   -1.0283   -0.3388 H.spc      1 <1>        0.000
@<TRIPOS>BOND
     1    7   10 1  
     2   10   11 2  
     3    8    9 1  
     4    6    9 2  
     5    5    7 1  
     6    1    2 1  
     7    1    3 2  
     8    1    4 1  
     9    2    5 2  
    10    2    6 1  
    11    3    7 1  
    12    4    8 2  
    13    4   12 1  
    14    6   13 1  
    15    7   14 1  
    16    8   15 1  
    17    9   16 1  
    18   10   17 1  
# Name:          frag5-682-60/138278 -- energy: 0.871989
# Creation time: Sat Jun  5 12:51:56 2010


@<TRIPOS>MOLECULE
frag5-682-60/138278 -- energy: 0.871989
   17    18     1     1     1
SMALL
USER_CHARGES


@<TRIPOS>ATOM
      1 C1          3.4741   -1.0127    0.2950 C.2        1 <1>        0.000
      2 C2          3.3718    0.4693    0.0944 C.2        1 <1>        0.000
      3 N1          2.4237   -1.5063    0.7651 N.2        1 <1>        0.000
      4 C3          4.6163   -1.8472    0.0973 C.2        1 <1>        0.000
      5 N2          2.1751    0.7241    0.5066 N.2        1 <1>        0.000
      6 C4          4.5136    1.2118   -0.4010 C.2        1 <1>        0.000
      7 C5          1.4931   -0.4662    0.9697 C.3        1 <1>        0.000
      8 C6          5.6124   -1.0618   -0.3308 C.2        1 <1>        0.000
      9 C7          5.5564    0.3607   -0.5581 C.2        1 <1>        0.000
     10 S1         -0.0165   -1.0576    1.3384 S.o        1 <1>        0.000
     11 O1         -0.8438   -1.7469    0.3201 O.2        1 <1>        0.000
     12 H           4.6674   -2.9232    0.2639 H.spc      1 <1>        0.000
     13 H           4.5308    2.2809   -0.6128 H.spc      1 <1>        0.000
     14 H           0.9240    0.2257    1.5906 H.spc      1 <1>        0.000
     15 H           6.5669   -1.5496   -0.5284 H.spc      1 <1>        0.000
     16 H           6.4839    0.8160   -0.9054 H.spc      1 <1>        0.000
     17 H          -0.7207    0.0298    1.6391 H.spc      1 <1>        0.000
@<TRIPOS>BOND
     1    7   10 1  
     2   10   11 2  
     3    8    9 1  
     4    6    9 2  
     5    5    7 1  
     6    1    2 1  
     7    1    3 2  
     8    1    4 1  
     9    2    5 2  
    10    2    6 1  
    11    3    7 1  
    12    4    8 2  
    13    4   12 1  
    14    6   13 1  
    15    7   14 1  
    16    8   15 1  
    17    9   16 1  
    18   10   17 1  
