#      Rotatable Fragment
#      Build by yxyuan
#
# Name:          frag5-637-28/41815
# Creation time: Sat Jun  5 12:53:00 2010


@<TRIPOS>MOLECULE
frag5-637-28/41815
   15    15     1     1     1
SMALL
USER_CHARGES


@<TRIPOS>ATOM
      1 C7         -2.3090   -0.4672    0.0714 C.2        1 <1>        0.000
      2 O2         -2.8319   -1.4209    0.6307 O.2        1 <1>        0.000
      3 C8         -0.8522   -0.3144    0.0231 C.ar       1 <1>        0.000
      4 C9         -0.2639    0.9732    0.0719 C.ar       1 <1>        0.000
      5 C10         1.1746    1.0773    0.0212 C.ar       1 <1>        0.000
      6 C11         1.9854   -0.0523   -0.0722 C.ar       1 <1>        0.000
      7 C12         1.3978   -1.3143   -0.1196 C.ar       1 <1>        0.000
      8 C13        -0.0154   -1.4458   -0.0716 C.ar       1 <1>        0.000
      9 O4         -1.0323    2.0944    0.1629 O.3        1 <1>        0.000
     10 H          -2.9401    0.2854   -0.4014 H.spc      1 <1>        0.000
     11 H           1.6381    2.0632    0.0568 H.spc      1 <1>        0.000
     12 H           3.0699    0.0509   -0.1078 H.spc      1 <1>        0.000
     13 H           2.0243   -2.2032   -0.1937 H.spc      1 <1>        0.000
     14 H          -0.4617   -2.4396   -0.1086 H.spc      1 <1>        0.000
     15 H          -0.4652    2.8687    0.1842 H.spc      1 <1>        0.000
@<TRIPOS>BOND
     1    1    2 2  
     2    1    3 1  
     3    3    4 ar 
     4    3    8 ar 
     5    4    5 ar 
     6    4    9 1  
     7    5    6 ar 
     8    6    7 ar 
     9    7    8 ar 
    10    1   10 1  
    11    5   11 1  
    12    6   12 1  
    13    7   13 1  
    14    8   14 1  
    15    9   15 1  
# Name:          frag5-637-28/41815
# Creation time: Sat Jun  5 12:53:00 2010


@<TRIPOS>MOLECULE
frag5-637-28/41815
   15    15     1     1     1
SMALL
USER_CHARGES


@<TRIPOS>ATOM
      1 C7         -2.1822   -0.9566    0.0843 C.2        1 <1>        0.000
      2 O2         -3.0117   -0.2138    0.5903 O.2        1 <1>        0.000
      3 C8         -0.7607   -0.5890    0.0210 C.ar       1 <1>        0.000
      4 C9         -0.3713    0.7703    0.1292 C.ar       1 <1>        0.000
      5 C10         1.0357    1.0832    0.0610 C.ar       1 <1>        0.000
      6 C11         2.0015    0.0931   -0.1038 C.ar       1 <1>        0.000
      7 C12         1.6037   -1.2376   -0.2081 C.ar       1 <1>        0.000
      8 C13         0.2276   -1.5776   -0.1455 C.ar       1 <1>        0.000
      9 O4         -1.2897    1.7580    0.2894 O.3        1 <1>        0.000
     10 H          -2.5044   -1.9124   -0.3289 H.spc      1 <1>        0.000
     11 H           1.3516    2.1234    0.1407 H.spc      1 <1>        0.000
     12 H           3.0580    0.3571   -0.1507 H.spc      1 <1>        0.000
     13 H           2.3515   -2.0199   -0.3382 H.spc      1 <1>        0.000
     14 H          -0.0697   -2.6230   -0.2278 H.spc      1 <1>        0.000
     15 H          -0.8410    2.6050    0.3428 H.spc      1 <1>        0.000
@<TRIPOS>BOND
     1    1    2 2  
     2    1    3 1  
     3    3    4 ar 
     4    3    8 ar 
     5    4    5 ar 
     6    4    9 1  
     7    5    6 ar 
     8    6    7 ar 
     9    7    8 ar 
    10    1   10 1  
    11    5   11 1  
    12    6   12 1  
    13    7   13 1  
    14    8   14 1  
    15    9   15 1  
# Name:          frag5-637-28/41815 -- energy: -0.589339
# Creation time: Sat Jun  5 12:53:00 2010


@<TRIPOS>MOLECULE
frag5-637-28/41815 -- energy: -0.589339
   15    15     1     1     1
SMALL
USER_CHARGES


@<TRIPOS>ATOM
      1 C7         -2.3090   -0.4672    0.0714 C.2        1 <1>        0.000
      2 O2         -2.8319   -1.4209    0.6307 O.2        1 <1>        0.000
      3 C8         -0.8522   -0.3144    0.0231 C.ar       1 <1>        0.000
      4 C9         -0.2639    0.9732    0.0719 C.ar       1 <1>        0.000
      5 C10         1.1746    1.0773    0.0212 C.ar       1 <1>        0.000
      6 C11         1.9854   -0.0523   -0.0722 C.ar       1 <1>        0.000
      7 C12         1.3978   -1.3143   -0.1196 C.ar       1 <1>        0.000
      8 C13        -0.0154   -1.4458   -0.0716 C.ar       1 <1>        0.000
      9 O4         -1.0323    2.0944    0.1629 O.3        1 <1>        0.000
     10 H          -2.9401    0.2854   -0.4014 H.spc      1 <1>        0.000
     11 H           1.6381    2.0632    0.0568 H.spc      1 <1>        0.000
     12 H           3.0699    0.0509   -0.1078 H.spc      1 <1>        0.000
     13 H           2.0243   -2.2032   -0.1937 H.spc      1 <1>        0.000
     14 H          -0.4617   -2.4396   -0.1086 H.spc      1 <1>        0.000
     15 H          -0.4652    2.8687    0.1842 H.spc      1 <1>        0.000
@<TRIPOS>BOND
     1    1    2 2  
     2    1    3 1  
     3    3    4 ar 
     4    3    8 ar 
     5    4    5 ar 
     6    4    9 1  
     7    5    6 ar 
     8    6    7 ar 
     9    7    8 ar 
    10    1   10 1  
    11    5   11 1  
    12    6   12 1  
    13    7   13 1  
    14    8   14 1  
    15    9   15 1  
# Name:          frag5-637-28/41815 -- energy: -0.358101
# Creation time: Sat Jun  5 12:53:00 2010


@<TRIPOS>MOLECULE
frag5-637-28/41815 -- energy: -0.358101
   15    15     1     1     1
SMALL
USER_CHARGES


@<TRIPOS>ATOM
      1 C7         -2.1822   -0.9566    0.0843 C.2        1 <1>        0.000
      2 O2         -3.0117   -0.2138    0.5903 O.2        1 <1>        0.000
      3 C8         -0.7607   -0.5890    0.0210 C.ar       1 <1>        0.000
      4 C9         -0.3713    0.7703    0.1292 C.ar       1 <1>        0.000
      5 C10         1.0357    1.0832    0.0610 C.ar       1 <1>        0.000
      6 C11         2.0015    0.0931   -0.1038 C.ar       1 <1>        0.000
      7 C12         1.6037   -1.2376   -0.2081 C.ar       1 <1>        0.000
      8 C13         0.2276   -1.5776   -0.1455 C.ar       1 <1>        0.000
      9 O4         -1.2897    1.7580    0.2894 O.3        1 <1>        0.000
     10 H          -2.5044   -1.9124   -0.3289 H.spc      1 <1>        0.000
     11 H           1.3516    2.1234    0.1407 H.spc      1 <1>        0.000
     12 H           3.0580    0.3571   -0.1507 H.spc      1 <1>        0.000
     13 H           2.3515   -2.0199   -0.3382 H.spc      1 <1>        0.000
     14 H          -0.0697   -2.6230   -0.2278 H.spc      1 <1>        0.000
     15 H          -0.8410    2.6050    0.3428 H.spc      1 <1>        0.000
@<TRIPOS>BOND
     1    1    2 2  
     2    1    3 1  
     3    3    4 ar 
     4    3    8 ar 
     5    4    5 ar 
     6    4    9 1  
     7    5    6 ar 
     8    6    7 ar 
     9    7    8 ar 
    10    1   10 1  
    11    5   11 1  
    12    6   12 1  
    13    7   13 1  
    14    8   14 1  
    15    9   15 1  
