#      Rotatable Fragment
#      Build by yxyuan
#
# Name:          frag3-197-9/96164
# Creation time: Sat Jun  5 12:53:09 2010


@<TRIPOS>MOLECULE
frag3-197-9/96164
    8     7     1     1     1
SMALL
USER_CHARGES


@<TRIPOS>ATOM
      1 S2         -0.7786   -0.5619    0.2049 S.3        1 <1>        0.000
      2 C10         0.7586    0.1916   -0.0622 C.2        1 <1>        0.000
      3 N2          1.6634   -0.7387    0.1936 N.am       1 <1>        0.000
      4 S3          1.2286    1.6944   -0.5730 S.2        1 <1>        0.000
      5 O5          2.9298   -0.8614   -0.3021 O.3        1 <1>        0.000
      6 H          -0.5918   -1.8101    0.6243 H.spc      1 <1>        0.000
      7 H           1.3758   -1.4636    0.8511 H.spc      1 <1>        0.000
      8 H           3.3443   -1.6424    0.0719 H.spc      1 <1>        0.000
@<TRIPOS>BOND
     1    1    2 1  
     2    2    3 am 
     3    2    4 2  
     4    3    5 1  
     5    1    6 1  
     6    3    7 1  
     7    5    8 1  
# Name:          frag3-197-9/96164 -- energy: 0.121896
# Creation time: Sat Jun  5 12:53:09 2010


@<TRIPOS>MOLECULE
frag3-197-9/96164 -- energy: 0.121896
    8     7     1     1     1
SMALL
USER_CHARGES


@<TRIPOS>ATOM
      1 S2         -0.7786   -0.5619    0.2049 S.3        1 <1>        0.000
      2 C10         0.7586    0.1916   -0.0622 C.2        1 <1>        0.000
      3 N2          1.6634   -0.7387    0.1936 N.am       1 <1>        0.000
      4 S3          1.2286    1.6944   -0.5730 S.2        1 <1>        0.000
      5 O5          2.9298   -0.8614   -0.3021 O.3        1 <1>        0.000
      6 H          -0.5918   -1.8101    0.6243 H.spc      1 <1>        0.000
      7 H           1.3758   -1.4636    0.8511 H.spc      1 <1>        0.000
      8 H           3.3443   -1.6424    0.0719 H.spc      1 <1>        0.000
@<TRIPOS>BOND
     1    1    2 1  
     2    2    3 am 
     3    2    4 2  
     4    3    5 1  
     5    1    6 1  
     6    3    7 1  
     7    5    8 1  
