#      Rotatable Fragment
#      Build by yxyuan
#
# Name:          frag5-602-35/41815
# Creation time: Sat Jun  5 12:52:58 2010


@<TRIPOS>MOLECULE
frag5-602-35/41815
   14    14     1     1     1
SMALL
USER_CHARGES


@<TRIPOS>ATOM
      1 C7          3.8281    2.4657   -2.1942 C.3        1 <1>        0.000
      2 S1          5.3371    3.2505   -1.5817 S.3        1 <1>        0.000
      3 C8          5.9114    1.8026   -0.7515 C.3        1 <1>        0.000
      4 C9          5.1473    0.6801   -1.4686 C.3        1 <1>        0.000
      5 N1          3.8130    1.1107   -1.8740 N.am       1 <1>        0.000
      6 C10         2.6747    0.3317   -1.7200 C.2        1 <1>        0.000
      7 O1          2.5602   -0.7577   -1.1446 O.2        1 <1>        0.000
      8 H           3.7909    2.5719   -3.2784 H.spc      1 <1>        0.000
      9 H           2.9673    2.9470   -1.7300 H.spc      1 <1>        0.000
     10 H           5.7263    1.8255    0.3224 H.spc      1 <1>        0.000
     11 H           6.9935    1.6824   -0.8037 H.spc      1 <1>        0.000
     12 H           5.0437   -0.1592   -0.7809 H.spc      1 <1>        0.000
     13 H           5.7050    0.4010   -2.3626 H.spc      1 <1>        0.000
     14 H           1.7629    0.7316   -2.1637 H.spc      1 <1>        0.000
@<TRIPOS>BOND
     1    1    2 1  
     2    1    5 1  
     3    2    3 1  
     4    3    4 1  
     5    4    5 1  
     6    5    6 am 
     7    6    7 2  
     8    1    8 1  
     9    1    9 1  
    10    3   10 1  
    11    3   11 1  
    12    4   12 1  
    13    4   13 1  
    14    6   14 1  
# Name:          frag5-602-35/41815
# Creation time: Sat Jun  5 12:52:58 2010


@<TRIPOS>MOLECULE
frag5-602-35/41815
   14    14     1     1     1
SMALL
USER_CHARGES


@<TRIPOS>ATOM
      1 C7          3.5945    2.3345   -1.5675 C.3        1 <1>        0.000
      2 S1          5.0600    2.9948   -2.2398 S.3        1 <1>        0.000
      3 C8          6.1198    1.8376   -1.3658 C.3        1 <1>        0.000
      4 C9          5.2281    0.8733   -0.5962 C.3        1 <1>        0.000
      5 N1          3.9052    0.9734   -1.1766 N.am       1 <1>        0.000
      6 C10         3.1919   -0.0822   -1.5619 C.2        1 <1>        0.000
      7 O1          2.1725   -0.0477   -2.2269 O.2        1 <1>        0.000
      8 H           2.7831    2.3586   -2.2950 H.spc      1 <1>        0.000
      9 H           3.2555    2.9206   -0.7133 H.spc      1 <1>        0.000
     10 H           6.7768    2.3724   -0.6799 H.spc      1 <1>        0.000
     11 H           6.7444    1.2910   -2.0724 H.spc      1 <1>        0.000
     12 H           5.2066    1.1270    0.4636 H.spc      1 <1>        0.000
     13 H           5.6068   -0.1463   -0.6681 H.spc      1 <1>        0.000
     14 H           3.5521   -1.0642   -1.2551 H.spc      1 <1>        0.000
@<TRIPOS>BOND
     1    1    2 1  
     2    1    5 1  
     3    2    3 1  
     4    3    4 1  
     5    4    5 1  
     6    5    6 am 
     7    6    7 2  
     8    1    8 1  
     9    1    9 1  
    10    3   10 1  
    11    3   11 1  
    12    4   12 1  
    13    4   13 1  
    14    6   14 1  
# Name:          frag5-602-35/41815
# Creation time: Sat Jun  5 12:52:58 2010


@<TRIPOS>MOLECULE
frag5-602-35/41815
   14    14     1     1     1
SMALL
USER_CHARGES


@<TRIPOS>ATOM
      1 C7          3.7341    2.2130   -1.9756 C.3        1 <1>        0.000
      2 S1          5.0091    3.2868   -1.4845 S.3        1 <1>        0.000
      3 C8          5.9916    1.9360   -0.8611 C.3        1 <1>        0.000
      4 C9          5.4685    0.7251   -1.6445 C.3        1 <1>        0.000
      5 N1          4.0447    0.8408   -1.8671 N.am       1 <1>        0.000
      6 C10         3.1072   -0.1230   -1.5622 C.2        1 <1>        0.000
      7 O1          1.9166    0.0050   -1.3397 O.2        1 <1>        0.000
      8 H           3.5398    2.4121   -3.0295 H.spc      1 <1>        0.000
      9 H           2.8887    2.4004   -1.3135 H.spc      1 <1>        0.000
     10 H           5.8949    1.8106    0.2173 H.spc      1 <1>        0.000
     11 H           7.0606    2.0958   -1.0018 H.spc      1 <1>        0.000
     12 H           5.6640   -0.1797   -1.0689 H.spc      1 <1>        0.000
     13 H           5.9748    0.6823   -2.6088 H.spc      1 <1>        0.000
     14 H           3.4851   -1.1442   -1.5133 H.spc      1 <1>        0.000
@<TRIPOS>BOND
     1    1    2 1  
     2    1    5 1  
     3    2    3 1  
     4    3    4 1  
     5    4    5 1  
     6    5    6 am 
     7    6    7 2  
     8    1    8 1  
     9    1    9 1  
    10    3   10 1  
    11    3   11 1  
    12    4   12 1  
    13    4   13 1  
    14    6   14 1  
# Name:          frag5-602-35/41815 -- energy: -1.096360
# Creation time: Sat Jun  5 12:52:58 2010


@<TRIPOS>MOLECULE
frag5-602-35/41815 -- energy: -1.096360
   14    14     1     1     1
SMALL
USER_CHARGES


@<TRIPOS>ATOM
      1 C7          3.8281    2.4657   -2.1942 C.3        1 <1>        0.000
      2 S1          5.3371    3.2505   -1.5817 S.3        1 <1>        0.000
      3 C8          5.9114    1.8026   -0.7515 C.3        1 <1>        0.000
      4 C9          5.1473    0.6801   -1.4686 C.3        1 <1>        0.000
      5 N1          3.8130    1.1107   -1.8740 N.am       1 <1>        0.000
      6 C10         2.6747    0.3317   -1.7200 C.2        1 <1>        0.000
      7 O1          2.5602   -0.7577   -1.1446 O.2        1 <1>        0.000
      8 H           3.7909    2.5719   -3.2784 H.spc      1 <1>        0.000
      9 H           2.9673    2.9470   -1.7300 H.spc      1 <1>        0.000
     10 H           5.7263    1.8255    0.3224 H.spc      1 <1>        0.000
     11 H           6.9935    1.6824   -0.8037 H.spc      1 <1>        0.000
     12 H           5.0437   -0.1592   -0.7809 H.spc      1 <1>        0.000
     13 H           5.7050    0.4010   -2.3626 H.spc      1 <1>        0.000
     14 H           1.7629    0.7316   -2.1637 H.spc      1 <1>        0.000
@<TRIPOS>BOND
     1    1    2 1  
     2    1    5 1  
     3    2    3 1  
     4    3    4 1  
     5    4    5 1  
     6    5    6 am 
     7    6    7 2  
     8    1    8 1  
     9    1    9 1  
    10    3   10 1  
    11    3   11 1  
    12    4   12 1  
    13    4   13 1  
    14    6   14 1  
# Name:          frag5-602-35/41815 -- energy: -1.061359
# Creation time: Sat Jun  5 12:52:58 2010


@<TRIPOS>MOLECULE
frag5-602-35/41815 -- energy: -1.061359
   14    14     1     1     1
SMALL
USER_CHARGES


@<TRIPOS>ATOM
      1 C7          3.5945    2.3345   -1.5675 C.3        1 <1>        0.000
      2 S1          5.0600    2.9948   -2.2398 S.3        1 <1>        0.000
      3 C8          6.1198    1.8376   -1.3658 C.3        1 <1>        0.000
      4 C9          5.2281    0.8733   -0.5962 C.3        1 <1>        0.000
      5 N1          3.9052    0.9734   -1.1766 N.am       1 <1>        0.000
      6 C10         3.1919   -0.0822   -1.5619 C.2        1 <1>        0.000
      7 O1          2.1725   -0.0477   -2.2269 O.2        1 <1>        0.000
      8 H           2.7831    2.3586   -2.2950 H.spc      1 <1>        0.000
      9 H           3.2555    2.9206   -0.7133 H.spc      1 <1>        0.000
     10 H           6.7768    2.3724   -0.6799 H.spc      1 <1>        0.000
     11 H           6.7444    1.2910   -2.0724 H.spc      1 <1>        0.000
     12 H           5.2066    1.1270    0.4636 H.spc      1 <1>        0.000
     13 H           5.6068   -0.1463   -0.6681 H.spc      1 <1>        0.000
     14 H           3.5521   -1.0642   -1.2551 H.spc      1 <1>        0.000
@<TRIPOS>BOND
     1    1    2 1  
     2    1    5 1  
     3    2    3 1  
     4    3    4 1  
     5    4    5 1  
     6    5    6 am 
     7    6    7 2  
     8    1    8 1  
     9    1    9 1  
    10    3   10 1  
    11    3   11 1  
    12    4   12 1  
    13    4   13 1  
    14    6   14 1  
# Name:          frag5-602-35/41815 -- energy: -1.106398
# Creation time: Sat Jun  5 12:52:58 2010


@<TRIPOS>MOLECULE
frag5-602-35/41815 -- energy: -1.106398
   14    14     1     1     1
SMALL
USER_CHARGES


@<TRIPOS>ATOM
      1 C7          3.7341    2.2130   -1.9756 C.3        1 <1>        0.000
      2 S1          5.0091    3.2868   -1.4845 S.3        1 <1>        0.000
      3 C8          5.9916    1.9360   -0.8611 C.3        1 <1>        0.000
      4 C9          5.4685    0.7251   -1.6445 C.3        1 <1>        0.000
      5 N1          4.0447    0.8408   -1.8671 N.am       1 <1>        0.000
      6 C10         3.1072   -0.1230   -1.5622 C.2        1 <1>        0.000
      7 O1          1.9166    0.0050   -1.3397 O.2        1 <1>        0.000
      8 H           3.5398    2.4121   -3.0295 H.spc      1 <1>        0.000
      9 H           2.8887    2.4004   -1.3135 H.spc      1 <1>        0.000
     10 H           5.8949    1.8106    0.2173 H.spc      1 <1>        0.000
     11 H           7.0606    2.0958   -1.0018 H.spc      1 <1>        0.000
     12 H           5.6640   -0.1797   -1.0689 H.spc      1 <1>        0.000
     13 H           5.9748    0.6823   -2.6088 H.spc      1 <1>        0.000
     14 H           3.4851   -1.1442   -1.5133 H.spc      1 <1>        0.000
@<TRIPOS>BOND
     1    1    2 1  
     2    1    5 1  
     3    2    3 1  
     4    3    4 1  
     5    4    5 1  
     6    5    6 am 
     7    6    7 2  
     8    1    8 1  
     9    1    9 1  
    10    3   10 1  
    11    3   11 1  
    12    4   12 1  
    13    4   13 1  
    14    6   14 1  
