#      Rotatable Fragment
#      Build by yxyuan
#
# Name:          frag4-393-65/48856
# Creation time: Sat Jun  5 12:53:44 2010


@<TRIPOS>MOLECULE
frag4-393-65/48856
   16    17     1     1     1
SMALL
USER_CHARGES


@<TRIPOS>ATOM
      1 C1         -2.5613   -0.1487   -0.0435 C.ar       1 <1>        0.000
      2 C2         -2.3169    1.1952    0.0759 C.ar       1 <1>        0.000
      3 N1         -1.0421    1.5671    0.1374 N.ar       1 <1>        0.000
      4 C3          0.0406    0.7876    0.0735 C.ar       1 <1>        0.000
      5 C4         -0.1296   -0.6012   -0.0530 C.ar       1 <1>        0.000
      6 C5         -1.4678   -1.0350   -0.1031 C.ar       1 <1>        0.000
      7 C6          1.0506   -1.4378   -0.1157 C.ar       1 <1>        0.000
      8 C7          2.2441   -0.8878   -0.0561 C.ar       1 <1>        0.000
      9 C8          2.3646    0.5565    0.0713 C.ar       1 <1>        0.000
     10 N2          1.3224    1.3058    0.1323 N.ar       1 <1>        0.000
     11 H          -3.5833   -0.5246   -0.0914 H.spc      1 <1>        0.000
     12 H          -3.1277    1.9225    0.1183 H.spc      1 <1>        0.000
     13 H          -1.6666   -2.1030   -0.1919 H.spc      1 <1>        0.000
     14 H           0.9505   -2.5189   -0.2119 H.spc      1 <1>        0.000
     15 H           3.1375   -1.5105   -0.1019 H.spc      1 <1>        0.000
     16 H           3.3547    1.0102    0.1157 H.spc      1 <1>        0.000
@<TRIPOS>BOND
     1    7    8 ar 
     2    8    9 ar 
     3    9   10 ar 
     4    1    2 ar 
     5    1    6 ar 
     6    2    3 ar 
     7    3    4 ar 
     8    4    5 ar 
     9    4   10 ar 
    10    5    6 ar 
    11    5    7 ar 
    12    1   11 1  
    13    2   12 1  
    14    6   13 1  
    15    7   14 1  
    16    8   15 1  
    17    9   16 1  
# Name:          frag4-393-65/48856 -- energy: 0.123107
# Creation time: Sat Jun  5 12:53:44 2010


@<TRIPOS>MOLECULE
frag4-393-65/48856 -- energy: 0.123107
   16    17     1     1     1
SMALL
USER_CHARGES


@<TRIPOS>ATOM
      1 C1         -2.5613   -0.1487   -0.0435 C.ar       1 <1>        0.000
      2 C2         -2.3169    1.1952    0.0759 C.ar       1 <1>        0.000
      3 N1         -1.0421    1.5671    0.1374 N.ar       1 <1>        0.000
      4 C3          0.0406    0.7876    0.0735 C.ar       1 <1>        0.000
      5 C4         -0.1296   -0.6012   -0.0530 C.ar       1 <1>        0.000
      6 C5         -1.4678   -1.0350   -0.1031 C.ar       1 <1>        0.000
      7 C6          1.0506   -1.4378   -0.1157 C.ar       1 <1>        0.000
      8 C7          2.2441   -0.8878   -0.0561 C.ar       1 <1>        0.000
      9 C8          2.3646    0.5565    0.0713 C.ar       1 <1>        0.000
     10 N2          1.3224    1.3058    0.1323 N.ar       1 <1>        0.000
     11 H          -3.5833   -0.5246   -0.0914 H.spc      1 <1>        0.000
     12 H          -3.1277    1.9225    0.1183 H.spc      1 <1>        0.000
     13 H          -1.6666   -2.1030   -0.1919 H.spc      1 <1>        0.000
     14 H           0.9505   -2.5189   -0.2119 H.spc      1 <1>        0.000
     15 H           3.1375   -1.5105   -0.1019 H.spc      1 <1>        0.000
     16 H           3.3547    1.0102    0.1157 H.spc      1 <1>        0.000
@<TRIPOS>BOND
     1    7    8 ar 
     2    8    9 ar 
     3    9   10 ar 
     4    1    2 ar 
     5    1    6 ar 
     6    2    3 ar 
     7    3    4 ar 
     8    4    5 ar 
     9    4   10 ar 
    10    5    6 ar 
    11    5    7 ar 
    12    1   11 1  
    13    2   12 1  
    14    6   13 1  
    15    7   14 1  
    16    8   15 1  
    17    9   16 1  
