#      Rotatable Fragment
#      Build by yxyuan
#
# Name:          frag5-539-221/138278
# Creation time: Sat Jun  5 12:53:41 2010


@<TRIPOS>MOLECULE
frag5-539-221/138278
   16    16     1     1     1
SMALL
USER_CHARGES


@<TRIPOS>ATOM
      1 C10         0.4175    0.4866   -0.2601 C.2        1 <1>        0.000
      2 C13         1.5238    1.1189   -0.6762 C.2        1 <1>        0.000
      3 C16         2.8951    0.5502   -0.5243 C.ar       1 <1>        0.000
      4 C17         3.0970   -0.8407   -0.5830 C.ar       1 <1>        0.000
      5 C18         4.0145    1.3767   -0.3276 C.ar       1 <1>        0.000
      6 C19         4.3141   -1.3935   -0.1912 C.ar       1 <1>        0.000
      7 C20         5.2268    0.8283    0.0824 C.ar       1 <1>        0.000
      8 C21         5.3705   -0.5575    0.1794 C.ar       1 <1>        0.000
      9 H           0.4948   -0.4912    0.2153 H.spc      1 <1>        0.000
     10 H          -0.5594    0.9502   -0.3972 H.spc      1 <1>        0.000
     11 H           1.4166    2.0955   -1.1483 H.spc      1 <1>        0.000
     12 H           2.2962   -1.4898   -0.9372 H.spc      1 <1>        0.000
     13 H           3.9334    2.4505   -0.4965 H.spc      1 <1>        0.000
     14 H           4.4421   -2.4758   -0.1738 H.spc      1 <1>        0.000
     15 H           6.0645    1.4811    0.3279 H.spc      1 <1>        0.000
     16 H           6.3044   -0.9858    0.5433 H.spc      1 <1>        0.000
@<TRIPOS>BOND
     1    6    8 ar 
     2    7    8 ar 
     3    1    2 2  
     4    2    3 1  
     5    3    4 ar 
     6    3    5 ar 
     7    4    6 ar 
     8    5    7 ar 
     9    1    9 1  
    10    1   10 1  
    11    2   11 1  
    12    4   12 1  
    13    5   13 1  
    14    6   14 1  
    15    7   15 1  
    16    8   16 1  
# Name:          frag5-539-221/138278 -- energy: -0.552616
# Creation time: Sat Jun  5 12:53:41 2010


@<TRIPOS>MOLECULE
frag5-539-221/138278 -- energy: -0.552616
   16    16     1     1     1
SMALL
USER_CHARGES


@<TRIPOS>ATOM
      1 C10         0.4175    0.4866   -0.2601 C.2        1 <1>        0.000
      2 C13         1.5238    1.1189   -0.6762 C.2        1 <1>        0.000
      3 C16         2.8951    0.5502   -0.5243 C.ar       1 <1>        0.000
      4 C17         3.0970   -0.8407   -0.5830 C.ar       1 <1>        0.000
      5 C18         4.0145    1.3767   -0.3276 C.ar       1 <1>        0.000
      6 C19         4.3141   -1.3935   -0.1912 C.ar       1 <1>        0.000
      7 C20         5.2268    0.8283    0.0824 C.ar       1 <1>        0.000
      8 C21         5.3705   -0.5575    0.1794 C.ar       1 <1>        0.000
      9 H           0.4948   -0.4912    0.2153 H.spc      1 <1>        0.000
     10 H          -0.5594    0.9502   -0.3972 H.spc      1 <1>        0.000
     11 H           1.4166    2.0955   -1.1483 H.spc      1 <1>        0.000
     12 H           2.2962   -1.4898   -0.9372 H.spc      1 <1>        0.000
     13 H           3.9334    2.4505   -0.4965 H.spc      1 <1>        0.000
     14 H           4.4421   -2.4758   -0.1738 H.spc      1 <1>        0.000
     15 H           6.0645    1.4811    0.3279 H.spc      1 <1>        0.000
     16 H           6.3044   -0.9858    0.5433 H.spc      1 <1>        0.000
@<TRIPOS>BOND
     1    6    8 ar 
     2    7    8 ar 
     3    1    2 2  
     4    2    3 1  
     5    3    4 ar 
     6    3    5 ar 
     7    4    6 ar 
     8    5    7 ar 
     9    1    9 1  
    10    1   10 1  
    11    2   11 1  
    12    4   12 1  
    13    5   13 1  
    14    6   14 1  
    15    7   15 1  
    16    8   16 1  
