#      Rotatable Fragment
#      Build by yxyuan
#
# Name:          frag5-624-31/41815
# Creation time: Sat Jun  5 12:52:59 2010


@<TRIPOS>MOLECULE
frag5-624-31/41815
   23    24     1     1     1
SMALL
USER_CHARGES


@<TRIPOS>ATOM
      1 C2          4.5208   -1.6834   -2.0002 C.3        1 <1>        0.000
      2 C3          5.4960   -1.8792   -3.1746 C.3        1 <1>        0.000
      3 C4          6.4128   -0.6508   -3.2995 C.3        1 <1>        0.000
      4 C5          7.1190   -0.1779   -2.0142 C.3        1 <1>        0.000
      5 C6          5.9572    0.2661   -1.1471 C.ar       1 <1>        0.000
      6 C7          4.7277   -0.4399   -1.1467 C.ar       1 <1>        0.000
      7 C8          3.6856    0.0223   -0.3346 C.ar       1 <1>        0.000
      8 C9          3.8396    1.1487    0.4568 C.ar       1 <1>        0.000
      9 C10         5.0459    1.8664    0.4736 C.ar       1 <1>        0.000
     10 C11         6.0848    1.3980   -0.3427 C.ar       1 <1>        0.000
     11 O1          5.1776    2.9815    1.2657 O.3        1 <1>        0.000
     12 H           3.5300   -1.5841   -2.4436 H.spc      1 <1>        0.000
     13 H           4.6728   -2.5343   -1.3362 H.spc      1 <1>        0.000
     14 H           6.1037   -2.7661   -2.9949 H.spc      1 <1>        0.000
     15 H           4.9292   -2.0017   -4.0976 H.spc      1 <1>        0.000
     16 H           5.7692    0.1730   -3.6079 H.spc      1 <1>        0.000
     17 H           7.2067   -0.9385   -3.9888 H.spc      1 <1>        0.000
     18 H           7.8462    0.6142   -2.1928 H.spc      1 <1>        0.000
     19 H           7.7266   -0.9546   -1.5498 H.spc      1 <1>        0.000
     20 H           2.7364   -0.5134   -0.3247 H.spc      1 <1>        0.000
     21 H           3.0089    1.4839    1.0779 H.spc      1 <1>        0.000
     22 H           7.0303    1.9403   -0.3489 H.spc      1 <1>        0.000
     23 H           6.0585    3.3474    1.1574 H.spc      1 <1>        0.000
@<TRIPOS>BOND
     1    2    3 1  
     2    6    7 ar 
     3    1    6 1  
     4    7    8 ar 
     5    9   11 1  
     6    5   10 ar 
     7    8    9 ar 
     8    9   10 ar 
     9    1    2 1  
    10    3    4 1  
    11    4    5 1  
    12    5    6 ar 
    13    1   12 1  
    14    1   13 1  
    15    2   14 1  
    16    2   15 1  
    17    3   16 1  
    18    3   17 1  
    19    4   18 1  
    20    4   19 1  
    21    7   20 1  
    22    8   21 1  
    23   10   22 1  
    24   11   23 1  
# Name:          frag5-624-31/41815 -- energy: -1.514720
# Creation time: Sat Jun  5 12:52:59 2010


@<TRIPOS>MOLECULE
frag5-624-31/41815 -- energy: -1.514720
   23    24     1     1     1
SMALL
USER_CHARGES


@<TRIPOS>ATOM
      1 C2          4.5208   -1.6834   -2.0002 C.3        1 <1>        0.000
      2 C3          5.4960   -1.8792   -3.1746 C.3        1 <1>        0.000
      3 C4          6.4128   -0.6508   -3.2995 C.3        1 <1>        0.000
      4 C5          7.1190   -0.1779   -2.0142 C.3        1 <1>        0.000
      5 C6          5.9572    0.2661   -1.1471 C.ar       1 <1>        0.000
      6 C7          4.7277   -0.4399   -1.1467 C.ar       1 <1>        0.000
      7 C8          3.6856    0.0223   -0.3346 C.ar       1 <1>        0.000
      8 C9          3.8396    1.1487    0.4568 C.ar       1 <1>        0.000
      9 C10         5.0459    1.8664    0.4736 C.ar       1 <1>        0.000
     10 C11         6.0848    1.3980   -0.3427 C.ar       1 <1>        0.000
     11 O1          5.1776    2.9815    1.2657 O.3        1 <1>        0.000
     12 H           3.5300   -1.5841   -2.4436 H.spc      1 <1>        0.000
     13 H           4.6728   -2.5343   -1.3362 H.spc      1 <1>        0.000
     14 H           6.1037   -2.7661   -2.9949 H.spc      1 <1>        0.000
     15 H           4.9292   -2.0017   -4.0976 H.spc      1 <1>        0.000
     16 H           5.7692    0.1730   -3.6079 H.spc      1 <1>        0.000
     17 H           7.2067   -0.9385   -3.9888 H.spc      1 <1>        0.000
     18 H           7.8462    0.6142   -2.1928 H.spc      1 <1>        0.000
     19 H           7.7266   -0.9546   -1.5498 H.spc      1 <1>        0.000
     20 H           2.7364   -0.5134   -0.3247 H.spc      1 <1>        0.000
     21 H           3.0089    1.4839    1.0779 H.spc      1 <1>        0.000
     22 H           7.0303    1.9403   -0.3489 H.spc      1 <1>        0.000
     23 H           6.0585    3.3474    1.1574 H.spc      1 <1>        0.000
@<TRIPOS>BOND
     1    2    3 1  
     2    6    7 ar 
     3    1    6 1  
     4    7    8 ar 
     5    9   11 1  
     6    5   10 ar 
     7    8    9 ar 
     8    9   10 ar 
     9    1    2 1  
    10    3    4 1  
    11    4    5 1  
    12    5    6 ar 
    13    1   12 1  
    14    1   13 1  
    15    2   14 1  
    16    2   15 1  
    17    3   16 1  
    18    3   17 1  
    19    4   18 1  
    20    4   19 1  
    21    7   20 1  
    22    8   21 1  
    23   10   22 1  
    24   11   23 1  
