#      Rotatable Fragment
#      Build by yxyuan
#
# Name:          frag4-401-199/150395
# Creation time: Sat Jun  5 12:53:34 2010


@<TRIPOS>MOLECULE
frag4-401-199/150395
   11    11     1     1     1
SMALL
USER_CHARGES


@<TRIPOS>ATOM
      1 C6          2.0601    2.0400   -0.0000 C.2        1 <1>        0.000
      2 N1          3.2538    1.4701   -0.0000 N.pl3      1 <1>        0.000
      3 N2          2.0677    3.3123   -0.0000 N.2        1 <1>        0.000
      4 C12         4.2972    2.4520   -0.0000 C.3        1 <1>        0.000
      5 C13         3.4413    3.7517    0.0000 C.3        1 <1>        0.000
      6 H           1.1364    1.4613   -0.0000 H.spc      1 <1>        0.000
      7 H           3.4111    0.4623   -0.0000 H.spc      1 <1>        0.000
      8 H           4.9938    2.3703   -0.8343 H.spc      1 <1>        0.000
      9 H           4.9938    2.3703    0.8343 H.spc      1 <1>        0.000
     10 H           3.6606    4.3729    0.8684 H.spc      1 <1>        0.000
     11 H           3.6606    4.3729   -0.8684 H.spc      1 <1>        0.000
@<TRIPOS>BOND
     1    1    2 1  
     2    1    3 2  
     3    2    4 1  
     4    3    5 1  
     5    4    5 1  
     6    1    6 1  
     7    2    7 1  
     8    4    8 1  
     9    4    9 1  
    10    5   10 1  
    11    5   11 1  
# Name:          frag4-401-199/150395 -- energy: -0.454131
# Creation time: Sat Jun  5 12:53:34 2010


@<TRIPOS>MOLECULE
frag4-401-199/150395 -- energy: -0.454131
   11    11     1     1     1
SMALL
USER_CHARGES


@<TRIPOS>ATOM
      1 C6          2.0601    2.0400   -0.0000 C.2        1 <1>        0.000
      2 N1          3.2538    1.4701   -0.0000 N.pl3      1 <1>        0.000
      3 N2          2.0677    3.3123   -0.0000 N.2        1 <1>        0.000
      4 C12         4.2972    2.4520   -0.0000 C.3        1 <1>        0.000
      5 C13         3.4413    3.7517    0.0000 C.3        1 <1>        0.000
      6 H           1.1364    1.4613   -0.0000 H.spc      1 <1>        0.000
      7 H           3.4111    0.4623   -0.0000 H.spc      1 <1>        0.000
      8 H           4.9938    2.3703   -0.8343 H.spc      1 <1>        0.000
      9 H           4.9938    2.3703    0.8343 H.spc      1 <1>        0.000
     10 H           3.6606    4.3729    0.8684 H.spc      1 <1>        0.000
     11 H           3.6606    4.3729   -0.8684 H.spc      1 <1>        0.000
@<TRIPOS>BOND
     1    1    2 1  
     2    1    3 2  
     3    2    4 1  
     4    3    5 1  
     5    4    5 1  
     6    1    6 1  
     7    2    7 1  
     8    4    8 1  
     9    4    9 1  
    10    5   10 1  
    11    5   11 1  
