#      Rotatable Fragment
#      Build by yxyuan
#
# Name:          frag4-368-91/48856
# Creation time: Sat Jun  5 12:53:30 2010


@<TRIPOS>MOLECULE
frag4-368-91/48856
   16    17     1     1     1
SMALL
USER_CHARGES


@<TRIPOS>ATOM
      1 N1         -1.9276   -0.7003   -0.0844 N.3        1 <1>        0.000
      2 C1         -1.7484    0.6921   -0.3501 C.3        1 <1>        0.000
      3 N2         -0.4486    1.2591   -0.1071 N.pl3      1 <1>        0.000
      4 C2          0.6011    0.4148   -0.0381 C.ar       1 <1>        0.000
      5 N3          1.9605    0.7338   -0.1086 N.ar       1 <1>        0.000
      6 C3          2.6668   -0.4993   -0.0138 C.ar       1 <1>        0.000
      7 N4          1.8253   -1.4523    0.1356 N.ar       1 <1>        0.000
      8 C4          0.5783   -0.9410    0.0985 C.ar       1 <1>        0.000
      9 C5         -0.7850   -1.5089    0.1278 C.3        1 <1>        0.000
     10 H          -2.3632   -1.0755   -0.9270 H.spc      1 <1>        0.000
     11 H          -2.4233    1.2080    0.3329 H.spc      1 <1>        0.000
     12 H          -1.9215    0.8089   -1.4199 H.spc      1 <1>        0.000
     13 H          -0.3251    2.2649    0.0090 H.spc      1 <1>        0.000
     14 H           3.7498   -0.6132   -0.0609 H.spc      1 <1>        0.000
     15 H          -0.8998   -1.8576    1.1541 H.spc      1 <1>        0.000
     16 H          -0.7965   -2.2018   -0.7135 H.spc      1 <1>        0.000
@<TRIPOS>BOND
     1    7    8 ar 
     2    8    9 1  
     3    1    2 1  
     4    1    9 1  
     5    2    3 1  
     6    3    4 1  
     7    4    5 ar 
     8    4    8 ar 
     9    5    6 ar 
    10    6    7 ar 
    11    1   10 1  
    12    2   11 1  
    13    2   12 1  
    14    3   13 1  
    15    6   14 1  
    16    9   15 1  
    17    9   16 1  
# Name:          frag4-368-91/48856 -- energy: -0.855416
# Creation time: Sat Jun  5 12:53:30 2010


@<TRIPOS>MOLECULE
frag4-368-91/48856 -- energy: -0.855416
   16    17     1     1     1
SMALL
USER_CHARGES


@<TRIPOS>ATOM
      1 N1         -1.9276   -0.7003   -0.0844 N.3        1 <1>        0.000
      2 C1         -1.7484    0.6921   -0.3501 C.3        1 <1>        0.000
      3 N2         -0.4486    1.2591   -0.1071 N.pl3      1 <1>        0.000
      4 C2          0.6011    0.4148   -0.0381 C.ar       1 <1>        0.000
      5 N3          1.9605    0.7338   -0.1086 N.ar       1 <1>        0.000
      6 C3          2.6668   -0.4993   -0.0138 C.ar       1 <1>        0.000
      7 N4          1.8253   -1.4523    0.1356 N.ar       1 <1>        0.000
      8 C4          0.5783   -0.9410    0.0985 C.ar       1 <1>        0.000
      9 C5         -0.7850   -1.5089    0.1278 C.3        1 <1>        0.000
     10 H          -2.3632   -1.0755   -0.9270 H.spc      1 <1>        0.000
     11 H          -2.4233    1.2080    0.3329 H.spc      1 <1>        0.000
     12 H          -1.9215    0.8089   -1.4199 H.spc      1 <1>        0.000
     13 H          -0.3251    2.2649    0.0090 H.spc      1 <1>        0.000
     14 H           3.7498   -0.6132   -0.0609 H.spc      1 <1>        0.000
     15 H          -0.8998   -1.8576    1.1541 H.spc      1 <1>        0.000
     16 H          -0.7965   -2.2018   -0.7135 H.spc      1 <1>        0.000
@<TRIPOS>BOND
     1    7    8 ar 
     2    8    9 1  
     3    1    2 1  
     4    1    9 1  
     5    2    3 1  
     6    3    4 1  
     7    4    5 ar 
     8    4    8 ar 
     9    5    6 ar 
    10    6    7 ar 
    11    1   10 1  
    12    2   11 1  
    13    2   12 1  
    14    3   13 1  
    15    6   14 1  
    16    9   15 1  
    17    9   16 1  
