#      Rotatable Fragment
#      Build by yxyuan
#
# Name:          frag4-474-34/48856
# Creation time: Sat Jun  5 12:52:49 2010


@<TRIPOS>MOLECULE
frag4-474-34/48856
   13    14     1     1     1
SMALL
USER_CHARGES


@<TRIPOS>ATOM
      1 N1          0.7305   -1.3976    0.1625 N.2        1 <1>        0.000
      2 C7         -0.6013   -0.6103    0.0580 C.2        1 <1>        0.000
      3 N2         -1.8652   -0.8680    0.0708 N.2        1 <1>        0.000
      4 C8         -2.5568    0.3982   -0.0840 C.3        1 <1>        0.000
      5 N3         -1.5483    1.4356   -0.1846 N.2        1 <1>        0.000
      6 C9         -0.4033    0.8768   -0.1033 C.2        1 <1>        0.000
      7 C10         0.9140    1.4618   -0.1511 C.2        1 <1>        0.000
      8 N4          1.9351    0.7032   -0.0477 N.2        1 <1>        0.000
      9 C11         1.7756   -0.6668    0.1014 C.2        1 <1>        0.000
     10 H          -3.2101    0.5827    0.7688 H.spc      1 <1>        0.000
     11 H          -3.1810    0.3851   -0.9775 H.spc      1 <1>        0.000
     12 H           1.0360    2.5380   -0.2740 H.spc      1 <1>        0.000
     13 H           2.7119   -1.2192    0.1807 H.spc      1 <1>        0.000
@<TRIPOS>BOND
     1    8    9 1  
     2    1    2 1  
     3    1    9 2  
     4    2    3 2  
     5    2    6 1  
     6    3    4 1  
     7    4    5 1  
     8    5    6 2  
     9    6    7 1  
    10    7    8 2  
    11    4   10 1  
    12    4   11 1  
    13    7   12 1  
    14    9   13 1  
# Name:          frag4-474-34/48856 -- energy: -0.233255
# Creation time: Sat Jun  5 12:52:49 2010


@<TRIPOS>MOLECULE
frag4-474-34/48856 -- energy: -0.233255
   13    14     1     1     1
SMALL
USER_CHARGES


@<TRIPOS>ATOM
      1 N1          0.7305   -1.3976    0.1625 N.2        1 <1>        0.000
      2 C7         -0.6013   -0.6103    0.0580 C.2        1 <1>        0.000
      3 N2         -1.8652   -0.8680    0.0708 N.2        1 <1>        0.000
      4 C8         -2.5568    0.3982   -0.0840 C.3        1 <1>        0.000
      5 N3         -1.5483    1.4356   -0.1846 N.2        1 <1>        0.000
      6 C9         -0.4033    0.8768   -0.1033 C.2        1 <1>        0.000
      7 C10         0.9140    1.4618   -0.1511 C.2        1 <1>        0.000
      8 N4          1.9351    0.7032   -0.0477 N.2        1 <1>        0.000
      9 C11         1.7756   -0.6668    0.1014 C.2        1 <1>        0.000
     10 H          -3.2101    0.5827    0.7688 H.spc      1 <1>        0.000
     11 H          -3.1810    0.3851   -0.9775 H.spc      1 <1>        0.000
     12 H           1.0360    2.5380   -0.2740 H.spc      1 <1>        0.000
     13 H           2.7119   -1.2192    0.1807 H.spc      1 <1>        0.000
@<TRIPOS>BOND
     1    8    9 1  
     2    1    2 1  
     3    1    9 2  
     4    2    3 2  
     5    2    6 1  
     6    3    4 1  
     7    4    5 1  
     8    5    6 2  
     9    6    7 1  
    10    7    8 2  
    11    4   10 1  
    12    4   11 1  
    13    7   12 1  
    14    9   13 1  
