#      Rotatable Fragment
#      Build by yxyuan
#
# Name:          frag4-434-128/150395
# Creation time: Sat Jun  5 12:53:35 2010


@<TRIPOS>MOLECULE
frag4-434-128/150395
   10    10     1     1     1
SMALL
USER_CHARGES


@<TRIPOS>ATOM
      1 C12         2.4995   -0.5155   -0.0411 C.2        1 <1>        0.000
      2 C14         2.0097    0.9017   -0.0038 C.3        1 <1>        0.000
      3 N3          3.7482   -0.6518    0.1730 N.2        1 <1>        0.000
      4 C17         3.3719    1.5675   -0.2481 C.3        1 <1>        0.000
      5 O3          4.2270    0.6488    0.4357 O.3        1 <1>        0.000
      6 H           1.8400   -1.3612   -0.2358 H.spc      1 <1>        0.000
      7 H           1.4804    1.2049    0.8995 H.spc      1 <1>        0.000
      8 H           1.2163    1.1559   -0.7066 H.spc      1 <1>        0.000
      9 H           3.4400    2.5952    0.1087 H.spc      1 <1>        0.000
     10 H           3.6185    1.7130   -1.2998 H.spc      1 <1>        0.000
@<TRIPOS>BOND
     1    1    2 1  
     2    1    3 2  
     3    2    4 1  
     4    3    5 1  
     5    4    5 1  
     6    1    6 1  
     7    2    7 1  
     8    2    8 1  
     9    4    9 1  
    10    4   10 1  
# Name:          frag4-434-128/150395 -- energy: -0.348679
# Creation time: Sat Jun  5 12:53:35 2010


@<TRIPOS>MOLECULE
frag4-434-128/150395 -- energy: -0.348679
   10    10     1     1     1
SMALL
USER_CHARGES


@<TRIPOS>ATOM
      1 C12         2.4995   -0.5155   -0.0411 C.2        1 <1>        0.000
      2 C14         2.0097    0.9017   -0.0038 C.3        1 <1>        0.000
      3 N3          3.7482   -0.6518    0.1730 N.2        1 <1>        0.000
      4 C17         3.3719    1.5675   -0.2481 C.3        1 <1>        0.000
      5 O3          4.2270    0.6488    0.4357 O.3        1 <1>        0.000
      6 H           1.8400   -1.3612   -0.2358 H.spc      1 <1>        0.000
      7 H           1.4804    1.2049    0.8995 H.spc      1 <1>        0.000
      8 H           1.2163    1.1559   -0.7066 H.spc      1 <1>        0.000
      9 H           3.4400    2.5952    0.1087 H.spc      1 <1>        0.000
     10 H           3.6185    1.7130   -1.2998 H.spc      1 <1>        0.000
@<TRIPOS>BOND
     1    1    2 1  
     2    1    3 2  
     3    2    4 1  
     4    3    5 1  
     5    4    5 1  
     6    1    6 1  
     7    2    7 1  
     8    2    8 1  
     9    4    9 1  
    10    4   10 1  
