#      Rotatable Fragment
#      Build by yxyuan
#
# Name:          frag5-669-65/138278
# Creation time: Sat Jun  5 12:51:51 2010


@<TRIPOS>MOLECULE
frag5-669-65/138278
   16    16     1     1     1
SMALL
USER_CHARGES


@<TRIPOS>ATOM
      1 O4         -0.3703   -1.8584   -0.8253 O.3        1 <1>        0.000
      2 C11        -0.6517   -0.8856    0.0328 C.2        1 <1>        0.000
      3 C12         0.5299   -0.0135    0.1146 C.ar       1 <1>        0.000
      4 O5         -1.6468   -0.6292    0.6829 O.2        1 <1>        0.000
      5 C13         1.8011   -0.5494    0.2559 C.ar       1 <1>        0.000
      6 C14         0.4381    1.3696    0.1738 C.ar       1 <1>        0.000
      7 C15         2.9237    0.2945    0.2050 C.ar       1 <1>        0.000
      8 C16         1.6177    2.1409    0.2412 C.ar       1 <1>        0.000
      9 C17         2.9241    1.6778    0.0805 C.ar       1 <1>        0.000
     10 O6          3.9950    2.4523   -0.0587 O.3        1 <1>        0.000
     11 H           0.5250   -1.7455   -1.1529 H.spc      1 <1>        0.000
     12 H           1.9291   -1.6214    0.4059 H.spc      1 <1>        0.000
     13 H          -0.5372    1.8563    0.1683 H.spc      1 <1>        0.000
     14 H           3.8987   -0.1884    0.2702 H.spc      1 <1>        0.000
     15 H           1.4962    3.2059    0.4387 H.spc      1 <1>        0.000
     16 H           4.7762    1.9023   -0.1530 H.spc      1 <1>        0.000
@<TRIPOS>BOND
     1    8    9 ar 
     2    9   10 1  
     3    1    2 1  
     4    2    4 2  
     5    2    3 1  
     6    3    5 ar 
     7    3    6 ar 
     8    5    7 ar 
     9    6    8 ar 
    10    7    9 ar 
    11    1   11 1  
    12    5   12 1  
    13    6   13 1  
    14    7   14 1  
    15    8   15 1  
    16   10   16 1  
# Name:          frag5-669-65/138278
# Creation time: Sat Jun  5 12:51:51 2010


@<TRIPOS>MOLECULE
frag5-669-65/138278
   16    16     1     1     1
SMALL
USER_CHARGES


@<TRIPOS>ATOM
      1 O4         -0.9386   -1.0357   -1.1598 O.3        1 <1>        0.000
      2 C11        -0.6343   -0.8789    0.1205 C.2        1 <1>        0.000
      3 C12         0.5781   -0.0569    0.1423 C.ar       1 <1>        0.000
      4 O5         -1.1664   -1.2286    1.1456 O.2        1 <1>        0.000
      5 C13         0.5092    1.2230   -0.3725 C.ar       1 <1>        0.000
      6 C14         1.8051   -0.5416    0.5487 C.ar       1 <1>        0.000
      7 C15         1.6792    1.9847   -0.4313 C.ar       1 <1>        0.000
      8 C16         2.9059    0.3323    0.5135 C.ar       1 <1>        0.000
      9 C17         2.8995    1.6804    0.1607 C.ar       1 <1>        0.000
     10 O6          3.9231    2.5201    0.2352 O.3        1 <1>        0.000
     11 H          -0.2682   -0.6124   -1.7011 H.spc      1 <1>        0.000
     12 H          -0.4382    1.6304   -0.7255 H.spc      1 <1>        0.000
     13 H           1.9172   -1.5717    0.8870 H.spc      1 <1>        0.000
     14 H           1.6299    2.9132   -1.0000 H.spc      1 <1>        0.000
     15 H           3.8706   -0.0913    0.7929 H.spc      1 <1>        0.000
     16 H           3.6469    3.3875   -0.0697 H.spc      1 <1>        0.000
@<TRIPOS>BOND
     1    8    9 ar 
     2    9   10 1  
     3    1    2 1  
     4    2    4 2  
     5    2    3 1  
     6    3    5 ar 
     7    3    6 ar 
     8    5    7 ar 
     9    6    8 ar 
    10    7    9 ar 
    11    1   11 1  
    12    5   12 1  
    13    6   13 1  
    14    7   14 1  
    15    8   15 1  
    16   10   16 1  
# Name:          frag5-669-65/138278 -- energy: 1.242968
# Creation time: Sat Jun  5 12:51:51 2010


@<TRIPOS>MOLECULE
frag5-669-65/138278 -- energy: 1.242968
   16    16     1     1     1
SMALL
USER_CHARGES


@<TRIPOS>ATOM
      1 O4         -0.3703   -1.8584   -0.8253 O.3        1 <1>        0.000
      2 C11        -0.6517   -0.8856    0.0328 C.2        1 <1>        0.000
      3 C12         0.5299   -0.0135    0.1146 C.ar       1 <1>        0.000
      4 O5         -1.6468   -0.6292    0.6829 O.2        1 <1>        0.000
      5 C13         1.8011   -0.5494    0.2559 C.ar       1 <1>        0.000
      6 C14         0.4381    1.3696    0.1738 C.ar       1 <1>        0.000
      7 C15         2.9237    0.2945    0.2050 C.ar       1 <1>        0.000
      8 C16         1.6177    2.1409    0.2412 C.ar       1 <1>        0.000
      9 C17         2.9241    1.6778    0.0805 C.ar       1 <1>        0.000
     10 O6          3.9950    2.4523   -0.0587 O.3        1 <1>        0.000
     11 H           0.5250   -1.7455   -1.1529 H.spc      1 <1>        0.000
     12 H           1.9291   -1.6214    0.4059 H.spc      1 <1>        0.000
     13 H          -0.5372    1.8563    0.1683 H.spc      1 <1>        0.000
     14 H           3.8987   -0.1884    0.2702 H.spc      1 <1>        0.000
     15 H           1.4962    3.2059    0.4387 H.spc      1 <1>        0.000
     16 H           4.7762    1.9023   -0.1530 H.spc      1 <1>        0.000
@<TRIPOS>BOND
     1    8    9 ar 
     2    9   10 1  
     3    1    2 1  
     4    2    4 2  
     5    2    3 1  
     6    3    5 ar 
     7    3    6 ar 
     8    5    7 ar 
     9    6    8 ar 
    10    7    9 ar 
    11    1   11 1  
    12    5   12 1  
    13    6   13 1  
    14    7   14 1  
    15    8   15 1  
    16   10   16 1  
# Name:          frag5-669-65/138278 -- energy: 0.801898
# Creation time: Sat Jun  5 12:51:51 2010


@<TRIPOS>MOLECULE
frag5-669-65/138278 -- energy: 0.801898
   16    16     1     1     1
SMALL
USER_CHARGES


@<TRIPOS>ATOM
      1 O4         -0.9386   -1.0357   -1.1598 O.3        1 <1>        0.000
      2 C11        -0.6343   -0.8789    0.1205 C.2        1 <1>        0.000
      3 C12         0.5781   -0.0569    0.1423 C.ar       1 <1>        0.000
      4 O5         -1.1664   -1.2286    1.1456 O.2        1 <1>        0.000
      5 C13         0.5092    1.2230   -0.3725 C.ar       1 <1>        0.000
      6 C14         1.8051   -0.5416    0.5487 C.ar       1 <1>        0.000
      7 C15         1.6792    1.9847   -0.4313 C.ar       1 <1>        0.000
      8 C16         2.9059    0.3323    0.5135 C.ar       1 <1>        0.000
      9 C17         2.8995    1.6804    0.1607 C.ar       1 <1>        0.000
     10 O6          3.9231    2.5201    0.2352 O.3        1 <1>        0.000
     11 H          -0.2682   -0.6124   -1.7011 H.spc      1 <1>        0.000
     12 H          -0.4382    1.6304   -0.7255 H.spc      1 <1>        0.000
     13 H           1.9172   -1.5717    0.8870 H.spc      1 <1>        0.000
     14 H           1.6299    2.9132   -1.0000 H.spc      1 <1>        0.000
     15 H           3.8706   -0.0913    0.7929 H.spc      1 <1>        0.000
     16 H           3.6469    3.3875   -0.0697 H.spc      1 <1>        0.000
@<TRIPOS>BOND
     1    8    9 ar 
     2    9   10 1  
     3    1    2 1  
     4    2    4 2  
     5    2    3 1  
     6    3    5 ar 
     7    3    6 ar 
     8    5    7 ar 
     9    6    8 ar 
    10    7    9 ar 
    11    1   11 1  
    12    5   12 1  
    13    6   13 1  
    14    7   14 1  
    15    8   15 1  
    16   10   16 1  
