#      Rotatable Fragment
#      Build by yxyuan
#
# Name:          frag2-079-1/319335
# Creation time: Sat Jun  5 12:52:00 2010


@<TRIPOS>MOLECULE
frag2-079-1/319335
   23    25     1     1     1
SMALL
USER_CHARGES


@<TRIPOS>ATOM
      1 C21        -0.0007    0.0462   -0.4593 C.ar       1 <1>        0.000
      2 N2          1.2539   -0.6309   -0.5481 N.ar       1 <1>        0.000
      3 C22        -0.1683    1.4730   -0.2450 C.ar       1 <1>        0.000
      4 C23         2.4111    0.1067   -0.3151 C.ar       1 <1>        0.000
      5 C24         1.1018    2.1683   -0.1353 C.ar       1 <1>        0.000
      6 C25         3.6075   -0.5914   -0.1429 C.ar       1 <1>        0.000
      7 C26         2.4350    1.5386   -0.1901 C.ar       1 <1>        0.000
      8 C27         4.8334    0.0862   -0.1383 C.ar       1 <1>        0.000
      9 C28         3.5575   -1.9734    0.0642 C.ar       1 <1>        0.000
     10 C29         3.6539    2.2176   -0.1180 C.ar       1 <1>        0.000
     11 C30         4.8509    1.4895   -0.1565 C.ar       1 <1>        0.000
     12 C31         6.0167   -0.6648   -0.0937 C.ar       1 <1>        0.000
     13 C32         4.7369   -2.7000    0.2220 C.ar       1 <1>        0.000
     14 C33         5.9653   -2.0551    0.0615 C.ar       1 <1>        0.000
     15 H          -0.9039   -0.5555   -0.5604 H.spc      1 <1>        0.000
     16 H          -1.1378    1.9661   -0.1745 H.spc      1 <1>        0.000
     17 H           1.0673    3.2494   -0.0008 H.spc      1 <1>        0.000
     18 H           2.5949   -2.4834    0.1023 H.spc      1 <1>        0.000
     19 H           3.6738    3.3041   -0.0326 H.spc      1 <1>        0.000
     20 H           5.8034    2.0175   -0.2010 H.spc      1 <1>        0.000
     21 H           6.9809   -0.1638   -0.1803 H.spc      1 <1>        0.000
     22 H           4.7006   -3.7612    0.4683 H.spc      1 <1>        0.000
     23 H           6.8873   -2.6364    0.0571 H.spc      1 <1>        0.000
@<TRIPOS>BOND
     1    2    4 ar 
     2    9   13 ar 
     3    4    7 ar 
     4    8   12 ar 
     5    3    5 ar 
     6    1    2 ar 
     7   10   11 ar 
     8    4    6 ar 
     9   12   14 ar 
    10    1    3 ar 
    11    6    8 ar 
    12    5    7 ar 
    13    6    9 ar 
    14   13   14 ar 
    15    8   11 ar 
    16    7   10 ar 
    17    1   15 1  
    18    3   16 1  
    19    5   17 1  
    20    9   18 1  
    21   10   19 1  
    22   11   20 1  
    23   12   21 1  
    24   13   22 1  
    25   14   23 1  
# Name:          frag2-079-1/319335 -- energy: -0.843880
# Creation time: Sat Jun  5 12:52:00 2010


@<TRIPOS>MOLECULE
frag2-079-1/319335 -- energy: -0.843880
   23    25     1     1     1
SMALL
USER_CHARGES


@<TRIPOS>ATOM
      1 C21        -0.0007    0.0462   -0.4593 C.ar       1 <1>        0.000
      2 N2          1.2539   -0.6309   -0.5481 N.ar       1 <1>        0.000
      3 C22        -0.1683    1.4730   -0.2450 C.ar       1 <1>        0.000
      4 C23         2.4111    0.1067   -0.3151 C.ar       1 <1>        0.000
      5 C24         1.1018    2.1683   -0.1353 C.ar       1 <1>        0.000
      6 C25         3.6075   -0.5914   -0.1429 C.ar       1 <1>        0.000
      7 C26         2.4350    1.5386   -0.1901 C.ar       1 <1>        0.000
      8 C27         4.8334    0.0862   -0.1383 C.ar       1 <1>        0.000
      9 C28         3.5575   -1.9734    0.0642 C.ar       1 <1>        0.000
     10 C29         3.6539    2.2176   -0.1180 C.ar       1 <1>        0.000
     11 C30         4.8509    1.4895   -0.1565 C.ar       1 <1>        0.000
     12 C31         6.0167   -0.6648   -0.0937 C.ar       1 <1>        0.000
     13 C32         4.7369   -2.7000    0.2220 C.ar       1 <1>        0.000
     14 C33         5.9653   -2.0551    0.0615 C.ar       1 <1>        0.000
     15 H          -0.9039   -0.5555   -0.5604 H.spc      1 <1>        0.000
     16 H          -1.1378    1.9661   -0.1745 H.spc      1 <1>        0.000
     17 H           1.0673    3.2494   -0.0008 H.spc      1 <1>        0.000
     18 H           2.5949   -2.4834    0.1023 H.spc      1 <1>        0.000
     19 H           3.6738    3.3041   -0.0326 H.spc      1 <1>        0.000
     20 H           5.8034    2.0175   -0.2010 H.spc      1 <1>        0.000
     21 H           6.9809   -0.1638   -0.1803 H.spc      1 <1>        0.000
     22 H           4.7006   -3.7612    0.4683 H.spc      1 <1>        0.000
     23 H           6.8873   -2.6364    0.0571 H.spc      1 <1>        0.000
@<TRIPOS>BOND
     1    2    4 ar 
     2    9   13 ar 
     3    4    7 ar 
     4    8   12 ar 
     5    3    5 ar 
     6    1    2 ar 
     7   10   11 ar 
     8    4    6 ar 
     9   12   14 ar 
    10    1    3 ar 
    11    6    8 ar 
    12    5    7 ar 
    13    6    9 ar 
    14   13   14 ar 
    15    8   11 ar 
    16    7   10 ar 
    17    1   15 1  
    18    3   16 1  
    19    5   17 1  
    20    9   18 1  
    21   10   19 1  
    22   11   20 1  
    23   12   21 1  
    24   13   22 1  
    25   14   23 1  
