#      Rotatable Fragment
#      Build by yxyuan
#
# Name:          frag3-217-4/31924
# Creation time: Sat Jun  5 12:52:21 2010


@<TRIPOS>MOLECULE
frag3-217-4/31924
    7     6     1     1     1
SMALL
USER_CHARGES


@<TRIPOS>ATOM
      1 S1         -0.0586   -0.1509    0.1776 S.o2       1 <1>        0.000
      2 O1         -1.2227    0.4922   -0.3522 O.2        1 <1>        0.000
      3 O2          1.2572   -0.1138   -0.3944 O.2        1 <1>        0.000
      4 O3          0.0778    0.3342    1.6780 O.3        1 <1>        0.000
      5 O5         -0.4169   -1.6200    0.5312 O.3        1 <1>        0.000
      6 H           0.8500   -0.0742    2.0762 H.spc      1 <1>        0.000
      7 H           0.3581   -2.0603    0.8877 H.spc      1 <1>        0.000
@<TRIPOS>BOND
     1    1    2 2  
     2    1    3 2  
     3    1    4 1  
     4    1    5 1  
     5    4    6 1  
     6    5    7 1  
# Name:          frag3-217-4/31924 -- energy: -0.171153
# Creation time: Sat Jun  5 12:52:21 2010


@<TRIPOS>MOLECULE
frag3-217-4/31924 -- energy: -0.171153
    7     6     1     1     1
SMALL
USER_CHARGES


@<TRIPOS>ATOM
      1 S1         -0.0586   -0.1509    0.1776 S.o2       1 <1>        0.000
      2 O1         -1.2227    0.4922   -0.3522 O.2        1 <1>        0.000
      3 O2          1.2572   -0.1138   -0.3944 O.2        1 <1>        0.000
      4 O3          0.0778    0.3342    1.6780 O.3        1 <1>        0.000
      5 O5         -0.4169   -1.6200    0.5312 O.3        1 <1>        0.000
      6 H           0.8500   -0.0742    2.0762 H.spc      1 <1>        0.000
      7 H           0.3581   -2.0603    0.8877 H.spc      1 <1>        0.000
@<TRIPOS>BOND
     1    1    2 2  
     2    1    3 2  
     3    1    4 1  
     4    1    5 1  
     5    4    6 1  
     6    5    7 1  
