#      Rotatable Fragment
#      Build by yxyuan
#
# Name:          frag3-177-12/96164
# Creation time: Sat Jun  5 12:53:08 2010


@<TRIPOS>MOLECULE
frag3-177-12/96164
    6     5     1     1     1
SMALL
USER_CHARGES


@<TRIPOS>ATOM
      1 N1         -2.9021    1.7364   -0.0461 N.3        1 <1>        0.000
      2 N2         -4.1537    1.2383    0.1389 N.3        1 <1>        0.000
      3 H          -2.5462    1.4306   -0.9518 H.spc      1 <1>        0.000
      4 H          -2.9356    2.7555   -0.0191 H.spc      1 <1>        0.000
      5 H          -4.5096    1.5441    1.0446 H.spc      1 <1>        0.000
      6 H          -4.7669    1.5793   -0.6015 H.spc      1 <1>        0.000
@<TRIPOS>BOND
     1    1    2 1  
     2    1    3 1  
     3    1    4 1  
     4    2    5 1  
     5    2    6 1  
# Name:          frag3-177-12/96164 -- energy: -0.062920
# Creation time: Sat Jun  5 12:53:08 2010


@<TRIPOS>MOLECULE
frag3-177-12/96164 -- energy: -0.062920
    6     5     1     1     1
SMALL
USER_CHARGES


@<TRIPOS>ATOM
      1 N1         -2.9021    1.7364   -0.0461 N.3        1 <1>        0.000
      2 N2         -4.1537    1.2383    0.1389 N.3        1 <1>        0.000
      3 H          -2.5462    1.4306   -0.9518 H.spc      1 <1>        0.000
      4 H          -2.9356    2.7555   -0.0191 H.spc      1 <1>        0.000
      5 H          -4.5096    1.5441    1.0446 H.spc      1 <1>        0.000
      6 H          -4.7669    1.5793   -0.6015 H.spc      1 <1>        0.000
@<TRIPOS>BOND
     1    1    2 1  
     2    1    3 1  
     3    1    4 1  
     4    2    5 1  
     5    2    6 1  
