#      Rotatable Fragment
#      Build by yxyuan
#
# Name:          frag4-451-39/48856
# Creation time: Sat Jun  5 12:52:48 2010


@<TRIPOS>MOLECULE
frag4-451-39/48856
    7     7     1     1     1
SMALL
USER_CHARGES


@<TRIPOS>ATOM
      1 N1         -1.0956    0.1331   -0.1098 N.2        1 <1>        0.000
      2 N2         -0.3049    1.2843   -0.1220 N.2        1 <1>        0.000
      3 N3          0.9120    0.9445    0.0372 N.2        1 <1>        0.000
      4 C1          1.0115   -0.4741    0.1111 C.3        1 <1>        0.000
      5 N4         -0.3395   -0.9569    0.0106 N.2        1 <1>        0.000
      6 H           1.4833   -0.7946    1.0400 H.spc      1 <1>        0.000
      7 H           1.6398   -0.8735   -0.6850 H.spc      1 <1>        0.000
@<TRIPOS>BOND
     1    1    2 1  
     2    1    5 2  
     3    2    3 2  
     4    3    4 1  
     5    4    5 1  
     6    4    6 1  
     7    4    7 1  
# Name:          frag4-451-39/48856 -- energy: -0.109047
# Creation time: Sat Jun  5 12:52:48 2010


@<TRIPOS>MOLECULE
frag4-451-39/48856 -- energy: -0.109047
    7     7     1     1     1
SMALL
USER_CHARGES


@<TRIPOS>ATOM
      1 N1         -1.0956    0.1331   -0.1098 N.2        1 <1>        0.000
      2 N2         -0.3049    1.2843   -0.1220 N.2        1 <1>        0.000
      3 N3          0.9120    0.9445    0.0372 N.2        1 <1>        0.000
      4 C1          1.0115   -0.4741    0.1111 C.3        1 <1>        0.000
      5 N4         -0.3395   -0.9569    0.0106 N.2        1 <1>        0.000
      6 H           1.4833   -0.7946    1.0400 H.spc      1 <1>        0.000
      7 H           1.6398   -0.8735   -0.6850 H.spc      1 <1>        0.000
@<TRIPOS>BOND
     1    1    2 1  
     2    1    5 2  
     3    2    3 2  
     4    3    4 1  
     5    4    5 1  
     6    4    6 1  
     7    4    7 1  
