#      Rotatable Fragment
#      Build by yxyuan
#
# Name:          frag2-044-68/92655
# Creation time: Sat Jun  5 12:51:57 2010


@<TRIPOS>MOLECULE
frag2-044-68/92655
   17    18     1     1     1
SMALL
USER_CHARGES


@<TRIPOS>ATOM
      1 C7          1.1906    1.6192    0.2793 C.ar       1 <1>        0.000
      2 N4          2.4413    1.1308    0.1868 N.ar       1 <1>        0.000
      3 C8          2.6694   -0.1767   -0.0435 C.ar       1 <1>        0.000
      4 C9          1.6065   -1.0535   -0.1998 C.ar       1 <1>        0.000
      5 C10         0.2915   -0.5903   -0.1080 C.ar       1 <1>        0.000
      6 C11         0.0783    0.7789    0.1367 C.ar       1 <1>        0.000
      7 C12        -1.2337    1.2612    0.2315 C.ar       1 <1>        0.000
      8 C13        -2.3192    0.4049    0.0866 C.ar       1 <1>        0.000
      9 C14        -2.1079   -0.9490   -0.1558 C.ar       1 <1>        0.000
     10 C15        -0.8105   -1.4419   -0.2528 C.ar       1 <1>        0.000
     11 H           1.0409    2.6823    0.4676 H.spc      1 <1>        0.000
     12 H           3.6927   -0.5467   -0.1072 H.spc      1 <1>        0.000
     13 H           1.7977   -2.1087   -0.3951 H.spc      1 <1>        0.000
     14 H          -1.4054    2.3207    0.4212 H.spc      1 <1>        0.000
     15 H          -3.3347    0.7936    0.1628 H.spc      1 <1>        0.000
     16 H          -2.9575   -1.6223   -0.2695 H.spc      1 <1>        0.000
     17 H          -0.6501   -2.5030   -0.4437 H.spc      1 <1>        0.000
@<TRIPOS>BOND
     1    7    8 ar 
     2    6    7 ar 
     3    8    9 ar 
     4    9   10 ar 
     5    1    2 ar 
     6    1    6 ar 
     7    2    3 ar 
     8    3    4 ar 
     9    4    5 ar 
    10    5    6 ar 
    11    5   10 ar 
    12    1   11 1  
    13    3   12 1  
    14    4   13 1  
    15    7   14 1  
    16    8   15 1  
    17    9   16 1  
    18   10   17 1  
# Name:          frag2-044-68/92655 -- energy: -0.106566
# Creation time: Sat Jun  5 12:51:57 2010


@<TRIPOS>MOLECULE
frag2-044-68/92655 -- energy: -0.106566
   17    18     1     1     1
SMALL
USER_CHARGES


@<TRIPOS>ATOM
      1 C7          1.1906    1.6192    0.2793 C.ar       1 <1>        0.000
      2 N4          2.4413    1.1308    0.1868 N.ar       1 <1>        0.000
      3 C8          2.6694   -0.1767   -0.0435 C.ar       1 <1>        0.000
      4 C9          1.6065   -1.0535   -0.1998 C.ar       1 <1>        0.000
      5 C10         0.2915   -0.5903   -0.1080 C.ar       1 <1>        0.000
      6 C11         0.0783    0.7789    0.1367 C.ar       1 <1>        0.000
      7 C12        -1.2337    1.2612    0.2315 C.ar       1 <1>        0.000
      8 C13        -2.3192    0.4049    0.0866 C.ar       1 <1>        0.000
      9 C14        -2.1079   -0.9490   -0.1558 C.ar       1 <1>        0.000
     10 C15        -0.8105   -1.4419   -0.2528 C.ar       1 <1>        0.000
     11 H           1.0409    2.6823    0.4676 H.spc      1 <1>        0.000
     12 H           3.6927   -0.5467   -0.1072 H.spc      1 <1>        0.000
     13 H           1.7977   -2.1087   -0.3951 H.spc      1 <1>        0.000
     14 H          -1.4054    2.3207    0.4212 H.spc      1 <1>        0.000
     15 H          -3.3347    0.7936    0.1628 H.spc      1 <1>        0.000
     16 H          -2.9575   -1.6223   -0.2695 H.spc      1 <1>        0.000
     17 H          -0.6501   -2.5030   -0.4437 H.spc      1 <1>        0.000
@<TRIPOS>BOND
     1    7    8 ar 
     2    6    7 ar 
     3    8    9 ar 
     4    9   10 ar 
     5    1    2 ar 
     6    1    6 ar 
     7    2    3 ar 
     8    3    4 ar 
     9    4    5 ar 
    10    5    6 ar 
    11    5   10 ar 
    12    1   11 1  
    13    3   12 1  
    14    4   13 1  
    15    7   14 1  
    16    8   15 1  
    17    9   16 1  
    18   10   17 1  
