#      Rotatable Fragment
#      Build by yxyuan
#
# Name:          frag4-450-39/48856
# Creation time: Sat Jun  5 12:52:48 2010


@<TRIPOS>MOLECULE
frag4-450-39/48856
   17    18     1     1     1
SMALL
USER_CHARGES


@<TRIPOS>ATOM
      1 N1         -1.1678   -1.4260   -0.2079 N.ar       1 <1>        0.000
      2 C1          0.0337   -0.7059   -0.0852 C.ar       1 <1>        0.000
      3 C2         -0.0484    0.7197    0.0873 C.ar       1 <1>        0.000
      4 C3          1.1632    1.4127    0.2102 C.ar       1 <1>        0.000
      5 C4          2.4022    0.7623    0.1627 C.ar       1 <1>        0.000
      6 C5          2.4670   -0.6155   -0.0062 C.ar       1 <1>        0.000
      7 C6          1.2857   -1.3421   -0.1297 C.ar       1 <1>        0.000
      8 C12        -1.3607    1.3848    0.1305 C.ar       1 <1>        0.000
      9 C13        -2.4185    0.5609   -0.0015 C.ar       1 <1>        0.000
     10 C14        -2.2881   -0.8499   -0.1693 C.ar       1 <1>        0.000
     11 H           1.1404    2.4938    0.3473 H.spc      1 <1>        0.000
     12 H           3.3214    1.3401    0.2588 H.spc      1 <1>        0.000
     13 H           3.4317   -1.1217   -0.0416 H.spc      1 <1>        0.000
     14 H           1.3330   -2.4229   -0.2632 H.spc      1 <1>        0.000
     15 H          -1.4685    2.4618    0.2594 H.spc      1 <1>        0.000
     16 H          -3.4195    0.9918    0.0209 H.spc      1 <1>        0.000
     17 H          -3.1913   -1.4521   -0.2678 H.spc      1 <1>        0.000
@<TRIPOS>BOND
     1    5    6 ar 
     2    8    9 ar 
     3    9   10 ar 
     4    6    7 ar 
     5    1    2 ar 
     6    1   10 ar 
     7    2    3 ar 
     8    2    7 ar 
     9    3    4 ar 
    10    3    8 ar 
    11    4    5 ar 
    12    4   11 1  
    13    5   12 1  
    14    6   13 1  
    15    7   14 1  
    16    8   15 1  
    17    9   16 1  
    18   10   17 1  
# Name:          frag4-450-39/48856 -- energy: -0.141648
# Creation time: Sat Jun  5 12:52:48 2010


@<TRIPOS>MOLECULE
frag4-450-39/48856 -- energy: -0.141648
   17    18     1     1     1
SMALL
USER_CHARGES


@<TRIPOS>ATOM
      1 N1         -1.1678   -1.4260   -0.2079 N.ar       1 <1>        0.000
      2 C1          0.0337   -0.7059   -0.0852 C.ar       1 <1>        0.000
      3 C2         -0.0484    0.7197    0.0873 C.ar       1 <1>        0.000
      4 C3          1.1632    1.4127    0.2102 C.ar       1 <1>        0.000
      5 C4          2.4022    0.7623    0.1627 C.ar       1 <1>        0.000
      6 C5          2.4670   -0.6155   -0.0062 C.ar       1 <1>        0.000
      7 C6          1.2857   -1.3421   -0.1297 C.ar       1 <1>        0.000
      8 C12        -1.3607    1.3848    0.1305 C.ar       1 <1>        0.000
      9 C13        -2.4185    0.5609   -0.0015 C.ar       1 <1>        0.000
     10 C14        -2.2881   -0.8499   -0.1693 C.ar       1 <1>        0.000
     11 H           1.1404    2.4938    0.3473 H.spc      1 <1>        0.000
     12 H           3.3214    1.3401    0.2588 H.spc      1 <1>        0.000
     13 H           3.4317   -1.1217   -0.0416 H.spc      1 <1>        0.000
     14 H           1.3330   -2.4229   -0.2632 H.spc      1 <1>        0.000
     15 H          -1.4685    2.4618    0.2594 H.spc      1 <1>        0.000
     16 H          -3.4195    0.9918    0.0209 H.spc      1 <1>        0.000
     17 H          -3.1913   -1.4521   -0.2678 H.spc      1 <1>        0.000
@<TRIPOS>BOND
     1    5    6 ar 
     2    8    9 ar 
     3    9   10 ar 
     4    6    7 ar 
     5    1    2 ar 
     6    1   10 ar 
     7    2    3 ar 
     8    2    7 ar 
     9    3    4 ar 
    10    3    8 ar 
    11    4    5 ar 
    12    4   11 1  
    13    5   12 1  
    14    6   13 1  
    15    7   14 1  
    16    8   15 1  
    17    9   16 1  
    18   10   17 1  
