#      Rotatable Fragment
#      Build by yxyuan
#
# Name:          frag3-163-16/96164
# Creation time: Sat Jun  5 12:53:07 2010


@<TRIPOS>MOLECULE
frag3-163-16/96164
    8     7     1     1     1
SMALL
USER_CHARGES


@<TRIPOS>ATOM
      1 N1          0.0316    0.1425   -0.1620 N.3        1 <1>        0.000
      2 N2          1.1699   -0.4906    0.0624 N.am       1 <1>        0.000
      3 C5          1.3238   -1.3842    1.0731 C.2        1 <1>        0.000
      4 O2          0.5256   -1.7859    1.9086 O.2        1 <1>        0.000
      5 H           0.1409    0.7615   -0.9653 H.spc      1 <1>        0.000
      6 H          -0.7029   -0.5388   -0.3537 H.spc      1 <1>        0.000
      7 H           1.9646   -0.3003   -0.5481 H.spc      1 <1>        0.000
      8 H           2.3222   -1.8141    1.1531 H.spc      1 <1>        0.000
@<TRIPOS>BOND
     1    1    2 1  
     2    2    3 am 
     3    3    4 2  
     4    1    5 1  
     5    1    6 1  
     6    2    7 1  
     7    3    8 1  
# Name:          frag3-163-16/96164 -- energy: -0.245880
# Creation time: Sat Jun  5 12:53:07 2010


@<TRIPOS>MOLECULE
frag3-163-16/96164 -- energy: -0.245880
    8     7     1     1     1
SMALL
USER_CHARGES


@<TRIPOS>ATOM
      1 N1          0.0316    0.1425   -0.1620 N.3        1 <1>        0.000
      2 N2          1.1699   -0.4906    0.0624 N.am       1 <1>        0.000
      3 C5          1.3238   -1.3842    1.0731 C.2        1 <1>        0.000
      4 O2          0.5256   -1.7859    1.9086 O.2        1 <1>        0.000
      5 H           0.1409    0.7615   -0.9653 H.spc      1 <1>        0.000
      6 H          -0.7029   -0.5388   -0.3537 H.spc      1 <1>        0.000
      7 H           1.9646   -0.3003   -0.5481 H.spc      1 <1>        0.000
      8 H           2.3222   -1.8141    1.1531 H.spc      1 <1>        0.000
@<TRIPOS>BOND
     1    1    2 1  
     2    2    3 am 
     3    3    4 2  
     4    1    5 1  
     5    1    6 1  
     6    2    7 1  
     7    3    8 1  
