#      Rotatable Fragment
#      Build by yxyuan
#
# Name:          frag3-220-4/31924
# Creation time: Sat Jun  5 12:52:21 2010


@<TRIPOS>MOLECULE
frag3-220-4/31924
    6     5     1     1     1
SMALL
USER_CHARGES


@<TRIPOS>ATOM
      1 I1          2.3864   -0.1695   -0.7048 I          1 <1>        0.000
      2 C1          0.3243   -0.3241   -0.5036 C.2        1 <1>        0.000
      3 C2         -0.2977    0.1455    0.5950 C.2        1 <1>        0.000
      4 I2         -2.3493   -0.0834    0.8315 I          1 <1>        0.000
      5 H          -0.2609   -0.7905   -1.2961 H.spc      1 <1>        0.000
      6 H           0.2812    0.6509    1.3680 H.spc      1 <1>        0.000
@<TRIPOS>BOND
     1    1    2 1  
     2    2    3 2  
     3    3    4 1  
     4    2    5 1  
     5    3    6 1  
# Name:          frag3-220-4/31924 -- energy: -0.297946
# Creation time: Sat Jun  5 12:52:21 2010


@<TRIPOS>MOLECULE
frag3-220-4/31924 -- energy: -0.297946
    6     5     1     1     1
SMALL
USER_CHARGES


@<TRIPOS>ATOM
      1 I1          2.3864   -0.1695   -0.7048 I          1 <1>        0.000
      2 C1          0.3243   -0.3241   -0.5036 C.2        1 <1>        0.000
      3 C2         -0.2977    0.1455    0.5950 C.2        1 <1>        0.000
      4 I2         -2.3493   -0.0834    0.8315 I          1 <1>        0.000
      5 H          -0.2609   -0.7905   -1.2961 H.spc      1 <1>        0.000
      6 H           0.2812    0.6509    1.3680 H.spc      1 <1>        0.000
@<TRIPOS>BOND
     1    1    2 1  
     2    2    3 2  
     3    3    4 1  
     4    2    5 1  
     5    3    6 1  
