#      Rotatable Fragment
#      Build by yxyuan
#
# Name:          frag5-569-45/41815
# Creation time: Sat Jun  5 12:52:54 2010


@<TRIPOS>MOLECULE
frag5-569-45/41815
   15    15     1     1     1
SMALL
USER_CHARGES


@<TRIPOS>ATOM
      1 C18         7.1278    2.2824   -2.4049 C.3        1 <1>        0.000
      2 O2          7.0181    3.2889   -1.4015 O.3        1 <1>        0.000
      3 C19         8.1944    3.8144   -1.0191 C.2        1 <1>        0.000
      4 C20         9.4780    3.0211   -1.0971 C.3        1 <1>        0.000
      5 C21         9.5934    2.3683   -2.4745 C.3        1 <1>        0.000
      6 C22         8.3334    2.4296   -3.3431 C.3        1 <1>        0.000
      7 O3          8.2289    4.9879   -0.6608 O.2        1 <1>        0.000
      8 H           6.2351    2.3587   -3.0257 H.spc      1 <1>        0.000
      9 H           7.2481    1.3319   -1.8850 H.spc      1 <1>        0.000
     10 H           9.4736    2.2480   -0.3288 H.spc      1 <1>        0.000
     11 H          10.3261    3.6874   -0.9395 H.spc      1 <1>        0.000
     12 H           9.7984    1.3120   -2.3004 H.spc      1 <1>        0.000
     13 H          10.3674    2.9155   -3.0126 H.spc      1 <1>        0.000
     14 H           8.2857    3.3747   -3.8840 H.spc      1 <1>        0.000
     15 H           8.3407    1.6327   -4.0867 H.spc      1 <1>        0.000
@<TRIPOS>BOND
     1    1    2 1  
     2    1    6 1  
     3    2    3 1  
     4    3    4 1  
     5    3    7 2  
     6    4    5 1  
     7    5    6 1  
     8    1    8 1  
     9    1    9 1  
    10    4   10 1  
    11    4   11 1  
    12    5   12 1  
    13    5   13 1  
    14    6   14 1  
    15    6   15 1  
# Name:          frag5-569-45/41815
# Creation time: Sat Jun  5 12:52:54 2010


@<TRIPOS>MOLECULE
frag5-569-45/41815
   15    15     1     1     1
SMALL
USER_CHARGES


@<TRIPOS>ATOM
      1 C18         7.2050    2.6837   -2.7674 C.3        1 <1>        0.000
      2 O2          7.0598    3.5434   -1.6702 O.3        1 <1>        0.000
      3 C19         8.1988    3.9108   -1.0799 C.2        1 <1>        0.000
      4 C20         9.4993    3.6652   -1.7743 C.3        1 <1>        0.000
      5 C21         9.5690    2.3132   -2.4137 C.3        1 <1>        0.000
      6 C22         8.2731    1.6183   -2.7142 C.3        1 <1>        0.000
      7 O3          8.1690    4.4580    0.0186 O.2        1 <1>        0.000
      8 H           7.4888    3.3293   -3.5986 H.spc      1 <1>        0.000
      9 H           6.2629    2.1388   -2.8280 H.spc      1 <1>        0.000
     10 H          10.2922    3.7232   -1.0286 H.spc      1 <1>        0.000
     11 H           9.6041    4.4124   -2.5609 H.spc      1 <1>        0.000
     12 H          10.0828    1.6756   -1.6943 H.spc      1 <1>        0.000
     13 H          10.0471    2.4712   -3.3804 H.spc      1 <1>        0.000
     14 H           8.3325    1.0832   -3.6619 H.spc      1 <1>        0.000
     15 H           8.0438    0.8795   -1.9463 H.spc      1 <1>        0.000
@<TRIPOS>BOND
     1    1    2 1  
     2    1    6 1  
     3    2    3 1  
     4    3    4 1  
     5    3    7 2  
     6    4    5 1  
     7    5    6 1  
     8    1    8 1  
     9    1    9 1  
    10    4   10 1  
    11    4   11 1  
    12    5   12 1  
    13    5   13 1  
    14    6   14 1  
    15    6   15 1  
# Name:          frag5-569-45/41815 -- energy: -0.696435
# Creation time: Sat Jun  5 12:52:54 2010


@<TRIPOS>MOLECULE
frag5-569-45/41815 -- energy: -0.696435
   15    15     1     1     1
SMALL
USER_CHARGES


@<TRIPOS>ATOM
      1 C18         7.1278    2.2824   -2.4049 C.3        1 <1>        0.000
      2 O2          7.0181    3.2889   -1.4015 O.3        1 <1>        0.000
      3 C19         8.1944    3.8144   -1.0191 C.2        1 <1>        0.000
      4 C20         9.4780    3.0211   -1.0971 C.3        1 <1>        0.000
      5 C21         9.5934    2.3683   -2.4745 C.3        1 <1>        0.000
      6 C22         8.3334    2.4296   -3.3431 C.3        1 <1>        0.000
      7 O3          8.2289    4.9879   -0.6608 O.2        1 <1>        0.000
      8 H           6.2351    2.3587   -3.0257 H.spc      1 <1>        0.000
      9 H           7.2481    1.3319   -1.8850 H.spc      1 <1>        0.000
     10 H           9.4736    2.2480   -0.3288 H.spc      1 <1>        0.000
     11 H          10.3261    3.6874   -0.9395 H.spc      1 <1>        0.000
     12 H           9.7984    1.3120   -2.3004 H.spc      1 <1>        0.000
     13 H          10.3674    2.9155   -3.0126 H.spc      1 <1>        0.000
     14 H           8.2857    3.3747   -3.8840 H.spc      1 <1>        0.000
     15 H           8.3407    1.6327   -4.0867 H.spc      1 <1>        0.000
@<TRIPOS>BOND
     1    1    2 1  
     2    1    6 1  
     3    2    3 1  
     4    3    4 1  
     5    3    7 2  
     6    4    5 1  
     7    5    6 1  
     8    1    8 1  
     9    1    9 1  
    10    4   10 1  
    11    4   11 1  
    12    5   12 1  
    13    5   13 1  
    14    6   14 1  
    15    6   15 1  
# Name:          frag5-569-45/41815 -- energy: -0.595796
# Creation time: Sat Jun  5 12:52:54 2010


@<TRIPOS>MOLECULE
frag5-569-45/41815 -- energy: -0.595796
   15    15     1     1     1
SMALL
USER_CHARGES


@<TRIPOS>ATOM
      1 C18         7.2050    2.6837   -2.7674 C.3        1 <1>        0.000
      2 O2          7.0598    3.5434   -1.6702 O.3        1 <1>        0.000
      3 C19         8.1988    3.9108   -1.0799 C.2        1 <1>        0.000
      4 C20         9.4993    3.6652   -1.7743 C.3        1 <1>        0.000
      5 C21         9.5690    2.3132   -2.4137 C.3        1 <1>        0.000
      6 C22         8.2731    1.6183   -2.7142 C.3        1 <1>        0.000
      7 O3          8.1690    4.4580    0.0186 O.2        1 <1>        0.000
      8 H           7.4888    3.3293   -3.5986 H.spc      1 <1>        0.000
      9 H           6.2629    2.1388   -2.8280 H.spc      1 <1>        0.000
     10 H          10.2922    3.7232   -1.0286 H.spc      1 <1>        0.000
     11 H           9.6041    4.4124   -2.5609 H.spc      1 <1>        0.000
     12 H          10.0828    1.6756   -1.6943 H.spc      1 <1>        0.000
     13 H          10.0471    2.4712   -3.3804 H.spc      1 <1>        0.000
     14 H           8.3325    1.0832   -3.6619 H.spc      1 <1>        0.000
     15 H           8.0438    0.8795   -1.9463 H.spc      1 <1>        0.000
@<TRIPOS>BOND
     1    1    2 1  
     2    1    6 1  
     3    2    3 1  
     4    3    4 1  
     5    3    7 2  
     6    4    5 1  
     7    5    6 1  
     8    1    8 1  
     9    1    9 1  
    10    4   10 1  
    11    4   11 1  
    12    5   12 1  
    13    5   13 1  
    14    6   14 1  
    15    6   15 1  
