#      Rotatable Fragment
#      Build by yxyuan
#
# Name:          frag5-539-74/41815
# Creation time: Sat Jun  5 12:52:52 2010


@<TRIPOS>MOLECULE
frag5-539-74/41815
   13    13     1     1     1
SMALL
USER_CHARGES


@<TRIPOS>ATOM
      1 N1          1.8577   -1.7027    1.6432 N.am       1 <1>        0.000
      2 C1          0.7824   -2.0293    0.8923 C.2        1 <1>        0.000
      3 N2          0.2221   -1.0957    0.0913 N.am       1 <1>        0.000
      4 C2          0.6675    0.1724   -0.0184 C.2        1 <1>        0.000
      5 C3          1.8616    0.6112    0.7875 C.3        1 <1>        0.000
      6 C4          2.4297   -0.4815    1.6543 C.2        1 <1>        0.000
      7 O1          3.4013   -0.2227    2.3471 O.2        1 <1>        0.000
      8 O2          0.1352    0.9890   -0.7538 O.2        1 <1>        0.000
      9 O3          0.3213   -3.1577    0.9368 O.2        1 <1>        0.000
     10 H           2.2620   -2.4253    2.2389 H.spc      1 <1>        0.000
     11 H          -0.5885   -1.3674   -0.4651 H.spc      1 <1>        0.000
     12 H           1.5369    1.4178    1.4449 H.spc      1 <1>        0.000
     13 H           2.6394    0.9131    0.0861 H.spc      1 <1>        0.000
@<TRIPOS>BOND
     1    1    2 am 
     2    1    6 am 
     3    2    3 am 
     4    2    9 2  
     5    3    4 am 
     6    4    5 1  
     7    4    8 2  
     8    5    6 1  
     9    6    7 2  
    10    1   10 1  
    11    3   11 1  
    12    5   12 1  
    13    5   13 1  
# Name:          frag5-539-74/41815 -- energy: -0.673865
# Creation time: Sat Jun  5 12:52:52 2010


@<TRIPOS>MOLECULE
frag5-539-74/41815 -- energy: -0.673865
   13    13     1     1     1
SMALL
USER_CHARGES


@<TRIPOS>ATOM
      1 N1          1.8577   -1.7027    1.6432 N.am       1 <1>        0.000
      2 C1          0.7824   -2.0293    0.8923 C.2        1 <1>        0.000
      3 N2          0.2221   -1.0957    0.0913 N.am       1 <1>        0.000
      4 C2          0.6675    0.1724   -0.0184 C.2        1 <1>        0.000
      5 C3          1.8616    0.6112    0.7875 C.3        1 <1>        0.000
      6 C4          2.4297   -0.4815    1.6543 C.2        1 <1>        0.000
      7 O1          3.4013   -0.2227    2.3471 O.2        1 <1>        0.000
      8 O2          0.1352    0.9890   -0.7538 O.2        1 <1>        0.000
      9 O3          0.3213   -3.1577    0.9368 O.2        1 <1>        0.000
     10 H           2.2620   -2.4253    2.2389 H.spc      1 <1>        0.000
     11 H          -0.5885   -1.3674   -0.4651 H.spc      1 <1>        0.000
     12 H           1.5369    1.4178    1.4449 H.spc      1 <1>        0.000
     13 H           2.6394    0.9131    0.0861 H.spc      1 <1>        0.000
@<TRIPOS>BOND
     1    1    2 am 
     2    1    6 am 
     3    2    3 am 
     4    2    9 2  
     5    3    4 am 
     6    4    5 1  
     7    4    8 2  
     8    5    6 1  
     9    6    7 2  
    10    1   10 1  
    11    3   11 1  
    12    5   12 1  
    13    5   13 1  
