#      Rotatable Fragment
#      Build by yxyuan
#
# Name:          frag5-542-213/138278
# Creation time: Sat Jun  5 12:53:42 2010


@<TRIPOS>MOLECULE
frag5-542-213/138278
   17    18     1     1     1
SMALL
USER_CHARGES


@<TRIPOS>ATOM
      1 C1          0.4739   -0.8583   -0.1900 C.2        1 <1>        0.000
      2 C2          1.6458   -1.3283    0.2616 C.2        1 <1>        0.000
      3 C3          0.7124    0.6440   -0.0280 C.2        1 <1>        0.000
      4 C4         -0.8241   -1.3683    0.0076 C.2        1 <1>        0.000
      5 C6          2.5636   -0.2572   -0.1732 C.3        1 <1>        0.000
      6 N1          1.9476    0.9783    0.0120 N.2        1 <1>        0.000
      7 C7         -0.4589    1.5301   -0.1587 C.2        1 <1>        0.000
      8 C8         -1.8839   -0.5425    0.0535 C.2        1 <1>        0.000
      9 C11        -1.6518    0.8816   -0.1288 C.2        1 <1>        0.000
     10 O1         -3.1503   -0.9647    0.3032 O.3        1 <1>        0.000
     11 H           1.8617   -2.2498    0.8022 H.spc      1 <1>        0.000
     12 H          -0.9706   -2.4421    0.1243 H.spc      1 <1>        0.000
     13 H           2.8067   -0.3899   -1.2274 H.spc      1 <1>        0.000
     14 H           3.4803   -0.3003    0.4150 H.spc      1 <1>        0.000
     15 H          -0.3747    2.6112   -0.2696 H.spc      1 <1>        0.000
     16 H          -2.5395    1.5012   -0.2564 H.spc      1 <1>        0.000
     17 H          -3.7460   -0.2120    0.2891 H.spc      1 <1>        0.000
@<TRIPOS>BOND
     1    8   10 1  
     2    8    9 1  
     3    7    9 2  
     4    1    3 1  
     5    1    2 2  
     6    1    4 1  
     7    2    5 1  
     8    3    6 2  
     9    3    7 1  
    10    4    8 2  
    11    5    6 1  
    12    2   11 1  
    13    4   12 1  
    14    5   13 1  
    15    5   14 1  
    16    7   15 1  
    17    9   16 1  
    18   10   17 1  
# Name:          frag5-542-213/138278 -- energy: -0.827504
# Creation time: Sat Jun  5 12:53:42 2010


@<TRIPOS>MOLECULE
frag5-542-213/138278 -- energy: -0.827504
   17    18     1     1     1
SMALL
USER_CHARGES


@<TRIPOS>ATOM
      1 C1          0.4739   -0.8583   -0.1900 C.2        1 <1>        0.000
      2 C2          1.6458   -1.3283    0.2616 C.2        1 <1>        0.000
      3 C3          0.7124    0.6440   -0.0280 C.2        1 <1>        0.000
      4 C4         -0.8241   -1.3683    0.0076 C.2        1 <1>        0.000
      5 C6          2.5636   -0.2572   -0.1732 C.3        1 <1>        0.000
      6 N1          1.9476    0.9783    0.0120 N.2        1 <1>        0.000
      7 C7         -0.4589    1.5301   -0.1587 C.2        1 <1>        0.000
      8 C8         -1.8839   -0.5425    0.0535 C.2        1 <1>        0.000
      9 C11        -1.6518    0.8816   -0.1288 C.2        1 <1>        0.000
     10 O1         -3.1503   -0.9647    0.3032 O.3        1 <1>        0.000
     11 H           1.8617   -2.2498    0.8022 H.spc      1 <1>        0.000
     12 H          -0.9706   -2.4421    0.1243 H.spc      1 <1>        0.000
     13 H           2.8067   -0.3899   -1.2274 H.spc      1 <1>        0.000
     14 H           3.4803   -0.3003    0.4150 H.spc      1 <1>        0.000
     15 H          -0.3747    2.6112   -0.2696 H.spc      1 <1>        0.000
     16 H          -2.5395    1.5012   -0.2564 H.spc      1 <1>        0.000
     17 H          -3.7460   -0.2120    0.2891 H.spc      1 <1>        0.000
@<TRIPOS>BOND
     1    8   10 1  
     2    8    9 1  
     3    7    9 2  
     4    1    3 1  
     5    1    2 2  
     6    1    4 1  
     7    2    5 1  
     8    3    6 2  
     9    3    7 1  
    10    4    8 2  
    11    5    6 1  
    12    2   11 1  
    13    4   12 1  
    14    5   13 1  
    15    5   14 1  
    16    7   15 1  
    17    9   16 1  
    18   10   17 1  
