#      Rotatable Fragment
#      Build by yxyuan
#
# Name:          frag5-568-149/138278
# Creation time: Sat Jun  5 12:53:44 2010


@<TRIPOS>MOLECULE
frag5-568-149/138278
   17    17     1     1     1
SMALL
USER_CHARGES


@<TRIPOS>ATOM
      1 C11         0.3912    0.4796   -0.3794 C.ar       1 <1>        0.000
      2 C12        -0.8512    1.0622   -0.2173 C.ar       1 <1>        0.000
      3 C13         0.5277   -0.8756   -0.1313 C.ar       1 <1>        0.000
      4 C14        -1.9601    0.3567    0.2605 C.ar       1 <1>        0.000
      5 C15        -0.5695   -1.6168    0.3154 C.ar       1 <1>        0.000
      6 C16        -1.7963   -0.9908    0.5077 C.ar       1 <1>        0.000
      7 N4         -3.1823    0.9734    0.4706 N.am       1 <1>        0.000
      8 S1         -3.7297    2.4722    0.2654 S.o2       1 <1>        0.000
      9 O5         -2.6967    3.4357   -0.0202 O.2        1 <1>        0.000
     10 O6         -4.9730    2.7098    0.9525 O.2        1 <1>        0.000
     11 H           1.2471    1.0754   -0.6964 H.spc      1 <1>        0.000
     12 H          -0.9719    2.1150   -0.4723 H.spc      1 <1>        0.000
     13 H           1.4901   -1.3640   -0.2843 H.spc      1 <1>        0.000
     14 H          -0.4640   -2.6836    0.5127 H.spc      1 <1>        0.000
     15 H          -2.6453   -1.5762    0.8607 H.spc      1 <1>        0.000
     16 H          -3.8913    0.3374    0.8357 H.spc      1 <1>        0.000
     17 H          -4.2890    2.7554   -0.9076 H.spc      1 <1>        0.000
@<TRIPOS>BOND
     1    8   10 2  
     2    8    9 2  
     3    7    8 1  
     4    1    2 ar 
     5    1    3 ar 
     6    2    4 ar 
     7    3    5 ar 
     8    4    6 ar 
     9    4    7 1  
    10    5    6 ar 
    11    1   11 1  
    12    2   12 1  
    13    3   13 1  
    14    5   14 1  
    15    6   15 1  
    16    7   16 1  
    17    8   17 1  
# Name:          frag5-568-149/138278
# Creation time: Sat Jun  5 12:53:44 2010


@<TRIPOS>MOLECULE
frag5-568-149/138278
   17    17     1     1     1
SMALL
USER_CHARGES


@<TRIPOS>ATOM
      1 C11         0.1627    0.4730   -0.7128 C.ar       1 <1>        0.000
      2 C12        -0.9100    1.1288   -0.1531 C.ar       1 <1>        0.000
      3 C13         0.2709   -0.8965   -0.5094 C.ar       1 <1>        0.000
      4 C14        -1.8676    0.4790    0.6202 C.ar       1 <1>        0.000
      5 C15        -0.7106   -1.5871    0.2342 C.ar       1 <1>        0.000
      6 C16        -1.7828   -0.8866    0.7739 C.ar       1 <1>        0.000
      7 N4         -2.9641    1.1186    1.1245 N.am       1 <1>        0.000
      8 S1         -3.6235    2.4677    0.5535 S.o2       1 <1>        0.000
      9 O5         -4.7275    2.1583   -0.3205 O.2        1 <1>        0.000
     10 O6         -2.6876    3.5513    0.4135 O.2        1 <1>        0.000
     11 H           0.9062    1.0131   -1.2990 H.spc      1 <1>        0.000
     12 H          -1.0139    2.2006   -0.3223 H.spc      1 <1>        0.000
     13 H           1.1182   -1.4411   -0.9261 H.spc      1 <1>        0.000
     14 H          -0.6279   -2.6636    0.3842 H.spc      1 <1>        0.000
     15 H          -2.5597   -1.4205    1.3211 H.spc      1 <1>        0.000
     16 H          -3.4068    0.6994    1.9422 H.spc      1 <1>        0.000
     17 H          -4.3415    3.2002    1.4002 H.spc      1 <1>        0.000
@<TRIPOS>BOND
     1    8   10 2  
     2    8    9 2  
     3    7    8 1  
     4    1    2 ar 
     5    1    3 ar 
     6    2    4 ar 
     7    3    5 ar 
     8    4    6 ar 
     9    4    7 1  
    10    5    6 ar 
    11    1   11 1  
    12    2   12 1  
    13    3   13 1  
    14    5   14 1  
    15    6   15 1  
    16    7   16 1  
    17    8   17 1  
# Name:          frag5-568-149/138278
# Creation time: Sat Jun  5 12:53:44 2010


@<TRIPOS>MOLECULE
frag5-568-149/138278
   17    17     1     1     1
SMALL
USER_CHARGES


@<TRIPOS>ATOM
      1 C11         0.3541    0.5735    0.0853 C.ar       1 <1>        0.000
      2 C12        -0.9025    1.1331   -0.0237 C.ar       1 <1>        0.000
      3 C13         0.4551   -0.7972    0.2562 C.ar       1 <1>        0.000
      4 C14        -2.0538    0.3464   -0.1170 C.ar       1 <1>        0.000
      5 C15        -0.6976   -1.5772    0.3641 C.ar       1 <1>        0.000
      6 C16        -1.9460   -0.9769    0.2644 C.ar       1 <1>        0.000
      7 N4         -3.2807    0.9699   -0.2749 N.am       1 <1>        0.000
      8 S1         -3.7239    2.4131    0.3191 S.o2       1 <1>        0.000
      9 O5         -3.3961    3.4722   -0.6060 O.2        1 <1>        0.000
     10 O6         -3.6486    2.4497    1.7565 O.2        1 <1>        0.000
     11 H           1.2474    1.1964    0.0380 H.spc      1 <1>        0.000
     12 H          -0.9998    2.2187   -0.0374 H.spc      1 <1>        0.000
     13 H           1.4369   -1.2680    0.3066 H.spc      1 <1>        0.000
     14 H          -0.6182   -2.6522    0.5258 H.spc      1 <1>        0.000
     15 H          -2.8444   -1.5523    0.4880 H.spc      1 <1>        0.000
     16 H          -3.9797    0.4684   -0.8228 H.spc      1 <1>        0.000
     17 H          -5.0181    2.7192    0.3390 H.spc      1 <1>        0.000
@<TRIPOS>BOND
     1    8   10 2  
     2    8    9 2  
     3    7    8 1  
     4    1    2 ar 
     5    1    3 ar 
     6    2    4 ar 
     7    3    5 ar 
     8    4    6 ar 
     9    4    7 1  
    10    5    6 ar 
    11    1   11 1  
    12    2   12 1  
    13    3   13 1  
    14    5   14 1  
    15    6   15 1  
    16    7   16 1  
    17    8   17 1  
# Name:          frag5-568-149/138278
# Creation time: Sat Jun  5 12:53:44 2010


@<TRIPOS>MOLECULE
frag5-568-149/138278
   17    17     1     1     1
SMALL
USER_CHARGES


@<TRIPOS>ATOM
      1 C11         0.1803    0.3511   -0.8708 C.ar       1 <1>        0.000
      2 C12        -1.0461    0.9524   -0.7462 C.ar       1 <1>        0.000
      3 C13         0.4464   -0.7623   -0.0809 C.ar       1 <1>        0.000
      4 C14        -2.0562    0.2925   -0.0642 C.ar       1 <1>        0.000
      5 C15        -0.4988   -1.2444    0.8303 C.ar       1 <1>        0.000
      6 C16        -1.7130   -0.5920    0.9366 C.ar       1 <1>        0.000
      7 N4         -3.2550    0.9379   -0.0550 N.am       1 <1>        0.000
      8 S1         -3.5940    2.2877    0.7238 S.o2       1 <1>        0.000
      9 O5         -4.8779    2.7505    0.2645 O.2        1 <1>        0.000
     10 O6         -2.4257    3.0330    1.0858 O.2        1 <1>        0.000
     11 H           0.9247    0.7346   -1.5685 H.spc      1 <1>        0.000
     12 H          -1.2242    1.9372   -1.1782 H.spc      1 <1>        0.000
     13 H           1.4077   -1.2676   -0.1735 H.spc      1 <1>        0.000
     14 H          -0.2822   -2.1180    1.4450 H.spc      1 <1>        0.000
     15 H          -2.3765   -0.7707    1.7827 H.spc      1 <1>        0.000
     16 H          -4.0089    0.5176   -0.5986 H.spc      1 <1>        0.000
     17 H          -3.9122    2.2985    2.0151 H.spc      1 <1>        0.000
@<TRIPOS>BOND
     1    8   10 2  
     2    8    9 2  
     3    7    8 1  
     4    1    2 ar 
     5    1    3 ar 
     6    2    4 ar 
     7    3    5 ar 
     8    4    6 ar 
     9    4    7 1  
    10    5    6 ar 
    11    1   11 1  
    12    2   12 1  
    13    3   13 1  
    14    5   14 1  
    15    6   15 1  
    16    7   16 1  
    17    8   17 1  
# Name:          frag5-568-149/138278 -- energy: -0.436823
# Creation time: Sat Jun  5 12:53:44 2010


@<TRIPOS>MOLECULE
frag5-568-149/138278 -- energy: -0.436823
   17    17     1     1     1
SMALL
USER_CHARGES


@<TRIPOS>ATOM
      1 C11         0.3912    0.4796   -0.3794 C.ar       1 <1>        0.000
      2 C12        -0.8512    1.0622   -0.2173 C.ar       1 <1>        0.000
      3 C13         0.5277   -0.8756   -0.1313 C.ar       1 <1>        0.000
      4 C14        -1.9601    0.3567    0.2605 C.ar       1 <1>        0.000
      5 C15        -0.5695   -1.6168    0.3154 C.ar       1 <1>        0.000
      6 C16        -1.7963   -0.9908    0.5077 C.ar       1 <1>        0.000
      7 N4         -3.1823    0.9734    0.4706 N.am       1 <1>        0.000
      8 S1         -3.7297    2.4722    0.2654 S.o2       1 <1>        0.000
      9 O5         -2.6967    3.4357   -0.0202 O.2        1 <1>        0.000
     10 O6         -4.9730    2.7098    0.9525 O.2        1 <1>        0.000
     11 H           1.2471    1.0754   -0.6964 H.spc      1 <1>        0.000
     12 H          -0.9719    2.1150   -0.4723 H.spc      1 <1>        0.000
     13 H           1.4901   -1.3640   -0.2843 H.spc      1 <1>        0.000
     14 H          -0.4640   -2.6836    0.5127 H.spc      1 <1>        0.000
     15 H          -2.6453   -1.5762    0.8607 H.spc      1 <1>        0.000
     16 H          -3.8913    0.3374    0.8357 H.spc      1 <1>        0.000
     17 H          -4.2890    2.7554   -0.9076 H.spc      1 <1>        0.000
@<TRIPOS>BOND
     1    8   10 2  
     2    8    9 2  
     3    7    8 1  
     4    1    2 ar 
     5    1    3 ar 
     6    2    4 ar 
     7    3    5 ar 
     8    4    6 ar 
     9    4    7 1  
    10    5    6 ar 
    11    1   11 1  
    12    2   12 1  
    13    3   13 1  
    14    5   14 1  
    15    6   15 1  
    16    7   16 1  
    17    8   17 1  
# Name:          frag5-568-149/138278 -- energy: -0.682844
# Creation time: Sat Jun  5 12:53:44 2010


@<TRIPOS>MOLECULE
frag5-568-149/138278 -- energy: -0.682844
   17    17     1     1     1
SMALL
USER_CHARGES


@<TRIPOS>ATOM
      1 C11         0.1627    0.4730   -0.7128 C.ar       1 <1>        0.000
      2 C12        -0.9100    1.1288   -0.1531 C.ar       1 <1>        0.000
      3 C13         0.2709   -0.8965   -0.5094 C.ar       1 <1>        0.000
      4 C14        -1.8676    0.4790    0.6202 C.ar       1 <1>        0.000
      5 C15        -0.7106   -1.5871    0.2342 C.ar       1 <1>        0.000
      6 C16        -1.7828   -0.8866    0.7739 C.ar       1 <1>        0.000
      7 N4         -2.9641    1.1186    1.1245 N.am       1 <1>        0.000
      8 S1         -3.6235    2.4677    0.5535 S.o2       1 <1>        0.000
      9 O5         -4.7275    2.1583   -0.3205 O.2        1 <1>        0.000
     10 O6         -2.6876    3.5513    0.4135 O.2        1 <1>        0.000
     11 H           0.9062    1.0131   -1.2990 H.spc      1 <1>        0.000
     12 H          -1.0139    2.2006   -0.3223 H.spc      1 <1>        0.000
     13 H           1.1182   -1.4411   -0.9261 H.spc      1 <1>        0.000
     14 H          -0.6279   -2.6636    0.3842 H.spc      1 <1>        0.000
     15 H          -2.5597   -1.4205    1.3211 H.spc      1 <1>        0.000
     16 H          -3.4068    0.6994    1.9422 H.spc      1 <1>        0.000
     17 H          -4.3415    3.2002    1.4002 H.spc      1 <1>        0.000
@<TRIPOS>BOND
     1    8   10 2  
     2    8    9 2  
     3    7    8 1  
     4    1    2 ar 
     5    1    3 ar 
     6    2    4 ar 
     7    3    5 ar 
     8    4    6 ar 
     9    4    7 1  
    10    5    6 ar 
    11    1   11 1  
    12    2   12 1  
    13    3   13 1  
    14    5   14 1  
    15    6   15 1  
    16    7   16 1  
    17    8   17 1  
# Name:          frag5-568-149/138278 -- energy: -0.989188
# Creation time: Sat Jun  5 12:53:44 2010


@<TRIPOS>MOLECULE
frag5-568-149/138278 -- energy: -0.989188
   17    17     1     1     1
SMALL
USER_CHARGES


@<TRIPOS>ATOM
      1 C11         0.3541    0.5735    0.0853 C.ar       1 <1>        0.000
      2 C12        -0.9025    1.1331   -0.0237 C.ar       1 <1>        0.000
      3 C13         0.4551   -0.7972    0.2562 C.ar       1 <1>        0.000
      4 C14        -2.0538    0.3464   -0.1170 C.ar       1 <1>        0.000
      5 C15        -0.6976   -1.5772    0.3641 C.ar       1 <1>        0.000
      6 C16        -1.9460   -0.9769    0.2644 C.ar       1 <1>        0.000
      7 N4         -3.2807    0.9699   -0.2749 N.am       1 <1>        0.000
      8 S1         -3.7239    2.4131    0.3191 S.o2       1 <1>        0.000
      9 O5         -3.3961    3.4722   -0.6060 O.2        1 <1>        0.000
     10 O6         -3.6486    2.4497    1.7565 O.2        1 <1>        0.000
     11 H           1.2474    1.1964    0.0380 H.spc      1 <1>        0.000
     12 H          -0.9998    2.2187   -0.0374 H.spc      1 <1>        0.000
     13 H           1.4369   -1.2680    0.3066 H.spc      1 <1>        0.000
     14 H          -0.6182   -2.6522    0.5258 H.spc      1 <1>        0.000
     15 H          -2.8444   -1.5523    0.4880 H.spc      1 <1>        0.000
     16 H          -3.9797    0.4684   -0.8228 H.spc      1 <1>        0.000
     17 H          -5.0181    2.7192    0.3390 H.spc      1 <1>        0.000
@<TRIPOS>BOND
     1    8   10 2  
     2    8    9 2  
     3    7    8 1  
     4    1    2 ar 
     5    1    3 ar 
     6    2    4 ar 
     7    3    5 ar 
     8    4    6 ar 
     9    4    7 1  
    10    5    6 ar 
    11    1   11 1  
    12    2   12 1  
    13    3   13 1  
    14    5   14 1  
    15    6   15 1  
    16    7   16 1  
    17    8   17 1  
# Name:          frag5-568-149/138278 -- energy: -0.986032
# Creation time: Sat Jun  5 12:53:44 2010


@<TRIPOS>MOLECULE
frag5-568-149/138278 -- energy: -0.986032
   17    17     1     1     1
SMALL
USER_CHARGES


@<TRIPOS>ATOM
      1 C11         0.1803    0.3511   -0.8708 C.ar       1 <1>        0.000
      2 C12        -1.0461    0.9524   -0.7462 C.ar       1 <1>        0.000
      3 C13         0.4464   -0.7623   -0.0809 C.ar       1 <1>        0.000
      4 C14        -2.0562    0.2925   -0.0642 C.ar       1 <1>        0.000
      5 C15        -0.4988   -1.2444    0.8303 C.ar       1 <1>        0.000
      6 C16        -1.7130   -0.5920    0.9366 C.ar       1 <1>        0.000
      7 N4         -3.2550    0.9379   -0.0550 N.am       1 <1>        0.000
      8 S1         -3.5940    2.2877    0.7238 S.o2       1 <1>        0.000
      9 O5         -4.8779    2.7505    0.2645 O.2        1 <1>        0.000
     10 O6         -2.4257    3.0330    1.0858 O.2        1 <1>        0.000
     11 H           0.9247    0.7346   -1.5685 H.spc      1 <1>        0.000
     12 H          -1.2242    1.9372   -1.1782 H.spc      1 <1>        0.000
     13 H           1.4077   -1.2676   -0.1735 H.spc      1 <1>        0.000
     14 H          -0.2822   -2.1180    1.4450 H.spc      1 <1>        0.000
     15 H          -2.3765   -0.7707    1.7827 H.spc      1 <1>        0.000
     16 H          -4.0089    0.5176   -0.5986 H.spc      1 <1>        0.000
     17 H          -3.9122    2.2985    2.0151 H.spc      1 <1>        0.000
@<TRIPOS>BOND
     1    8   10 2  
     2    8    9 2  
     3    7    8 1  
     4    1    2 ar 
     5    1    3 ar 
     6    2    4 ar 
     7    3    5 ar 
     8    4    6 ar 
     9    4    7 1  
    10    5    6 ar 
    11    1   11 1  
    12    2   12 1  
    13    3   13 1  
    14    5   14 1  
    15    6   15 1  
    16    7   16 1  
    17    8   17 1  
