#      Rotatable Fragment
#      Build by yxyuan
#
# Name:          frag2-071-7/319335
# Creation time: Sat Jun  5 12:51:57 2010


@<TRIPOS>MOLECULE
frag2-071-7/319335
   15    16     1     1     1
SMALL
USER_CHARGES


@<TRIPOS>ATOM
      1 C1          0.1591    0.7751   -0.1565 C.ar       1 <1>        0.000
      2 C2          1.3138    1.5395   -0.2200 C.ar       1 <1>        0.000
      3 C3          0.2749   -0.5880    0.1546 C.ar       1 <1>        0.000
      4 N1         -1.0634    1.3052   -0.3843 N.ar       1 <1>        0.000
      5 N3          2.5126    0.9831    0.0110 N.ar       1 <1>        0.000
      6 C4         -0.8754   -1.3672    0.2220 C.ar       1 <1>        0.000
      7 N4          1.5051   -1.1009    0.3796 N.ar       1 <1>        0.000
      8 C5         -2.1908    0.5571   -0.3220 C.ar       1 <1>        0.000
      9 C8          2.6080   -0.3305    0.3096 C.ar       1 <1>        0.000
     10 C9         -2.1135   -0.7975   -0.0158 C.ar       1 <1>        0.000
     11 H           1.2473    2.6008   -0.4595 H.spc      1 <1>        0.000
     12 H          -0.8012   -2.4278    0.4624 H.spc      1 <1>        0.000
     13 H          -3.1604    1.0174   -0.5122 H.spc      1 <1>        0.000
     14 H           3.5871   -0.7718    0.4958 H.spc      1 <1>        0.000
     15 H          -3.0181   -1.4033    0.0362 H.spc      1 <1>        0.000
@<TRIPOS>BOND
     1    8   10 ar 
     2    1    2 ar 
     3    1    3 ar 
     4    1    4 ar 
     5    2    5 ar 
     6    3    6 ar 
     7    3    7 ar 
     8    4    8 ar 
     9    5    9 ar 
    10    6   10 ar 
    11    7    9 ar 
    12    2   11 1  
    13    6   12 1  
    14    8   13 1  
    15    9   14 1  
    16   10   15 1  
# Name:          frag2-071-7/319335 -- energy: 0.212073
# Creation time: Sat Jun  5 12:51:57 2010


@<TRIPOS>MOLECULE
frag2-071-7/319335 -- energy: 0.212073
   15    16     1     1     1
SMALL
USER_CHARGES


@<TRIPOS>ATOM
      1 C1          0.1591    0.7751   -0.1565 C.ar       1 <1>        0.000
      2 C2          1.3138    1.5395   -0.2200 C.ar       1 <1>        0.000
      3 C3          0.2749   -0.5880    0.1546 C.ar       1 <1>        0.000
      4 N1         -1.0634    1.3052   -0.3843 N.ar       1 <1>        0.000
      5 N3          2.5126    0.9831    0.0110 N.ar       1 <1>        0.000
      6 C4         -0.8754   -1.3672    0.2220 C.ar       1 <1>        0.000
      7 N4          1.5051   -1.1009    0.3796 N.ar       1 <1>        0.000
      8 C5         -2.1908    0.5571   -0.3220 C.ar       1 <1>        0.000
      9 C8          2.6080   -0.3305    0.3096 C.ar       1 <1>        0.000
     10 C9         -2.1135   -0.7975   -0.0158 C.ar       1 <1>        0.000
     11 H           1.2473    2.6008   -0.4595 H.spc      1 <1>        0.000
     12 H          -0.8012   -2.4278    0.4624 H.spc      1 <1>        0.000
     13 H          -3.1604    1.0174   -0.5122 H.spc      1 <1>        0.000
     14 H           3.5871   -0.7718    0.4958 H.spc      1 <1>        0.000
     15 H          -3.0181   -1.4033    0.0362 H.spc      1 <1>        0.000
@<TRIPOS>BOND
     1    8   10 ar 
     2    1    2 ar 
     3    1    3 ar 
     4    1    4 ar 
     5    2    5 ar 
     6    3    6 ar 
     7    3    7 ar 
     8    4    8 ar 
     9    5    9 ar 
    10    6   10 ar 
    11    7    9 ar 
    12    2   11 1  
    13    6   12 1  
    14    8   13 1  
    15    9   14 1  
    16   10   15 1  
