#      Rotatable Fragment
#      Build by yxyuan
#
# Name:          frag4-403-58/48856
# Creation time: Sat Jun  5 12:51:52 2010


@<TRIPOS>MOLECULE
frag4-403-58/48856
   13    13     1     1     1
SMALL
USER_CHARGES


@<TRIPOS>ATOM
      1 C10        -0.7806   -0.4774   -0.2269 C.3        1 <1>        0.000
      2 N4         -1.3322   -1.5288   -1.0035 N.3        1 <1>        0.000
      3 C11        -1.1180   -2.8289   -0.4598 C.3        1 <1>        0.000
      4 C12         0.1616   -2.5375    0.2899 C.3        1 <1>        0.000
      5 N5         -0.0622   -1.2088    0.7395 N.3        1 <1>        0.000
      6 H          -1.5249    0.1988    0.1938 H.spc      1 <1>        0.000
      7 H          -0.1683    0.2201   -0.7986 H.spc      1 <1>        0.000
      8 H          -0.8737   -1.5035   -1.9143 H.spc      1 <1>        0.000
      9 H          -1.0602   -3.6376   -1.1884 H.spc      1 <1>        0.000
     10 H          -1.9348   -3.2246    0.1438 H.spc      1 <1>        0.000
     11 H           1.0570   -2.6432   -0.3226 H.spc      1 <1>        0.000
     12 H           0.3608   -3.2412    1.0981 H.spc      1 <1>        0.000
     13 H          -0.6028   -1.2373    1.6040 H.spc      1 <1>        0.000
@<TRIPOS>BOND
     1    1    2 1  
     2    1    5 1  
     3    2    3 1  
     4    3    4 1  
     5    4    5 1  
     6    1    6 1  
     7    1    7 1  
     8    2    8 1  
     9    3    9 1  
    10    3   10 1  
    11    4   11 1  
    12    4   12 1  
    13    5   13 1  
# Name:          frag4-403-58/48856 -- energy: -0.715613
# Creation time: Sat Jun  5 12:51:52 2010


@<TRIPOS>MOLECULE
frag4-403-58/48856 -- energy: -0.715613
   13    13     1     1     1
SMALL
USER_CHARGES


@<TRIPOS>ATOM
      1 C10        -0.7806   -0.4774   -0.2269 C.3        1 <1>        0.000
      2 N4         -1.3322   -1.5288   -1.0035 N.3        1 <1>        0.000
      3 C11        -1.1180   -2.8289   -0.4598 C.3        1 <1>        0.000
      4 C12         0.1616   -2.5375    0.2899 C.3        1 <1>        0.000
      5 N5         -0.0622   -1.2088    0.7395 N.3        1 <1>        0.000
      6 H          -1.5249    0.1988    0.1938 H.spc      1 <1>        0.000
      7 H          -0.1683    0.2201   -0.7986 H.spc      1 <1>        0.000
      8 H          -0.8737   -1.5035   -1.9143 H.spc      1 <1>        0.000
      9 H          -1.0602   -3.6376   -1.1884 H.spc      1 <1>        0.000
     10 H          -1.9348   -3.2246    0.1438 H.spc      1 <1>        0.000
     11 H           1.0570   -2.6432   -0.3226 H.spc      1 <1>        0.000
     12 H           0.3608   -3.2412    1.0981 H.spc      1 <1>        0.000
     13 H          -0.6028   -1.2373    1.6040 H.spc      1 <1>        0.000
@<TRIPOS>BOND
     1    1    2 1  
     2    1    5 1  
     3    2    3 1  
     4    3    4 1  
     5    4    5 1  
     6    1    6 1  
     7    1    7 1  
     8    2    8 1  
     9    3    9 1  
    10    3   10 1  
    11    4   11 1  
    12    4   12 1  
    13    5   13 1  
