#      Rotatable Fragment
#      Build by yxyuan
#
# Name:          frag4-433-129/150395
# Creation time: Sat Jun  5 12:53:35 2010


@<TRIPOS>MOLECULE
frag4-433-129/150395
   21    22     1     1     1
SMALL
USER_CHARGES


@<TRIPOS>ATOM
      1 C1         -1.6793    0.0960   -0.0000 C.ar       1 <1>        0.000
      2 N1         -2.8420   -0.5933    0.0000 N.pl3      1 <1>        0.000
      3 C2         -1.6521    1.5058    0.0000 C.ar       1 <1>        0.000
      4 C3         -0.4571   -0.5919   -0.0000 C.ar       1 <1>        0.000
      5 C5         -4.1556    0.0278    0.0000 C.3        1 <1>        0.000
      6 C6         -0.4217    2.1734    0.0000 C.ar       1 <1>        0.000
      7 C7         -2.9185    2.3515   -0.0000 C.3        1 <1>        0.000
      8 C8          0.7627    0.0788    0.0000 C.ar       1 <1>        0.000
      9 C10        -4.2633    1.5787    0.0000 C.3        1 <1>        0.000
     10 C11         0.7817    1.4729   -0.0000 C.ar       1 <1>        0.000
     11 H          -2.7943   -1.6122    0.0000 H.spc      1 <1>        0.000
     12 H          -0.4625   -1.6819   -0.0000 H.spc      1 <1>        0.000
     13 H          -4.6105   -0.2829    0.9405 H.spc      1 <1>        0.000
     14 H          -4.6105   -0.2829   -0.9405 H.spc      1 <1>        0.000
     15 H          -0.4053    3.2633    0.0000 H.spc      1 <1>        0.000
     16 H          -2.8992    2.9257    0.9263 H.spc      1 <1>        0.000
     17 H          -2.8992    2.9257   -0.9263 H.spc      1 <1>        0.000
     18 H           1.6971   -0.4824    0.0000 H.spc      1 <1>        0.000
     19 H          -4.7736    1.8508   -0.9239 H.spc      1 <1>        0.000
     20 H          -4.7736    1.8508    0.9239 H.spc      1 <1>        0.000
     21 H           1.7303    2.0098   -0.0000 H.spc      1 <1>        0.000
@<TRIPOS>BOND
     1    7    9 1  
     2    3    6 ar 
     3    6   10 ar 
     4    2    5 1  
     5    8   10 ar 
     6    4    8 ar 
     7    5    9 1  
     8    3    7 1  
     9    1    3 ar 
    10    1    2 1  
    11    1    4 ar 
    12    2   11 1  
    13    4   12 1  
    14    5   13 1  
    15    5   14 1  
    16    6   15 1  
    17    7   16 1  
    18    7   17 1  
    19    8   18 1  
    20    9   19 1  
    21    9   20 1  
    22   10   21 1  
# Name:          frag4-433-129/150395 -- energy: -1.207223
# Creation time: Sat Jun  5 12:53:35 2010


@<TRIPOS>MOLECULE
frag4-433-129/150395 -- energy: -1.207223
   21    22     1     1     1
SMALL
USER_CHARGES


@<TRIPOS>ATOM
      1 C1         -1.6793    0.0960   -0.0000 C.ar       1 <1>        0.000
      2 N1         -2.8420   -0.5933    0.0000 N.pl3      1 <1>        0.000
      3 C2         -1.6521    1.5058    0.0000 C.ar       1 <1>        0.000
      4 C3         -0.4571   -0.5919   -0.0000 C.ar       1 <1>        0.000
      5 C5         -4.1556    0.0278    0.0000 C.3        1 <1>        0.000
      6 C6         -0.4217    2.1734    0.0000 C.ar       1 <1>        0.000
      7 C7         -2.9185    2.3515   -0.0000 C.3        1 <1>        0.000
      8 C8          0.7627    0.0788    0.0000 C.ar       1 <1>        0.000
      9 C10        -4.2633    1.5787    0.0000 C.3        1 <1>        0.000
     10 C11         0.7817    1.4729   -0.0000 C.ar       1 <1>        0.000
     11 H          -2.7943   -1.6122    0.0000 H.spc      1 <1>        0.000
     12 H          -0.4625   -1.6819   -0.0000 H.spc      1 <1>        0.000
     13 H          -4.6105   -0.2829    0.9405 H.spc      1 <1>        0.000
     14 H          -4.6105   -0.2829   -0.9405 H.spc      1 <1>        0.000
     15 H          -0.4053    3.2633    0.0000 H.spc      1 <1>        0.000
     16 H          -2.8992    2.9257    0.9263 H.spc      1 <1>        0.000
     17 H          -2.8992    2.9257   -0.9263 H.spc      1 <1>        0.000
     18 H           1.6971   -0.4824    0.0000 H.spc      1 <1>        0.000
     19 H          -4.7736    1.8508   -0.9239 H.spc      1 <1>        0.000
     20 H          -4.7736    1.8508    0.9239 H.spc      1 <1>        0.000
     21 H           1.7303    2.0098   -0.0000 H.spc      1 <1>        0.000
@<TRIPOS>BOND
     1    7    9 1  
     2    3    6 ar 
     3    6   10 ar 
     4    2    5 1  
     5    8   10 ar 
     6    4    8 ar 
     7    5    9 1  
     8    3    7 1  
     9    1    3 ar 
    10    1    2 1  
    11    1    4 ar 
    12    2   11 1  
    13    4   12 1  
    14    5   13 1  
    15    5   14 1  
    16    6   15 1  
    17    7   16 1  
    18    7   17 1  
    19    8   18 1  
    20    9   19 1  
    21    9   20 1  
    22   10   21 1  
