#      Rotatable Fragment
#      Build by yxyuan
#
# Name:          frag5-509-198/41815
# Creation time: Sat Jun  5 12:52:50 2010


@<TRIPOS>MOLECULE
frag5-509-198/41815
   14    14     1     1     1
SMALL
USER_CHARGES


@<TRIPOS>ATOM
      1 C9         -0.1348    1.6304   -0.1645 C.ar       1 <1>        0.000
      2 C10        -1.3056    0.8914    0.0218 C.ar       1 <1>        0.000
      3 C11        -1.2531   -0.5016    0.1683 C.ar       1 <1>        0.000
      4 C12        -0.0003   -1.1392    0.1249 C.ar       1 <1>        0.000
      5 C13         1.1838   -0.4074   -0.0613 C.ar       1 <1>        0.000
      6 C14         1.1058    0.9838   -0.2069 C.ar       1 <1>        0.000
      7 O1          2.4084   -1.0497   -0.1000 O.3        1 <1>        0.000
      8 O2         -2.4162   -1.2249    0.3519 O.3        1 <1>        0.000
      9 H          -0.1876    2.7133   -0.2771 H.spc      1 <1>        0.000
     10 H          -2.2679    1.4023    0.0535 H.spc      1 <1>        0.000
     11 H           0.0526   -2.2220    0.2379 H.spc      1 <1>        0.000
     12 H           2.0158    1.5655   -0.3539 H.spc      1 <1>        0.000
     13 H           3.1042   -0.4019   -0.2334 H.spc      1 <1>        0.000
     14 H          -2.2024   -2.1572    0.4338 H.spc      1 <1>        0.000
@<TRIPOS>BOND
     1    1    2 ar 
     2    1    6 ar 
     3    2    3 ar 
     4    3    8 1  
     5    3    4 ar 
     6    4    5 ar 
     7    5    6 ar 
     8    5    7 1  
     9    1    9 1  
    10    2   10 1  
    11    4   11 1  
    12    6   12 1  
    13    7   13 1  
    14    8   14 1  
# Name:          frag5-509-198/41815 -- energy: -0.164311
# Creation time: Sat Jun  5 12:52:50 2010


@<TRIPOS>MOLECULE
frag5-509-198/41815 -- energy: -0.164311
   14    14     1     1     1
SMALL
USER_CHARGES


@<TRIPOS>ATOM
      1 C9         -0.1348    1.6304   -0.1645 C.ar       1 <1>        0.000
      2 C10        -1.3056    0.8914    0.0218 C.ar       1 <1>        0.000
      3 C11        -1.2531   -0.5016    0.1683 C.ar       1 <1>        0.000
      4 C12        -0.0003   -1.1392    0.1249 C.ar       1 <1>        0.000
      5 C13         1.1838   -0.4074   -0.0613 C.ar       1 <1>        0.000
      6 C14         1.1058    0.9838   -0.2069 C.ar       1 <1>        0.000
      7 O1          2.4084   -1.0497   -0.1000 O.3        1 <1>        0.000
      8 O2         -2.4162   -1.2249    0.3519 O.3        1 <1>        0.000
      9 H          -0.1876    2.7133   -0.2771 H.spc      1 <1>        0.000
     10 H          -2.2679    1.4023    0.0535 H.spc      1 <1>        0.000
     11 H           0.0526   -2.2220    0.2379 H.spc      1 <1>        0.000
     12 H           2.0158    1.5655   -0.3539 H.spc      1 <1>        0.000
     13 H           3.1042   -0.4019   -0.2334 H.spc      1 <1>        0.000
     14 H          -2.2024   -2.1572    0.4338 H.spc      1 <1>        0.000
@<TRIPOS>BOND
     1    1    2 ar 
     2    1    6 ar 
     3    2    3 ar 
     4    3    8 1  
     5    3    4 ar 
     6    4    5 ar 
     7    5    6 ar 
     8    5    7 1  
     9    1    9 1  
    10    2   10 1  
    11    4   11 1  
    12    6   12 1  
    13    7   13 1  
    14    8   14 1  
