#      Rotatable Fragment
#      Build by yxyuan
#
# Name:          frag2-080-1/319335
# Creation time: Sat Jun  5 12:52:02 2010


@<TRIPOS>MOLECULE
frag2-080-1/319335
   21    23     1     1     1
SMALL
USER_CHARGES


@<TRIPOS>ATOM
      1 C1          0.8184   -0.1664    0.0822 C.ar       1 <1>        0.000
      2 C2         -0.4267   -0.7990    0.0490 C.ar       1 <1>        0.000
      3 C3          0.9050    1.2212   -0.0693 C.ar       1 <1>        0.000
      4 N1          1.9430   -0.8892    0.2609 N.ar       1 <1>        0.000
      5 C4         -1.5924   -0.0440   -0.1269 C.ar       1 <1>        0.000
      6 N2         -0.4889   -2.1400    0.1881 N.ar       1 <1>        0.000
      7 C5         -0.2565    1.9767   -0.2497 C.ar       1 <1>        0.000
      8 N3          2.1134    1.8199   -0.0398 N.ar       1 <1>        0.000
      9 C6          3.1503   -0.2895    0.2998 C.ar       1 <1>        0.000
     10 C7         -1.5041    1.3457   -0.2720 C.ar       1 <1>        0.000
     11 C8         -2.8239   -0.7072   -0.1538 C.ar       1 <1>        0.000
     12 C9         -1.6658   -2.7983    0.1622 C.ar       1 <1>        0.000
     13 C10         3.2373    1.0965    0.1424 C.ar       1 <1>        0.000
     14 C11        -2.8616   -2.0967   -0.0110 C.ar       1 <1>        0.000
     15 H          -0.1900    3.0577   -0.3730 H.spc      1 <1>        0.000
     16 H           4.0524   -0.8819    0.4530 H.spc      1 <1>        0.000
     17 H          -2.4102    1.9373   -0.4027 H.spc      1 <1>        0.000
     18 H          -3.7477   -0.1439   -0.2853 H.spc      1 <1>        0.000
     19 H          -1.6841   -3.8821    0.2769 H.spc      1 <1>        0.000
     20 H           4.2086    1.5905    0.1668 H.spc      1 <1>        0.000
     21 H          -3.8134   -2.6274   -0.0345 H.spc      1 <1>        0.000
@<TRIPOS>BOND
     1    2    6 ar 
     2    6   12 ar 
     3   11   14 ar 
     4    4    9 ar 
     5    5   10 ar 
     6   12   14 ar 
     7    3    7 ar 
     8    2    5 ar 
     9    5   11 ar 
    10    8   13 ar 
    11    7   10 ar 
    12    3    8 ar 
    13    1    4 ar 
    14    1    2 ar 
    15    1    3 ar 
    16    9   13 ar 
    17    7   15 1  
    18    9   16 1  
    19   10   17 1  
    20   11   18 1  
    21   12   19 1  
    22   13   20 1  
    23   14   21 1  
# Name:          frag2-080-1/319335 -- energy: -0.157960
# Creation time: Sat Jun  5 12:52:02 2010


@<TRIPOS>MOLECULE
frag2-080-1/319335 -- energy: -0.157960
   21    23     1     1     1
SMALL
USER_CHARGES


@<TRIPOS>ATOM
      1 C1          0.8184   -0.1664    0.0822 C.ar       1 <1>        0.000
      2 C2         -0.4267   -0.7990    0.0490 C.ar       1 <1>        0.000
      3 C3          0.9050    1.2212   -0.0693 C.ar       1 <1>        0.000
      4 N1          1.9430   -0.8892    0.2609 N.ar       1 <1>        0.000
      5 C4         -1.5924   -0.0440   -0.1269 C.ar       1 <1>        0.000
      6 N2         -0.4889   -2.1400    0.1881 N.ar       1 <1>        0.000
      7 C5         -0.2565    1.9767   -0.2497 C.ar       1 <1>        0.000
      8 N3          2.1134    1.8199   -0.0398 N.ar       1 <1>        0.000
      9 C6          3.1503   -0.2895    0.2998 C.ar       1 <1>        0.000
     10 C7         -1.5041    1.3457   -0.2720 C.ar       1 <1>        0.000
     11 C8         -2.8239   -0.7072   -0.1538 C.ar       1 <1>        0.000
     12 C9         -1.6658   -2.7983    0.1622 C.ar       1 <1>        0.000
     13 C10         3.2373    1.0965    0.1424 C.ar       1 <1>        0.000
     14 C11        -2.8616   -2.0967   -0.0110 C.ar       1 <1>        0.000
     15 H          -0.1900    3.0577   -0.3730 H.spc      1 <1>        0.000
     16 H           4.0524   -0.8819    0.4530 H.spc      1 <1>        0.000
     17 H          -2.4102    1.9373   -0.4027 H.spc      1 <1>        0.000
     18 H          -3.7477   -0.1439   -0.2853 H.spc      1 <1>        0.000
     19 H          -1.6841   -3.8821    0.2769 H.spc      1 <1>        0.000
     20 H           4.2086    1.5905    0.1668 H.spc      1 <1>        0.000
     21 H          -3.8134   -2.6274   -0.0345 H.spc      1 <1>        0.000
@<TRIPOS>BOND
     1    2    6 ar 
     2    6   12 ar 
     3   11   14 ar 
     4    4    9 ar 
     5    5   10 ar 
     6   12   14 ar 
     7    3    7 ar 
     8    2    5 ar 
     9    5   11 ar 
    10    8   13 ar 
    11    7   10 ar 
    12    3    8 ar 
    13    1    4 ar 
    14    1    2 ar 
    15    1    3 ar 
    16    9   13 ar 
    17    7   15 1  
    18    9   16 1  
    19   10   17 1  
    20   11   18 1  
    21   12   19 1  
    22   13   20 1  
    23   14   21 1  
