#      Rotatable Fragment
#      Build by yxyuan
#
# Name:          frag4-307-409/48856
# Creation time: Sat Jun  5 12:52:47 2010


@<TRIPOS>MOLECULE
frag4-307-409/48856
   10    10     1     1     1
SMALL
USER_CHARGES


@<TRIPOS>ATOM
      1 C4          1.2436    0.0843    0.0171 C.2        1 <1>        0.000
      2 O1          0.7594   -1.0758   -0.3552 O.3        1 <1>        0.000
      3 C5         -0.5300   -1.1235   -0.3100 C.2        1 <1>        0.000
      4 C6         -1.0453    0.2489    0.0331 C.3        1 <1>        0.000
      5 C7          0.2371    0.9349    0.2634 C.2        1 <1>        0.000
      6 H           2.3033    0.3212    0.1119 H.spc      1 <1>        0.000
      7 H          -1.1418   -2.0075   -0.4898 H.spc      1 <1>        0.000
      8 H          -1.7371    0.2796    0.8748 H.spc      1 <1>        0.000
      9 H          -1.6758    0.7040   -0.7307 H.spc      1 <1>        0.000
     10 H           0.3502    1.9707    0.5836 H.spc      1 <1>        0.000
@<TRIPOS>BOND
     1    1    2 1  
     2    1    5 2  
     3    2    3 2  
     4    3    4 1  
     5    4    5 1  
     6    1    6 1  
     7    3    7 1  
     8    4    8 1  
     9    4    9 1  
    10    5   10 1  
# Name:          frag4-307-409/48856 -- energy: -0.342187
# Creation time: Sat Jun  5 12:52:47 2010


@<TRIPOS>MOLECULE
frag4-307-409/48856 -- energy: -0.342187
   10    10     1     1     1
SMALL
USER_CHARGES


@<TRIPOS>ATOM
      1 C4          1.2436    0.0843    0.0171 C.2        1 <1>        0.000
      2 O1          0.7594   -1.0758   -0.3552 O.3        1 <1>        0.000
      3 C5         -0.5300   -1.1235   -0.3100 C.2        1 <1>        0.000
      4 C6         -1.0453    0.2489    0.0331 C.3        1 <1>        0.000
      5 C7          0.2371    0.9349    0.2634 C.2        1 <1>        0.000
      6 H           2.3033    0.3212    0.1119 H.spc      1 <1>        0.000
      7 H          -1.1418   -2.0075   -0.4898 H.spc      1 <1>        0.000
      8 H          -1.7371    0.2796    0.8748 H.spc      1 <1>        0.000
      9 H          -1.6758    0.7040   -0.7307 H.spc      1 <1>        0.000
     10 H           0.3502    1.9707    0.5836 H.spc      1 <1>        0.000
@<TRIPOS>BOND
     1    1    2 1  
     2    1    5 2  
     3    2    3 2  
     4    3    4 1  
     5    4    5 1  
     6    1    6 1  
     7    3    7 1  
     8    4    8 1  
     9    4    9 1  
    10    5   10 1  
