#      Rotatable Fragment
#      Build by yxyuan
#
# Name:          frag5-672-24/41815
# Creation time: Sat Jun  5 12:53:03 2010


@<TRIPOS>MOLECULE
frag5-672-24/41815
   30    32     1     1     1
SMALL
USER_CHARGES


@<TRIPOS>ATOM
      1 F1         -1.1214    2.6617   -3.5119 F          1 <1>        0.000
      2 C1         -2.0828    1.8424   -3.9334 C.ar       1 <1>        0.000
      3 C2         -2.1144    0.5154   -3.4954 C.ar       1 <1>        0.000
      4 C3         -3.1391   -0.3361   -3.9168 C.ar       1 <1>        0.000
      5 C4         -4.1395    0.1455   -4.7636 C.ar       1 <1>        0.000
      6 C5         -4.0882    1.4618   -5.2285 C.ar       1 <1>        0.000
      7 C6         -3.0526    2.3053   -4.8226 C.ar       1 <1>        0.000
      8 C7         -1.0400    0.0269   -2.5706 C.2        1 <1>        0.000
      9 C14         0.0013    2.8321    0.5464 C.ar       1 <1>        0.000
     10 N1         -0.5604   -1.1380   -2.7874 N.2        1 <1>        0.000
     11 C8          0.4484   -1.5500   -1.8623 C.3        1 <1>        0.000
     12 C9          1.7058   -0.7719   -2.1549 C.2        1 <1>        0.000
     13 N2          1.7956    0.5084   -1.7249 N.am       1 <1>        0.000
     14 C10         0.7332    1.1871   -1.0883 C.ar       1 <1>        0.000
     15 C11        -0.6076    0.9474   -1.4395 C.ar       1 <1>        0.000
     16 C12        -1.6204    1.6073   -0.7425 C.ar       1 <1>        0.000
     17 C13        -1.3376    2.5674    0.2371 C.ar       1 <1>        0.000
     18 C15         1.0181    2.1364   -0.0988 C.ar       1 <1>        0.000
     19 Cl1        -2.6196    3.4151    1.0520 Cl         1 <1>        0.000
     20 O1          2.6006   -1.3185   -2.7815 O.2        1 <1>        0.000
     21 H          -3.1575   -1.3743   -3.5851 H.spc      1 <1>        0.000
     22 H          -4.9609   -0.5060   -5.0620 H.spc      1 <1>        0.000
     23 H          -4.8567    1.8302   -5.9081 H.spc      1 <1>        0.000
     24 H          -3.0018    3.3263   -5.2008 H.spc      1 <1>        0.000
     25 H           0.2478    3.5853    1.2947 H.spc      1 <1>        0.000
     26 H           0.6373   -2.6184   -1.9667 H.spc      1 <1>        0.000
     27 H           0.1195   -1.3584   -0.8409 H.spc      1 <1>        0.000
     28 H           2.6736    1.0075   -1.8676 H.spc      1 <1>        0.000
     29 H          -2.6602    1.3690   -0.9666 H.spc      1 <1>        0.000
     30 H           2.0557    2.3336    0.1706 H.spc      1 <1>        0.000
@<TRIPOS>BOND
     1    3    8 1  
     2    3    4 ar 
     3    4    5 ar 
     4   16   17 ar 
     5   14   18 ar 
     6    5    6 ar 
     7   17    9 ar 
     8    6    7 ar 
     9   10   11 1  
    10    1    2 1  
    11   11   12 1  
    12   15   16 ar 
    13   12   20 2  
    14    8   15 1  
    15    8   10 2  
    16   12   13 am 
    17   17   19 1  
    18   14   15 ar 
    19   13   14 1  
    20    9   18 ar 
    21    2    7 ar 
    22    2    3 ar 
    23    4   21 1  
    24    5   22 1  
    25    6   23 1  
    26    7   24 1  
    27    9   25 1  
    28   11   26 1  
    29   11   27 1  
    30   13   28 1  
    31   16   29 1  
    32   18   30 1  
# Name:          frag5-672-24/41815
# Creation time: Sat Jun  5 12:53:03 2010


@<TRIPOS>MOLECULE
frag5-672-24/41815
   30    32     1     1     1
SMALL
USER_CHARGES


@<TRIPOS>ATOM
      1 F1         -3.5750   -0.7424   -2.8020 F          1 <1>        0.000
      2 C1         -3.2471    0.2678   -3.6047 C.ar       1 <1>        0.000
      3 C2         -1.9522    0.7911   -3.5785 C.ar       1 <1>        0.000
      4 C3         -1.6012    1.8352   -4.4394 C.ar       1 <1>        0.000
      5 C4         -2.5429    2.3417   -5.3378 C.ar       1 <1>        0.000
      6 C5         -3.8470    1.8410   -5.3400 C.ar       1 <1>        0.000
      7 C6         -4.2012    0.8131   -4.4644 C.ar       1 <1>        0.000
      8 C7         -0.9523    0.2221   -2.6174 C.2        1 <1>        0.000
      9 C14         0.1902    2.9420    0.5394 C.ar       1 <1>        0.000
     10 N1         -0.5555   -0.9760   -2.8192 N.2        1 <1>        0.000
     11 C8          0.3849   -1.4638   -1.8598 C.3        1 <1>        0.000
     12 C9          1.7079   -0.7846   -2.1061 C.2        1 <1>        0.000
     13 N2          1.8802    0.4857   -1.6710 N.am       1 <1>        0.000
     14 C10         0.8513    1.2442   -1.0712 C.ar       1 <1>        0.000
     15 C11        -0.4911    1.1080   -1.4704 C.ar       1 <1>        0.000
     16 C12        -1.4738    1.8441   -0.8084 C.ar       1 <1>        0.000
     17 C13        -1.1535    2.7806    0.1828 C.ar       1 <1>        0.000
     18 C15         1.1728    2.1699   -0.0706 C.ar       1 <1>        0.000
     19 Cl1        -2.3946    3.7247    0.9532 Cl         1 <1>        0.000
     20 O1          2.5798   -1.3987   -2.7017 O.2        1 <1>        0.000
     21 H          -0.5949    2.2530   -4.4095 H.spc      1 <1>        0.000
     22 H          -2.2602    3.1281   -6.0376 H.spc      1 <1>        0.000
     23 H          -4.5879    2.2528   -6.0253 H.spc      1 <1>        0.000
     24 H          -5.2239    0.4362   -4.4523 H.spc      1 <1>        0.000
     25 H           0.4672    3.6748    1.2972 H.spc      1 <1>        0.000
     26 H           0.4947   -2.5437   -1.9595 H.spc      1 <1>        0.000
     27 H           0.0356   -1.2471   -0.8503 H.spc      1 <1>        0.000
     28 H           2.7983    0.9160   -1.7819 H.spc      1 <1>        0.000
     29 H          -2.5202    1.6861   -1.0697 H.spc      1 <1>        0.000
     30 H           2.2123    2.2873    0.2356 H.spc      1 <1>        0.000
@<TRIPOS>BOND
     1    3    8 1  
     2    3    4 ar 
     3    4    5 ar 
     4   16   17 ar 
     5   14   18 ar 
     6    5    6 ar 
     7   17    9 ar 
     8    6    7 ar 
     9   10   11 1  
    10    1    2 1  
    11   11   12 1  
    12   15   16 ar 
    13   12   20 2  
    14    8   15 1  
    15    8   10 2  
    16   12   13 am 
    17   17   19 1  
    18   14   15 ar 
    19   13   14 1  
    20    9   18 ar 
    21    2    7 ar 
    22    2    3 ar 
    23    4   21 1  
    24    5   22 1  
    25    6   23 1  
    26    7   24 1  
    27    9   25 1  
    28   11   26 1  
    29   11   27 1  
    30   13   28 1  
    31   16   29 1  
    32   18   30 1  
# Name:          frag5-672-24/41815
# Creation time: Sat Jun  5 12:53:03 2010


@<TRIPOS>MOLECULE
frag5-672-24/41815
   30    32     1     1     1
SMALL
USER_CHARGES


@<TRIPOS>ATOM
      1 F1         -0.5062    1.5133   -4.9531 F          1 <1>        0.000
      2 C1         -1.7838    1.3153   -4.6359 C.ar       1 <1>        0.000
      3 C2         -2.1170    0.6441   -3.4569 C.ar       1 <1>        0.000
      4 C3         -3.4591    0.4610   -3.1109 C.ar       1 <1>        0.000
      5 C4         -4.4653    0.9638   -3.9378 C.ar       1 <1>        0.000
      6 C5         -4.1323    1.6041   -5.1338 C.ar       1 <1>        0.000
      7 C6         -2.7921    1.7682   -5.4877 C.ar       1 <1>        0.000
      8 C7         -1.0206    0.1310   -2.5732 C.2        1 <1>        0.000
      9 C14        -0.1684    2.6680    0.8187 C.ar       1 <1>        0.000
     10 N1         -0.4694   -0.9754   -2.8985 N.2        1 <1>        0.000
     11 C8          0.5571   -1.4172   -2.0081 C.3        1 <1>        0.000
     12 C9          1.7669   -0.5400   -2.2066 C.2        1 <1>        0.000
     13 N2          1.7759    0.6943   -1.6503 N.am       1 <1>        0.000
     14 C10         0.6713    1.2412   -0.9624 C.ar       1 <1>        0.000
     15 C11        -0.6512    0.9583   -1.3516 C.ar       1 <1>        0.000
     16 C12        -1.7050    1.4837   -0.6040 C.ar       1 <1>        0.000
     17 C13        -1.4875    2.3563    0.4697 C.ar       1 <1>        0.000
     18 C15         0.8922    2.1024    0.1198 C.ar       1 <1>        0.000
     19 Cl1        -2.8227    3.0400    1.3493 Cl         1 <1>        0.000
     20 O1          2.6967   -0.9668   -2.8739 O.2        1 <1>        0.000
     21 H          -3.7194   -0.0733   -2.1972 H.spc      1 <1>        0.000
     22 H          -5.5112    0.8567   -3.6501 H.spc      1 <1>        0.000
     23 H          -4.9189    1.9755   -5.7906 H.spc      1 <1>        0.000
     24 H          -2.5329    2.2505   -6.4302 H.spc      1 <1>        0.000
     25 H           0.0280    3.3562    1.6408 H.spc      1 <1>        0.000
     26 H           0.8109   -2.4565   -2.2169 H.spc      1 <1>        0.000
     27 H           0.2116   -1.3492   -0.9766 H.spc      1 <1>        0.000
     28 H           2.6228    1.2568   -1.7323 H.spc      1 <1>        0.000
     29 H          -2.7271    1.2073   -0.8628 H.spc      1 <1>        0.000
     30 H           1.9144    2.3335    0.4196 H.spc      1 <1>        0.000
@<TRIPOS>BOND
     1    3    8 1  
     2    3    4 ar 
     3    4    5 ar 
     4   16   17 ar 
     5   14   18 ar 
     6    5    6 ar 
     7   17    9 ar 
     8    6    7 ar 
     9   10   11 1  
    10    1    2 1  
    11   11   12 1  
    12   15   16 ar 
    13   12   20 2  
    14    8   15 1  
    15    8   10 2  
    16   12   13 am 
    17   17   19 1  
    18   14   15 ar 
    19   13   14 1  
    20    9   18 ar 
    21    2    7 ar 
    22    2    3 ar 
    23    4   21 1  
    24    5   22 1  
    25    6   23 1  
    26    7   24 1  
    27    9   25 1  
    28   11   26 1  
    29   11   27 1  
    30   13   28 1  
    31   16   29 1  
    32   18   30 1  
# Name:          frag5-672-24/41815 -- energy: -3.054134
# Creation time: Sat Jun  5 12:53:03 2010


@<TRIPOS>MOLECULE
frag5-672-24/41815 -- energy: -3.054134
   30    32     1     1     1
SMALL
USER_CHARGES


@<TRIPOS>ATOM
      1 F1         -1.1214    2.6617   -3.5119 F          1 <1>        0.000
      2 C1         -2.0828    1.8424   -3.9334 C.ar       1 <1>        0.000
      3 C2         -2.1144    0.5154   -3.4954 C.ar       1 <1>        0.000
      4 C3         -3.1391   -0.3361   -3.9168 C.ar       1 <1>        0.000
      5 C4         -4.1395    0.1455   -4.7636 C.ar       1 <1>        0.000
      6 C5         -4.0882    1.4618   -5.2285 C.ar       1 <1>        0.000
      7 C6         -3.0526    2.3053   -4.8226 C.ar       1 <1>        0.000
      8 C7         -1.0400    0.0269   -2.5706 C.2        1 <1>        0.000
      9 C14         0.0013    2.8321    0.5464 C.ar       1 <1>        0.000
     10 N1         -0.5604   -1.1380   -2.7874 N.2        1 <1>        0.000
     11 C8          0.4484   -1.5500   -1.8623 C.3        1 <1>        0.000
     12 C9          1.7058   -0.7719   -2.1549 C.2        1 <1>        0.000
     13 N2          1.7956    0.5084   -1.7249 N.am       1 <1>        0.000
     14 C10         0.7332    1.1871   -1.0883 C.ar       1 <1>        0.000
     15 C11        -0.6076    0.9474   -1.4395 C.ar       1 <1>        0.000
     16 C12        -1.6204    1.6073   -0.7425 C.ar       1 <1>        0.000
     17 C13        -1.3376    2.5674    0.2371 C.ar       1 <1>        0.000
     18 C15         1.0181    2.1364   -0.0988 C.ar       1 <1>        0.000
     19 Cl1        -2.6196    3.4151    1.0520 Cl         1 <1>        0.000
     20 O1          2.6006   -1.3185   -2.7815 O.2        1 <1>        0.000
     21 H          -3.1575   -1.3743   -3.5851 H.spc      1 <1>        0.000
     22 H          -4.9609   -0.5060   -5.0620 H.spc      1 <1>        0.000
     23 H          -4.8567    1.8302   -5.9081 H.spc      1 <1>        0.000
     24 H          -3.0018    3.3263   -5.2008 H.spc      1 <1>        0.000
     25 H           0.2478    3.5853    1.2947 H.spc      1 <1>        0.000
     26 H           0.6373   -2.6184   -1.9667 H.spc      1 <1>        0.000
     27 H           0.1195   -1.3584   -0.8409 H.spc      1 <1>        0.000
     28 H           2.6736    1.0075   -1.8676 H.spc      1 <1>        0.000
     29 H          -2.6602    1.3690   -0.9666 H.spc      1 <1>        0.000
     30 H           2.0557    2.3336    0.1706 H.spc      1 <1>        0.000
@<TRIPOS>BOND
     1    3    8 1  
     2    3    4 ar 
     3    4    5 ar 
     4   16   17 ar 
     5   14   18 ar 
     6    5    6 ar 
     7   17    9 ar 
     8    6    7 ar 
     9   10   11 1  
    10    1    2 1  
    11   11   12 1  
    12   15   16 ar 
    13   12   20 2  
    14    8   15 1  
    15    8   10 2  
    16   12   13 am 
    17   17   19 1  
    18   14   15 ar 
    19   13   14 1  
    20    9   18 ar 
    21    2    7 ar 
    22    2    3 ar 
    23    4   21 1  
    24    5   22 1  
    25    6   23 1  
    26    7   24 1  
    27    9   25 1  
    28   11   26 1  
    29   11   27 1  
    30   13   28 1  
    31   16   29 1  
    32   18   30 1  
# Name:          frag5-672-24/41815 -- energy: -3.127903
# Creation time: Sat Jun  5 12:53:03 2010


@<TRIPOS>MOLECULE
frag5-672-24/41815 -- energy: -3.127903
   30    32     1     1     1
SMALL
USER_CHARGES


@<TRIPOS>ATOM
      1 F1         -3.5750   -0.7424   -2.8020 F          1 <1>        0.000
      2 C1         -3.2471    0.2678   -3.6047 C.ar       1 <1>        0.000
      3 C2         -1.9522    0.7911   -3.5785 C.ar       1 <1>        0.000
      4 C3         -1.6012    1.8352   -4.4394 C.ar       1 <1>        0.000
      5 C4         -2.5429    2.3417   -5.3378 C.ar       1 <1>        0.000
      6 C5         -3.8470    1.8410   -5.3400 C.ar       1 <1>        0.000
      7 C6         -4.2012    0.8131   -4.4644 C.ar       1 <1>        0.000
      8 C7         -0.9523    0.2221   -2.6174 C.2        1 <1>        0.000
      9 C14         0.1902    2.9420    0.5394 C.ar       1 <1>        0.000
     10 N1         -0.5555   -0.9760   -2.8192 N.2        1 <1>        0.000
     11 C8          0.3849   -1.4638   -1.8598 C.3        1 <1>        0.000
     12 C9          1.7079   -0.7846   -2.1061 C.2        1 <1>        0.000
     13 N2          1.8802    0.4857   -1.6710 N.am       1 <1>        0.000
     14 C10         0.8513    1.2442   -1.0712 C.ar       1 <1>        0.000
     15 C11        -0.4911    1.1080   -1.4704 C.ar       1 <1>        0.000
     16 C12        -1.4738    1.8441   -0.8084 C.ar       1 <1>        0.000
     17 C13        -1.1535    2.7806    0.1828 C.ar       1 <1>        0.000
     18 C15         1.1728    2.1699   -0.0706 C.ar       1 <1>        0.000
     19 Cl1        -2.3946    3.7247    0.9532 Cl         1 <1>        0.000
     20 O1          2.5798   -1.3987   -2.7017 O.2        1 <1>        0.000
     21 H          -0.5949    2.2530   -4.4095 H.spc      1 <1>        0.000
     22 H          -2.2602    3.1281   -6.0376 H.spc      1 <1>        0.000
     23 H          -4.5879    2.2528   -6.0253 H.spc      1 <1>        0.000
     24 H          -5.2239    0.4362   -4.4523 H.spc      1 <1>        0.000
     25 H           0.4672    3.6748    1.2972 H.spc      1 <1>        0.000
     26 H           0.4947   -2.5437   -1.9595 H.spc      1 <1>        0.000
     27 H           0.0356   -1.2471   -0.8503 H.spc      1 <1>        0.000
     28 H           2.7983    0.9160   -1.7819 H.spc      1 <1>        0.000
     29 H          -2.5202    1.6861   -1.0697 H.spc      1 <1>        0.000
     30 H           2.2123    2.2873    0.2356 H.spc      1 <1>        0.000
@<TRIPOS>BOND
     1    3    8 1  
     2    3    4 ar 
     3    4    5 ar 
     4   16   17 ar 
     5   14   18 ar 
     6    5    6 ar 
     7   17    9 ar 
     8    6    7 ar 
     9   10   11 1  
    10    1    2 1  
    11   11   12 1  
    12   15   16 ar 
    13   12   20 2  
    14    8   15 1  
    15    8   10 2  
    16   12   13 am 
    17   17   19 1  
    18   14   15 ar 
    19   13   14 1  
    20    9   18 ar 
    21    2    7 ar 
    22    2    3 ar 
    23    4   21 1  
    24    5   22 1  
    25    6   23 1  
    26    7   24 1  
    27    9   25 1  
    28   11   26 1  
    29   11   27 1  
    30   13   28 1  
    31   16   29 1  
    32   18   30 1  
# Name:          frag5-672-24/41815 -- energy: -2.959791
# Creation time: Sat Jun  5 12:53:03 2010


@<TRIPOS>MOLECULE
frag5-672-24/41815 -- energy: -2.959791
   30    32     1     1     1
SMALL
USER_CHARGES


@<TRIPOS>ATOM
      1 F1         -0.5062    1.5133   -4.9531 F          1 <1>        0.000
      2 C1         -1.7838    1.3153   -4.6359 C.ar       1 <1>        0.000
      3 C2         -2.1170    0.6441   -3.4569 C.ar       1 <1>        0.000
      4 C3         -3.4591    0.4610   -3.1109 C.ar       1 <1>        0.000
      5 C4         -4.4653    0.9638   -3.9378 C.ar       1 <1>        0.000
      6 C5         -4.1323    1.6041   -5.1338 C.ar       1 <1>        0.000
      7 C6         -2.7921    1.7682   -5.4877 C.ar       1 <1>        0.000
      8 C7         -1.0206    0.1310   -2.5732 C.2        1 <1>        0.000
      9 C14        -0.1684    2.6680    0.8187 C.ar       1 <1>        0.000
     10 N1         -0.4694   -0.9754   -2.8985 N.2        1 <1>        0.000
     11 C8          0.5571   -1.4172   -2.0081 C.3        1 <1>        0.000
     12 C9          1.7669   -0.5400   -2.2066 C.2        1 <1>        0.000
     13 N2          1.7759    0.6943   -1.6503 N.am       1 <1>        0.000
     14 C10         0.6713    1.2412   -0.9624 C.ar       1 <1>        0.000
     15 C11        -0.6512    0.9583   -1.3516 C.ar       1 <1>        0.000
     16 C12        -1.7050    1.4837   -0.6040 C.ar       1 <1>        0.000
     17 C13        -1.4875    2.3563    0.4697 C.ar       1 <1>        0.000
     18 C15         0.8922    2.1024    0.1198 C.ar       1 <1>        0.000
     19 Cl1        -2.8227    3.0400    1.3493 Cl         1 <1>        0.000
     20 O1          2.6967   -0.9668   -2.8739 O.2        1 <1>        0.000
     21 H          -3.7194   -0.0733   -2.1972 H.spc      1 <1>        0.000
     22 H          -5.5112    0.8567   -3.6501 H.spc      1 <1>        0.000
     23 H          -4.9189    1.9755   -5.7906 H.spc      1 <1>        0.000
     24 H          -2.5329    2.2505   -6.4302 H.spc      1 <1>        0.000
     25 H           0.0280    3.3562    1.6408 H.spc      1 <1>        0.000
     26 H           0.8109   -2.4565   -2.2169 H.spc      1 <1>        0.000
     27 H           0.2116   -1.3492   -0.9766 H.spc      1 <1>        0.000
     28 H           2.6228    1.2568   -1.7323 H.spc      1 <1>        0.000
     29 H          -2.7271    1.2073   -0.8628 H.spc      1 <1>        0.000
     30 H           1.9144    2.3335    0.4196 H.spc      1 <1>        0.000
@<TRIPOS>BOND
     1    3    8 1  
     2    3    4 ar 
     3    4    5 ar 
     4   16   17 ar 
     5   14   18 ar 
     6    5    6 ar 
     7   17    9 ar 
     8    6    7 ar 
     9   10   11 1  
    10    1    2 1  
    11   11   12 1  
    12   15   16 ar 
    13   12   20 2  
    14    8   15 1  
    15    8   10 2  
    16   12   13 am 
    17   17   19 1  
    18   14   15 ar 
    19   13   14 1  
    20    9   18 ar 
    21    2    7 ar 
    22    2    3 ar 
    23    4   21 1  
    24    5   22 1  
    25    6   23 1  
    26    7   24 1  
    27    9   25 1  
    28   11   26 1  
    29   11   27 1  
    30   13   28 1  
    31   16   29 1  
    32   18   30 1  
