#      Rotatable Fragment
#      Build by yxyuan
#
# Name:          frag4-481-33/48856
# Creation time: Sat Jun  5 12:52:49 2010


@<TRIPOS>MOLECULE
frag4-481-33/48856
   24    25     1     1     1
SMALL
USER_CHARGES


@<TRIPOS>ATOM
      1 N1          2.5346    3.6832   -2.8139 N.3        1 <1>        0.000
      2 C1          3.3899    4.8106   -3.1951 C.3        1 <1>        0.000
      3 C2          4.8965    4.5551   -3.3146 C.3        1 <1>        0.000
      4 C3          5.5951    5.8301   -3.8336 C.3        1 <1>        0.000
      5 C4          4.9795    6.3384   -5.1583 C.3        1 <1>        0.000
      6 C5          3.4533    6.5352   -5.0504 C.3        1 <1>        0.000
      7 C6          2.8143    5.2263   -4.5614 C.3        1 <1>        0.000
      8 C7          1.3168    5.1930   -4.2641 C.3        1 <1>        0.000
      9 C8          1.2069    3.9053   -3.4139 C.3        1 <1>        0.000
     10 H           2.4596    3.6220   -1.7985 H.spc      1 <1>        0.000
     11 H           3.3613    5.5587   -2.4029 H.spc      1 <1>        0.000
     12 H           5.0719    3.7355   -4.0114 H.spc      1 <1>        0.000
     13 H           5.2992    4.2928   -2.3363 H.spc      1 <1>        0.000
     14 H           5.4747    6.6112   -3.0830 H.spc      1 <1>        0.000
     15 H           6.6426    5.5910   -4.0171 H.spc      1 <1>        0.000
     16 H           5.1728    5.5942   -5.9309 H.spc      1 <1>        0.000
     17 H           5.4308    7.3018   -5.3955 H.spc      1 <1>        0.000
     18 H           3.2348    7.3371   -4.3452 H.spc      1 <1>        0.000
     19 H           3.0468    6.8009   -6.0262 H.spc      1 <1>        0.000
     20 H           3.0297    4.5944   -5.4230 H.spc      1 <1>        0.000
     21 H           0.6922    5.1837   -5.1573 H.spc      1 <1>        0.000
     22 H           0.9500    6.0858   -3.7577 H.spc      1 <1>        0.000
     23 H           0.9106    3.0561   -4.0296 H.spc      1 <1>        0.000
     24 H           0.4438    4.0115   -2.6429 H.spc      1 <1>        0.000
@<TRIPOS>BOND
     1    1    2 1  
     2    2    3 1  
     3    2    7 1  
     4    4    5 1  
     5    6    7 1  
     6    7    8 1  
     7    8    9 1  
     8    1    9 1  
     9    3    4 1  
    10    5    6 1  
    11    1   10 1  
    12    2   11 1  
    13    3   12 1  
    14    3   13 1  
    15    4   14 1  
    16    4   15 1  
    17    5   16 1  
    18    5   17 1  
    19    6   18 1  
    20    6   19 1  
    21    7   20 1  
    22    8   21 1  
    23    8   22 1  
    24    9   23 1  
    25    9   24 1  
# Name:          frag4-481-33/48856 -- energy: -2.946554
# Creation time: Sat Jun  5 12:52:49 2010


@<TRIPOS>MOLECULE
frag4-481-33/48856 -- energy: -2.946554
   24    25     1     1     1
SMALL
USER_CHARGES


@<TRIPOS>ATOM
      1 N1          2.5346    3.6832   -2.8139 N.3        1 <1>        0.000
      2 C1          3.3899    4.8106   -3.1951 C.3        1 <1>        0.000
      3 C2          4.8965    4.5551   -3.3146 C.3        1 <1>        0.000
      4 C3          5.5951    5.8301   -3.8336 C.3        1 <1>        0.000
      5 C4          4.9795    6.3384   -5.1583 C.3        1 <1>        0.000
      6 C5          3.4533    6.5352   -5.0504 C.3        1 <1>        0.000
      7 C6          2.8143    5.2263   -4.5614 C.3        1 <1>        0.000
      8 C7          1.3168    5.1930   -4.2641 C.3        1 <1>        0.000
      9 C8          1.2069    3.9053   -3.4139 C.3        1 <1>        0.000
     10 H           2.4596    3.6220   -1.7985 H.spc      1 <1>        0.000
     11 H           3.3613    5.5587   -2.4029 H.spc      1 <1>        0.000
     12 H           5.0719    3.7355   -4.0114 H.spc      1 <1>        0.000
     13 H           5.2992    4.2928   -2.3363 H.spc      1 <1>        0.000
     14 H           5.4747    6.6112   -3.0830 H.spc      1 <1>        0.000
     15 H           6.6426    5.5910   -4.0171 H.spc      1 <1>        0.000
     16 H           5.1728    5.5942   -5.9309 H.spc      1 <1>        0.000
     17 H           5.4308    7.3018   -5.3955 H.spc      1 <1>        0.000
     18 H           3.2348    7.3371   -4.3452 H.spc      1 <1>        0.000
     19 H           3.0468    6.8009   -6.0262 H.spc      1 <1>        0.000
     20 H           3.0297    4.5944   -5.4230 H.spc      1 <1>        0.000
     21 H           0.6922    5.1837   -5.1573 H.spc      1 <1>        0.000
     22 H           0.9500    6.0858   -3.7577 H.spc      1 <1>        0.000
     23 H           0.9106    3.0561   -4.0296 H.spc      1 <1>        0.000
     24 H           0.4438    4.0115   -2.6429 H.spc      1 <1>        0.000
@<TRIPOS>BOND
     1    1    2 1  
     2    2    3 1  
     3    2    7 1  
     4    4    5 1  
     5    6    7 1  
     6    7    8 1  
     7    8    9 1  
     8    1    9 1  
     9    3    4 1  
    10    5    6 1  
    11    1   10 1  
    12    2   11 1  
    13    3   12 1  
    14    3   13 1  
    15    4   14 1  
    16    4   15 1  
    17    5   16 1  
    18    5   17 1  
    19    6   18 1  
    20    6   19 1  
    21    7   20 1  
    22    8   21 1  
    23    8   22 1  
    24    9   23 1  
    25    9   24 1  
