#      Rotatable Fragment
#      Build by yxyuan
#
# Name:          frag4-468-35/48856
# Creation time: Sat Jun  5 12:52:48 2010


@<TRIPOS>MOLECULE
frag4-468-35/48856
    7     7     1     1     1
SMALL
USER_CHARGES


@<TRIPOS>ATOM
      1 N1          0.8163   -0.4079    0.1954 N.ar       1 <1>        0.000
      2 N2         -0.3180   -1.2093   -0.0457 N.ar       1 <1>        0.000
      3 C2         -1.2280   -0.3237   -0.2696 C.ar       1 <1>        0.000
      4 O1         -0.7080    0.8924   -0.1119 O.3        1 <1>        0.000
      5 C3          0.5858    0.8095    0.1525 C.ar       1 <1>        0.000
      6 H          -2.2609   -0.5368   -0.5448 H.spc      1 <1>        0.000
      7 H           1.2907    1.6278    0.2996 H.spc      1 <1>        0.000
@<TRIPOS>BOND
     1    1    2 ar 
     2    1    5 ar 
     3    2    3 ar 
     4    3    4 ar 
     5    4    5 ar 
     6    3    6 1  
     7    5    7 1  
# Name:          frag4-468-35/48856 -- energy: -0.093871
# Creation time: Sat Jun  5 12:52:48 2010


@<TRIPOS>MOLECULE
frag4-468-35/48856 -- energy: -0.093871
    7     7     1     1     1
SMALL
USER_CHARGES


@<TRIPOS>ATOM
      1 N1          0.8163   -0.4079    0.1954 N.ar       1 <1>        0.000
      2 N2         -0.3180   -1.2093   -0.0457 N.ar       1 <1>        0.000
      3 C2         -1.2280   -0.3237   -0.2696 C.ar       1 <1>        0.000
      4 O1         -0.7080    0.8924   -0.1119 O.3        1 <1>        0.000
      5 C3          0.5858    0.8095    0.1525 C.ar       1 <1>        0.000
      6 H          -2.2609   -0.5368   -0.5448 H.spc      1 <1>        0.000
      7 H           1.2907    1.6278    0.2996 H.spc      1 <1>        0.000
@<TRIPOS>BOND
     1    1    2 ar 
     2    1    5 ar 
     3    2    3 ar 
     4    3    4 ar 
     5    4    5 ar 
     6    3    6 1  
     7    5    7 1  
