#      Rotatable Fragment
#      Build by yxyuan
#
# Name:          frag3-100-315/31924
# Creation time: Sat Jun  5 12:51:59 2010


@<TRIPOS>MOLECULE
frag3-100-315/31924
    8     7     1     1     1
SMALL
USER_CHARGES


@<TRIPOS>ATOM
      1 P1         -4.6083   -3.0158   -0.2734 P.3        1 <1>        0.000
      2 O1         -5.6116   -3.8096    0.3800 O.2        1 <1>        0.000
      3 O2         -4.5026   -1.5970    0.3810 O.3        1 <1>        0.000
      4 O14        -3.2155   -3.7643   -0.0581 O.3        1 <1>        0.000
      5 O15        -4.8664   -2.8178   -1.8129 O.3        1 <1>        0.000
      6 H          -3.8273   -1.0865   -0.0717 H.spc      1 <1>        0.000
      7 H          -2.5152   -3.2630   -0.4822 H.spc      1 <1>        0.000
      8 H          -4.1639   -2.2815   -2.1876 H.spc      1 <1>        0.000
@<TRIPOS>BOND
     1    1    2 2  
     2    1    3 1  
     3    1    4 1  
     4    1    5 1  
     5    3    6 1  
     6    4    7 1  
     7    5    8 1  
# Name:          frag3-100-315/31924 -- energy: -0.380122
# Creation time: Sat Jun  5 12:51:59 2010


@<TRIPOS>MOLECULE
frag3-100-315/31924 -- energy: -0.380122
    8     7     1     1     1
SMALL
USER_CHARGES


@<TRIPOS>ATOM
      1 P1         -4.6083   -3.0158   -0.2734 P.3        1 <1>        0.000
      2 O1         -5.6116   -3.8096    0.3800 O.2        1 <1>        0.000
      3 O2         -4.5026   -1.5970    0.3810 O.3        1 <1>        0.000
      4 O14        -3.2155   -3.7643   -0.0581 O.3        1 <1>        0.000
      5 O15        -4.8664   -2.8178   -1.8129 O.3        1 <1>        0.000
      6 H          -3.8273   -1.0865   -0.0717 H.spc      1 <1>        0.000
      7 H          -2.5152   -3.2630   -0.4822 H.spc      1 <1>        0.000
      8 H          -4.1639   -2.2815   -2.1876 H.spc      1 <1>        0.000
@<TRIPOS>BOND
     1    1    2 2  
     2    1    3 1  
     3    1    4 1  
     4    1    5 1  
     5    3    6 1  
     6    4    7 1  
     7    5    8 1  
