#      Rotatable Fragment
#      Build by yxyuan
#
# Name:          frag5-665-24/41815
# Creation time: Sat Jun  5 12:53:02 2010


@<TRIPOS>MOLECULE
frag5-665-24/41815
   25    26     1     1     1
SMALL
USER_CHARGES


@<TRIPOS>ATOM
      1 N1         -1.0926   -0.6292    0.3048 N.4        1 <1>        0.000
      2 C1         -1.8471    0.6351    0.1086 C.3        1 <1>        0.000
      3 C2         -3.1537    0.3729   -0.6706 C.3        1 <1>        0.000
      4 N2         -3.8677   -0.6704    0.0466 N.pl3      1 <1>        0.000
      5 C3         -3.2186   -1.9514    0.2721 C.3        1 <1>        0.000
      6 C4         -1.9072   -1.6392    1.0272 C.3        1 <1>        0.000
      7 C5         -5.0480   -0.3782    0.6306 C.ar       1 <1>        0.000
      8 N3         -5.9154    0.4768    0.0458 N.ar       1 <1>        0.000
      9 C6         -7.0911    0.7844    0.6338 C.ar       1 <1>        0.000
     10 C7         -7.4567    0.1259    1.8098 C.ar       1 <1>        0.000
     11 C8         -6.5602   -0.7876    2.3754 C.ar       1 <1>        0.000
     12 N4         -5.3509   -0.9618    1.8104 N.ar       1 <1>        0.000
     13 H          -0.2605   -0.4274    0.8591 H.spc      1 <1>        0.000
     14 H          -0.8471   -1.0056   -0.6109 H.spc      1 <1>        0.000
     15 H          -1.2298    1.3300   -0.4607 H.spc      1 <1>        0.000
     16 H          -2.0955    1.0531    1.0841 H.spc      1 <1>        0.000
     17 H          -3.7549    1.2798   -0.7357 H.spc      1 <1>        0.000
     18 H          -2.9396    0.0633   -1.6935 H.spc      1 <1>        0.000
     19 H          -3.8565   -2.6202    0.8499 H.spc      1 <1>        0.000
     20 H          -3.0191   -2.4633   -0.6693 H.spc      1 <1>        0.000
     21 H          -2.1602   -1.2410    2.0098 H.spc      1 <1>        0.000
     22 H          -1.3270   -2.5584    1.1075 H.spc      1 <1>        0.000
     23 H          -7.7467    1.5372    0.1962 H.spc      1 <1>        0.000
     24 H          -8.4217    0.3198    2.2781 H.spc      1 <1>        0.000
     25 H          -6.8384   -1.3527    3.2650 H.spc      1 <1>        0.000
@<TRIPOS>BOND
     1    1    2 1  
     2    1    6 1  
     3    5    6 1  
     4    3    4 1  
     5    7   12 ar 
     6    4    7 1  
     7   11   12 ar 
     8    7    8 ar 
     9    9   10 ar 
    10    2    3 1  
    11   10   11 ar 
    12    8    9 ar 
    13    4    5 1  
    14    1   13 1  
    15    1   14 1  
    16    2   15 1  
    17    2   16 1  
    18    3   17 1  
    19    3   18 1  
    20    5   19 1  
    21    5   20 1  
    22    6   21 1  
    23    6   22 1  
    24    9   23 1  
    25   10   24 1  
    26   11   25 1  
# Name:          frag5-665-24/41815
# Creation time: Sat Jun  5 12:53:02 2010


@<TRIPOS>MOLECULE
frag5-665-24/41815
   25    26     1     1     1
SMALL
USER_CHARGES


@<TRIPOS>ATOM
      1 N1         -1.1259   -0.3519    0.2070 N.4        1 <1>        0.000
      2 C1         -2.0585    0.5955   -0.4557 C.3        1 <1>        0.000
      3 C2         -3.3084   -0.1479   -0.9751 C.3        1 <1>        0.000
      4 N2         -3.8617   -0.8792    0.1533 N.pl3      1 <1>        0.000
      5 C3         -3.0225   -1.8726    0.8031 C.3        1 <1>        0.000
      6 C4         -1.7739   -1.1119    1.3062 C.3        1 <1>        0.000
      7 C5         -5.0526   -0.5245    0.6797 C.ar       1 <1>        0.000
      8 N3         -5.8563   -1.4467    1.2530 N.ar       1 <1>        0.000
      9 C6         -7.0567   -1.0986    1.7649 C.ar       1 <1>        0.000
     10 C7         -7.4190    0.2496    1.7957 C.ar       1 <1>        0.000
     11 C8         -6.5503    1.1921    1.2346 C.ar       1 <1>        0.000
     12 N4         -5.4234    0.7735    0.6278 N.ar       1 <1>        0.000
     13 H          -0.3594    0.1890    0.6074 H.spc      1 <1>        0.000
     14 H          -0.8069   -1.0214   -0.4933 H.spc      1 <1>        0.000
     15 H          -1.5488    1.0620   -1.2987 H.spc      1 <1>        0.000
     16 H          -2.3703    1.3489    0.2676 H.spc      1 <1>        0.000
     17 H          -4.0383    0.5550   -1.3767 H.spc      1 <1>        0.000
     18 H          -3.0460   -0.8273   -1.7860 H.spc      1 <1>        0.000
     19 H          -3.5484   -2.3564    1.6262 H.spc      1 <1>        0.000
     20 H          -2.7475   -2.6699    0.1126 H.spc      1 <1>        0.000
     21 H          -2.0841   -0.4083    2.0787 H.spc      1 <1>        0.000
     22 H          -1.0591   -1.8371    1.6951 H.spc      1 <1>        0.000
     23 H          -7.7344   -1.8608    2.1493 H.spc      1 <1>        0.000
     24 H          -8.3603    0.5617    2.2481 H.spc      1 <1>        0.000
     25 H          -6.7836    2.2555    1.2882 H.spc      1 <1>        0.000
@<TRIPOS>BOND
     1    1    2 1  
     2    1    6 1  
     3    5    6 1  
     4    3    4 1  
     5    7   12 ar 
     6    4    7 1  
     7   11   12 ar 
     8    7    8 ar 
     9    9   10 ar 
    10    2    3 1  
    11   10   11 ar 
    12    8    9 ar 
    13    4    5 1  
    14    1   13 1  
    15    1   14 1  
    16    2   15 1  
    17    2   16 1  
    18    3   17 1  
    19    3   18 1  
    20    5   19 1  
    21    5   20 1  
    22    6   21 1  
    23    6   22 1  
    24    9   23 1  
    25   10   24 1  
    26   11   25 1  
# Name:          frag5-665-24/41815
# Creation time: Sat Jun  5 12:53:02 2010


@<TRIPOS>MOLECULE
frag5-665-24/41815
   25    26     1     1     1
SMALL
USER_CHARGES


@<TRIPOS>ATOM
      1 N1         -1.1361   -0.8095    0.4934 N.4        1 <1>        0.000
      2 C1         -1.8147    0.5046    0.6270 C.3        1 <1>        0.000
      3 C2         -3.0033    0.6437   -0.3439 C.3        1 <1>        0.000
      4 N2         -3.8537   -0.4950   -0.0482 N.pl3      1 <1>        0.000
      5 C3         -3.3390   -1.8375   -0.2495 C.3        1 <1>        0.000
      6 C4         -2.0948   -1.9322    0.6587 C.3        1 <1>        0.000
      7 C5         -5.0327   -0.2904    0.5706 C.ar       1 <1>        0.000
      8 N3         -6.1617   -0.0900   -0.1423 N.ar       1 <1>        0.000
      9 C6         -7.3438    0.1330    0.4678 C.ar       1 <1>        0.000
     10 C7         -7.4153    0.0477    1.8603 C.ar       1 <1>        0.000
     11 C8         -6.2416   -0.2035    2.5798 C.ar       1 <1>        0.000
     12 N4         -5.0725   -0.2936    1.9208 N.ar       1 <1>        0.000
     13 H          -0.4234   -0.8819    1.2195 H.spc      1 <1>        0.000
     14 H          -0.7244   -0.8689   -0.4380 H.spc      1 <1>        0.000
     15 H          -1.0916    1.2862    0.3939 H.spc      1 <1>        0.000
     16 H          -2.1951    0.5892    1.6449 H.spc      1 <1>        0.000
     17 H          -3.5286    1.5896   -0.2117 H.spc      1 <1>        0.000
     18 H          -2.6801    0.6512   -1.3849 H.spc      1 <1>        0.000
     19 H          -4.0807   -2.5953    0.0031 H.spc      1 <1>        0.000
     20 H          -3.0897   -2.0208   -1.2947 H.spc      1 <1>        0.000
     21 H          -2.4460   -1.9071    1.6903 H.spc      1 <1>        0.000
     22 H          -1.5683   -2.8480    0.3898 H.spc      1 <1>        0.000
     23 H          -8.2306    0.3763   -0.1174 H.spc      1 <1>        0.000
     24 H          -8.3669    0.1744    2.3765 H.spc      1 <1>        0.000
     25 H          -6.2745   -0.3248    3.6625 H.spc      1 <1>        0.000
@<TRIPOS>BOND
     1    1    2 1  
     2    1    6 1  
     3    5    6 1  
     4    3    4 1  
     5    7   12 ar 
     6    4    7 1  
     7   11   12 ar 
     8    7    8 ar 
     9    9   10 ar 
    10    2    3 1  
    11   10   11 ar 
    12    8    9 ar 
    13    4    5 1  
    14    1   13 1  
    15    1   14 1  
    16    2   15 1  
    17    2   16 1  
    18    3   17 1  
    19    3   18 1  
    20    5   19 1  
    21    5   20 1  
    22    6   21 1  
    23    6   22 1  
    24    9   23 1  
    25   10   24 1  
    26   11   25 1  
# Name:          frag5-665-24/41815 -- energy: -2.154692
# Creation time: Sat Jun  5 12:53:02 2010


@<TRIPOS>MOLECULE
frag5-665-24/41815 -- energy: -2.154692
   25    26     1     1     1
SMALL
USER_CHARGES


@<TRIPOS>ATOM
      1 N1         -1.0926   -0.6292    0.3048 N.4        1 <1>        0.000
      2 C1         -1.8471    0.6351    0.1086 C.3        1 <1>        0.000
      3 C2         -3.1537    0.3729   -0.6706 C.3        1 <1>        0.000
      4 N2         -3.8677   -0.6704    0.0466 N.pl3      1 <1>        0.000
      5 C3         -3.2186   -1.9514    0.2721 C.3        1 <1>        0.000
      6 C4         -1.9072   -1.6392    1.0272 C.3        1 <1>        0.000
      7 C5         -5.0480   -0.3782    0.6306 C.ar       1 <1>        0.000
      8 N3         -5.9154    0.4768    0.0458 N.ar       1 <1>        0.000
      9 C6         -7.0911    0.7844    0.6338 C.ar       1 <1>        0.000
     10 C7         -7.4567    0.1259    1.8098 C.ar       1 <1>        0.000
     11 C8         -6.5602   -0.7876    2.3754 C.ar       1 <1>        0.000
     12 N4         -5.3509   -0.9618    1.8104 N.ar       1 <1>        0.000
     13 H          -0.2605   -0.4274    0.8591 H.spc      1 <1>        0.000
     14 H          -0.8471   -1.0056   -0.6109 H.spc      1 <1>        0.000
     15 H          -1.2298    1.3300   -0.4607 H.spc      1 <1>        0.000
     16 H          -2.0955    1.0531    1.0841 H.spc      1 <1>        0.000
     17 H          -3.7549    1.2798   -0.7357 H.spc      1 <1>        0.000
     18 H          -2.9396    0.0633   -1.6935 H.spc      1 <1>        0.000
     19 H          -3.8565   -2.6202    0.8499 H.spc      1 <1>        0.000
     20 H          -3.0191   -2.4633   -0.6693 H.spc      1 <1>        0.000
     21 H          -2.1602   -1.2410    2.0098 H.spc      1 <1>        0.000
     22 H          -1.3270   -2.5584    1.1075 H.spc      1 <1>        0.000
     23 H          -7.7467    1.5372    0.1962 H.spc      1 <1>        0.000
     24 H          -8.4217    0.3198    2.2781 H.spc      1 <1>        0.000
     25 H          -6.8384   -1.3527    3.2650 H.spc      1 <1>        0.000
@<TRIPOS>BOND
     1    1    2 1  
     2    1    6 1  
     3    5    6 1  
     4    3    4 1  
     5    7   12 ar 
     6    4    7 1  
     7   11   12 ar 
     8    7    8 ar 
     9    9   10 ar 
    10    2    3 1  
    11   10   11 ar 
    12    8    9 ar 
    13    4    5 1  
    14    1   13 1  
    15    1   14 1  
    16    2   15 1  
    17    2   16 1  
    18    3   17 1  
    19    3   18 1  
    20    5   19 1  
    21    5   20 1  
    22    6   21 1  
    23    6   22 1  
    24    9   23 1  
    25   10   24 1  
    26   11   25 1  
# Name:          frag5-665-24/41815 -- energy: -2.259263
# Creation time: Sat Jun  5 12:53:02 2010


@<TRIPOS>MOLECULE
frag5-665-24/41815 -- energy: -2.259263
   25    26     1     1     1
SMALL
USER_CHARGES


@<TRIPOS>ATOM
      1 N1         -1.1259   -0.3519    0.2070 N.4        1 <1>        0.000
      2 C1         -2.0585    0.5955   -0.4557 C.3        1 <1>        0.000
      3 C2         -3.3084   -0.1479   -0.9751 C.3        1 <1>        0.000
      4 N2         -3.8617   -0.8792    0.1533 N.pl3      1 <1>        0.000
      5 C3         -3.0225   -1.8726    0.8031 C.3        1 <1>        0.000
      6 C4         -1.7739   -1.1119    1.3062 C.3        1 <1>        0.000
      7 C5         -5.0526   -0.5245    0.6797 C.ar       1 <1>        0.000
      8 N3         -5.8563   -1.4467    1.2530 N.ar       1 <1>        0.000
      9 C6         -7.0567   -1.0986    1.7649 C.ar       1 <1>        0.000
     10 C7         -7.4190    0.2496    1.7957 C.ar       1 <1>        0.000
     11 C8         -6.5503    1.1921    1.2346 C.ar       1 <1>        0.000
     12 N4         -5.4234    0.7735    0.6278 N.ar       1 <1>        0.000
     13 H          -0.3594    0.1890    0.6074 H.spc      1 <1>        0.000
     14 H          -0.8069   -1.0214   -0.4933 H.spc      1 <1>        0.000
     15 H          -1.5488    1.0620   -1.2987 H.spc      1 <1>        0.000
     16 H          -2.3703    1.3489    0.2676 H.spc      1 <1>        0.000
     17 H          -4.0383    0.5550   -1.3767 H.spc      1 <1>        0.000
     18 H          -3.0460   -0.8273   -1.7860 H.spc      1 <1>        0.000
     19 H          -3.5484   -2.3564    1.6262 H.spc      1 <1>        0.000
     20 H          -2.7475   -2.6699    0.1126 H.spc      1 <1>        0.000
     21 H          -2.0841   -0.4083    2.0787 H.spc      1 <1>        0.000
     22 H          -1.0591   -1.8371    1.6951 H.spc      1 <1>        0.000
     23 H          -7.7344   -1.8608    2.1493 H.spc      1 <1>        0.000
     24 H          -8.3603    0.5617    2.2481 H.spc      1 <1>        0.000
     25 H          -6.7836    2.2555    1.2882 H.spc      1 <1>        0.000
@<TRIPOS>BOND
     1    1    2 1  
     2    1    6 1  
     3    5    6 1  
     4    3    4 1  
     5    7   12 ar 
     6    4    7 1  
     7   11   12 ar 
     8    7    8 ar 
     9    9   10 ar 
    10    2    3 1  
    11   10   11 ar 
    12    8    9 ar 
    13    4    5 1  
    14    1   13 1  
    15    1   14 1  
    16    2   15 1  
    17    2   16 1  
    18    3   17 1  
    19    3   18 1  
    20    5   19 1  
    21    5   20 1  
    22    6   21 1  
    23    6   22 1  
    24    9   23 1  
    25   10   24 1  
    26   11   25 1  
# Name:          frag5-665-24/41815 -- energy: -2.562329
# Creation time: Sat Jun  5 12:53:02 2010


@<TRIPOS>MOLECULE
frag5-665-24/41815 -- energy: -2.562329
   25    26     1     1     1
SMALL
USER_CHARGES


@<TRIPOS>ATOM
      1 N1         -1.1361   -0.8095    0.4934 N.4        1 <1>        0.000
      2 C1         -1.8147    0.5046    0.6270 C.3        1 <1>        0.000
      3 C2         -3.0033    0.6437   -0.3439 C.3        1 <1>        0.000
      4 N2         -3.8537   -0.4950   -0.0482 N.pl3      1 <1>        0.000
      5 C3         -3.3390   -1.8375   -0.2495 C.3        1 <1>        0.000
      6 C4         -2.0948   -1.9322    0.6587 C.3        1 <1>        0.000
      7 C5         -5.0327   -0.2904    0.5706 C.ar       1 <1>        0.000
      8 N3         -6.1617   -0.0900   -0.1423 N.ar       1 <1>        0.000
      9 C6         -7.3438    0.1330    0.4678 C.ar       1 <1>        0.000
     10 C7         -7.4153    0.0477    1.8603 C.ar       1 <1>        0.000
     11 C8         -6.2416   -0.2035    2.5798 C.ar       1 <1>        0.000
     12 N4         -5.0725   -0.2936    1.9208 N.ar       1 <1>        0.000
     13 H          -0.4234   -0.8819    1.2195 H.spc      1 <1>        0.000
     14 H          -0.7244   -0.8689   -0.4380 H.spc      1 <1>        0.000
     15 H          -1.0916    1.2862    0.3939 H.spc      1 <1>        0.000
     16 H          -2.1951    0.5892    1.6449 H.spc      1 <1>        0.000
     17 H          -3.5286    1.5896   -0.2117 H.spc      1 <1>        0.000
     18 H          -2.6801    0.6512   -1.3849 H.spc      1 <1>        0.000
     19 H          -4.0807   -2.5953    0.0031 H.spc      1 <1>        0.000
     20 H          -3.0897   -2.0208   -1.2947 H.spc      1 <1>        0.000
     21 H          -2.4460   -1.9071    1.6903 H.spc      1 <1>        0.000
     22 H          -1.5683   -2.8480    0.3898 H.spc      1 <1>        0.000
     23 H          -8.2306    0.3763   -0.1174 H.spc      1 <1>        0.000
     24 H          -8.3669    0.1744    2.3765 H.spc      1 <1>        0.000
     25 H          -6.2745   -0.3248    3.6625 H.spc      1 <1>        0.000
@<TRIPOS>BOND
     1    1    2 1  
     2    1    6 1  
     3    5    6 1  
     4    3    4 1  
     5    7   12 ar 
     6    4    7 1  
     7   11   12 ar 
     8    7    8 ar 
     9    9   10 ar 
    10    2    3 1  
    11   10   11 ar 
    12    8    9 ar 
    13    4    5 1  
    14    1   13 1  
    15    1   14 1  
    16    2   15 1  
    17    2   16 1  
    18    3   17 1  
    19    3   18 1  
    20    5   19 1  
    21    5   20 1  
    22    6   21 1  
    23    6   22 1  
    24    9   23 1  
    25   10   24 1  
    26   11   25 1  
