#      Rotatable Fragment
#      Build by yxyuan
#
# Name:          frag4-341-146/48856
# Creation time: Sat Jun  5 12:52:58 2010


@<TRIPOS>MOLECULE
frag4-341-146/48856
   39    42     1     1     1
SMALL
USER_CHARGES


@<TRIPOS>ATOM
      1 C6          3.3789   -0.5396    2.3737 C.ar       1 <1>        0.000
      2 C7          3.3902   -1.2249    1.1627 C.ar       1 <1>        0.000
      3 C8          2.2882   -1.9814    0.7451 C.ar       1 <1>        0.000
      4 C9          1.1133   -2.0018    1.5344 C.ar       1 <1>        0.000
      5 C10         1.1609   -1.3884    2.7953 C.ar       1 <1>        0.000
      6 C11         2.2600   -0.6336    3.2002 C.ar       1 <1>        0.000
      7 C12        -0.1654   -2.6950    1.0416 C.3        1 <1>        0.000
      8 C23        -1.4862   -1.9139    1.3172 C.3        1 <1>        0.000
      9 C13        -0.0807   -3.0396   -0.4746 C.3        1 <1>        0.000
     10 C14        -1.3173   -3.8694   -0.8843 C.3        1 <1>        0.000
     11 C15        -2.6011   -3.0549   -0.6405 C.3        1 <1>        0.000
     12 C16        -3.6751   -3.9654   -1.2583 C.3        1 <1>        0.000
     13 C17        -2.9984   -4.4819   -2.5523 C.3        1 <1>        0.000
     14 C18        -1.4733   -4.2583   -2.3677 C.3        1 <1>        0.000
     15 C22        -2.7377   -2.6953    0.8500 C.3        1 <1>        0.000
     16 C25         1.2508   -3.7536   -0.7701 C.3        1 <1>        0.000
     17 C26         2.4040   -2.7565   -0.5619 C.3        1 <1>        0.000
     18 H           4.2356    0.0642    2.6729 H.spc      1 <1>        0.000
     19 H           4.2739   -1.1719    0.5268 H.spc      1 <1>        0.000
     20 H           0.3170   -1.5052    3.4752 H.spc      1 <1>        0.000
     21 H           2.2450   -0.1181    4.1605 H.spc      1 <1>        0.000
     22 H          -0.2151   -3.6075    1.6357 H.spc      1 <1>        0.000
     23 H          -1.4466   -0.9758    0.7636 H.spc      1 <1>        0.000
     24 H          -1.5678   -1.7556    2.3925 H.spc      1 <1>        0.000
     25 H          -0.0922   -2.1309   -1.0765 H.spc      1 <1>        0.000
     26 H          -1.1687   -4.7698   -0.2883 H.spc      1 <1>        0.000
     27 H          -2.6529   -2.0657   -1.0954 H.spc      1 <1>        0.000
     28 H          -3.9775   -4.7723   -0.5907 H.spc      1 <1>        0.000
     29 H          -4.6103   -3.4405   -1.4532 H.spc      1 <1>        0.000
     30 H          -3.2223   -5.5358   -2.7172 H.spc      1 <1>        0.000
     31 H          -3.3691   -3.9484   -3.4276 H.spc      1 <1>        0.000
     32 H          -1.0897   -3.4865   -3.0350 H.spc      1 <1>        0.000
     33 H          -0.8964   -5.1481   -2.6197 H.spc      1 <1>        0.000
     34 H          -3.6232   -2.0758    0.9917 H.spc      1 <1>        0.000
     35 H          -2.8303   -3.6106    1.4347 H.spc      1 <1>        0.000
     36 H           1.2560   -4.1154   -1.7983 H.spc      1 <1>        0.000
     37 H           1.3714   -4.6037   -0.0986 H.spc      1 <1>        0.000
     38 H           3.3339   -3.3243   -0.5312 H.spc      1 <1>        0.000
     39 H           2.3738   -2.0367   -1.3799 H.spc      1 <1>        0.000
@<TRIPOS>BOND
     1    7    8 1  
     2    7    9 1  
     3    4    7 1  
     4    2    3 ar 
     5    1    6 ar 
     6    1    2 ar 
     7    9   10 1  
     8    5    6 ar 
     9    3    4 ar 
    10   10   11 1  
    11    4    5 ar 
    12    9   16 1  
    13    3   17 1  
    14   16   17 1  
    15   15    8 1  
    16   13   14 1  
    17   12   13 1  
    18   11   12 1  
    19   11   15 1  
    20   10   14 1  
    21    1   18 1  
    22    2   19 1  
    23    5   20 1  
    24    6   21 1  
    25    7   22 1  
    26    8   23 1  
    27    8   24 1  
    28    9   25 1  
    29   10   26 1  
    30   11   27 1  
    31   12   28 1  
    32   12   29 1  
    33   13   30 1  
    34   13   31 1  
    35   14   32 1  
    36   14   33 1  
    37   15   34 1  
    38   15   35 1  
    39   16   36 1  
    40   16   37 1  
    41   17   38 1  
    42   17   39 1  
# Name:          frag4-341-146/48856 -- energy: -6.174793
# Creation time: Sat Jun  5 12:52:58 2010


@<TRIPOS>MOLECULE
frag4-341-146/48856 -- energy: -6.174793
   39    42     1     1     1
SMALL
USER_CHARGES


@<TRIPOS>ATOM
      1 C6          3.3789   -0.5396    2.3737 C.ar       1 <1>        0.000
      2 C7          3.3902   -1.2249    1.1627 C.ar       1 <1>        0.000
      3 C8          2.2882   -1.9814    0.7451 C.ar       1 <1>        0.000
      4 C9          1.1133   -2.0018    1.5344 C.ar       1 <1>        0.000
      5 C10         1.1609   -1.3884    2.7953 C.ar       1 <1>        0.000
      6 C11         2.2600   -0.6336    3.2002 C.ar       1 <1>        0.000
      7 C12        -0.1654   -2.6950    1.0416 C.3        1 <1>        0.000
      8 C23        -1.4862   -1.9139    1.3172 C.3        1 <1>        0.000
      9 C13        -0.0807   -3.0396   -0.4746 C.3        1 <1>        0.000
     10 C14        -1.3173   -3.8694   -0.8843 C.3        1 <1>        0.000
     11 C15        -2.6011   -3.0549   -0.6405 C.3        1 <1>        0.000
     12 C16        -3.6751   -3.9654   -1.2583 C.3        1 <1>        0.000
     13 C17        -2.9984   -4.4819   -2.5523 C.3        1 <1>        0.000
     14 C18        -1.4733   -4.2583   -2.3677 C.3        1 <1>        0.000
     15 C22        -2.7377   -2.6953    0.8500 C.3        1 <1>        0.000
     16 C25         1.2508   -3.7536   -0.7701 C.3        1 <1>        0.000
     17 C26         2.4040   -2.7565   -0.5619 C.3        1 <1>        0.000
     18 H           4.2356    0.0642    2.6729 H.spc      1 <1>        0.000
     19 H           4.2739   -1.1719    0.5268 H.spc      1 <1>        0.000
     20 H           0.3170   -1.5052    3.4752 H.spc      1 <1>        0.000
     21 H           2.2450   -0.1181    4.1605 H.spc      1 <1>        0.000
     22 H          -0.2151   -3.6075    1.6357 H.spc      1 <1>        0.000
     23 H          -1.4466   -0.9758    0.7636 H.spc      1 <1>        0.000
     24 H          -1.5678   -1.7556    2.3925 H.spc      1 <1>        0.000
     25 H          -0.0922   -2.1309   -1.0765 H.spc      1 <1>        0.000
     26 H          -1.1687   -4.7698   -0.2883 H.spc      1 <1>        0.000
     27 H          -2.6529   -2.0657   -1.0954 H.spc      1 <1>        0.000
     28 H          -3.9775   -4.7723   -0.5907 H.spc      1 <1>        0.000
     29 H          -4.6103   -3.4405   -1.4532 H.spc      1 <1>        0.000
     30 H          -3.2223   -5.5358   -2.7172 H.spc      1 <1>        0.000
     31 H          -3.3691   -3.9484   -3.4276 H.spc      1 <1>        0.000
     32 H          -1.0897   -3.4865   -3.0350 H.spc      1 <1>        0.000
     33 H          -0.8964   -5.1481   -2.6197 H.spc      1 <1>        0.000
     34 H          -3.6232   -2.0758    0.9917 H.spc      1 <1>        0.000
     35 H          -2.8303   -3.6106    1.4347 H.spc      1 <1>        0.000
     36 H           1.2560   -4.1154   -1.7983 H.spc      1 <1>        0.000
     37 H           1.3714   -4.6037   -0.0986 H.spc      1 <1>        0.000
     38 H           3.3339   -3.3243   -0.5312 H.spc      1 <1>        0.000
     39 H           2.3738   -2.0367   -1.3799 H.spc      1 <1>        0.000
@<TRIPOS>BOND
     1    7    8 1  
     2    7    9 1  
     3    4    7 1  
     4    2    3 ar 
     5    1    6 ar 
     6    1    2 ar 
     7    9   10 1  
     8    5    6 ar 
     9    3    4 ar 
    10   10   11 1  
    11    4    5 ar 
    12    9   16 1  
    13    3   17 1  
    14   16   17 1  
    15   15    8 1  
    16   13   14 1  
    17   12   13 1  
    18   11   12 1  
    19   11   15 1  
    20   10   14 1  
    21    1   18 1  
    22    2   19 1  
    23    5   20 1  
    24    6   21 1  
    25    7   22 1  
    26    8   23 1  
    27    8   24 1  
    28    9   25 1  
    29   10   26 1  
    30   11   27 1  
    31   12   28 1  
    32   12   29 1  
    33   13   30 1  
    34   13   31 1  
    35   14   32 1  
    36   14   33 1  
    37   15   34 1  
    38   15   35 1  
    39   16   36 1  
    40   16   37 1  
    41   17   38 1  
    42   17   39 1  
