#      Rotatable Fragment
#      Build by yxyuan
#
# Name:          frag4-358-365/150395
# Creation time: Sat Jun  5 12:53:32 2010


@<TRIPOS>MOLECULE
frag4-358-365/150395
   21    22     1     1     1
SMALL
USER_CHARGES


@<TRIPOS>ATOM
      1 C1         -0.0211    1.1671    0.3938 C.ar       1 <1>        0.000
      2 C2         -0.0276   -0.2642    0.2617 C.ar       1 <1>        0.000
      3 N1          1.0209    1.9152    0.7656 N.pl3      1 <1>        0.000
      4 C3         -1.2189    1.7742   -0.0273 C.ar       1 <1>        0.000
      5 C4          1.2295   -1.1018    0.5592 C.2        1 <1>        0.000
      6 C5         -1.1783   -0.9596   -0.0398 C.ar       1 <1>        0.000
      7 C6          2.2610    1.6068    0.3875 C.3        1 <1>        0.000
      8 C8         -2.3753    1.0974   -0.3395 C.ar       1 <1>        0.000
      9 N2          2.3980   -0.7433    0.2371 N.2        1 <1>        0.000
     10 C10        -2.3542   -0.2816   -0.3181 C.ar       1 <1>        0.000
     11 C11         2.6360    0.4353   -0.4526 C.3        1 <1>        0.000
     12 H           0.8648    2.7370    1.3492 H.spc      1 <1>        0.000
     13 H          -1.2313    2.8608   -0.1124 H.spc      1 <1>        0.000
     14 H           1.1053   -2.0541    1.0747 H.spc      1 <1>        0.000
     15 H          -1.1635   -2.0493   -0.0595 H.spc      1 <1>        0.000
     16 H           2.7406    1.3724    1.3378 H.spc      1 <1>        0.000
     17 H           2.5213    2.4462   -0.2573 H.spc      1 <1>        0.000
     18 H          -3.2861    1.6378   -0.5975 H.spc      1 <1>        0.000
     19 H          -3.2674   -0.8410   -0.5212 H.spc      1 <1>        0.000
     20 H           3.6960    0.4971   -0.6987 H.spc      1 <1>        0.000
     21 H           2.0375    0.4430   -1.3636 H.spc      1 <1>        0.000
@<TRIPOS>BOND
     1    3    7 1  
     2    4    8 ar 
     3    8   10 ar 
     4    7   11 1  
     5    6   10 ar 
     6    5    9 2  
     7    1    2 ar 
     8    1    3 1  
     9    1    4 ar 
    10    2    5 1  
    11    2    6 ar 
    12    9   11 1  
    13    3   12 1  
    14    4   13 1  
    15    5   14 1  
    16    6   15 1  
    17    7   16 1  
    18    7   17 1  
    19    8   18 1  
    20   10   19 1  
    21   11   20 1  
    22   11   21 1  
# Name:          frag4-358-365/150395 -- energy: -1.259525
# Creation time: Sat Jun  5 12:53:32 2010


@<TRIPOS>MOLECULE
frag4-358-365/150395 -- energy: -1.259525
   21    22     1     1     1
SMALL
USER_CHARGES


@<TRIPOS>ATOM
      1 C1         -0.0211    1.1671    0.3938 C.ar       1 <1>        0.000
      2 C2         -0.0276   -0.2642    0.2617 C.ar       1 <1>        0.000
      3 N1          1.0209    1.9152    0.7656 N.pl3      1 <1>        0.000
      4 C3         -1.2189    1.7742   -0.0273 C.ar       1 <1>        0.000
      5 C4          1.2295   -1.1018    0.5592 C.2        1 <1>        0.000
      6 C5         -1.1783   -0.9596   -0.0398 C.ar       1 <1>        0.000
      7 C6          2.2610    1.6068    0.3875 C.3        1 <1>        0.000
      8 C8         -2.3753    1.0974   -0.3395 C.ar       1 <1>        0.000
      9 N2          2.3980   -0.7433    0.2371 N.2        1 <1>        0.000
     10 C10        -2.3542   -0.2816   -0.3181 C.ar       1 <1>        0.000
     11 C11         2.6360    0.4353   -0.4526 C.3        1 <1>        0.000
     12 H           0.8648    2.7370    1.3492 H.spc      1 <1>        0.000
     13 H          -1.2313    2.8608   -0.1124 H.spc      1 <1>        0.000
     14 H           1.1053   -2.0541    1.0747 H.spc      1 <1>        0.000
     15 H          -1.1635   -2.0493   -0.0595 H.spc      1 <1>        0.000
     16 H           2.7406    1.3724    1.3378 H.spc      1 <1>        0.000
     17 H           2.5213    2.4462   -0.2573 H.spc      1 <1>        0.000
     18 H          -3.2861    1.6378   -0.5975 H.spc      1 <1>        0.000
     19 H          -3.2674   -0.8410   -0.5212 H.spc      1 <1>        0.000
     20 H           3.6960    0.4971   -0.6987 H.spc      1 <1>        0.000
     21 H           2.0375    0.4430   -1.3636 H.spc      1 <1>        0.000
@<TRIPOS>BOND
     1    3    7 1  
     2    4    8 ar 
     3    8   10 ar 
     4    7   11 1  
     5    6   10 ar 
     6    5    9 2  
     7    1    2 ar 
     8    1    3 1  
     9    1    4 ar 
    10    2    5 1  
    11    2    6 ar 
    12    9   11 1  
    13    3   12 1  
    14    4   13 1  
    15    5   14 1  
    16    6   15 1  
    17    7   16 1  
    18    7   17 1  
    19    8   18 1  
    20   10   19 1  
    21   11   20 1  
    22   11   21 1  
