#      Rotatable Fragment
#      Build by yxyuan
#
# Name:          frag4-345-433/150395
# Creation time: Sat Jun  5 12:53:31 2010


@<TRIPOS>MOLECULE
frag4-345-433/150395
   17    18     1     1     1
SMALL
USER_CHARGES


@<TRIPOS>ATOM
      1 C1         -3.4090    0.6894   -0.0609 C.ar       1 <1>        0.000
      2 C2         -3.3396   -0.7041   -0.0928 C.ar       1 <1>        0.000
      3 C3         -1.9879    1.1986   -0.0587 C.3        1 <1>        0.000
      4 C4         -4.6309    1.3593   -0.0347 C.ar       1 <1>        0.000
      5 O1         -2.0618   -1.2296   -0.1016 O.3        1 <1>        0.000
      6 C5         -4.5042   -1.4659   -0.1135 C.ar       1 <1>        0.000
      7 C6         -1.2612   -0.1165    0.3464 C.3        1 <1>        0.000
      8 C7         -5.7997    0.5938   -0.0511 C.ar       1 <1>        0.000
      9 C8         -5.7360   -0.8073   -0.0937 C.ar       1 <1>        0.000
     10 H          -1.8040    2.0479    0.5993 H.spc      1 <1>        0.000
     11 H          -1.6547    1.6381   -0.9989 H.spc      1 <1>        0.000
     12 H          -4.6735    2.4480   -0.0024 H.spc      1 <1>        0.000
     13 H          -4.4561   -2.5544   -0.1445 H.spc      1 <1>        0.000
     14 H          -0.2736   -0.1560   -0.1132 H.spc      1 <1>        0.000
     15 H          -1.1348   -0.1570    1.4283 H.spc      1 <1>        0.000
     16 H          -6.7701    1.0897   -0.0306 H.spc      1 <1>        0.000
     17 H          -6.6580   -1.3883   -0.1115 H.spc      1 <1>        0.000
@<TRIPOS>BOND
     1    5    7 1  
     2    6    9 ar 
     3    8    9 ar 
     4    1    2 ar 
     5    1    3 1  
     6    1    4 ar 
     7    2    5 1  
     8    2    6 ar 
     9    3    7 1  
    10    4    8 ar 
    11    3   10 1  
    12    3   11 1  
    13    4   12 1  
    14    6   13 1  
    15    7   14 1  
    16    7   15 1  
    17    8   16 1  
    18    9   17 1  
# Name:          frag4-345-433/150395 -- energy: -0.713178
# Creation time: Sat Jun  5 12:53:31 2010


@<TRIPOS>MOLECULE
frag4-345-433/150395 -- energy: -0.713178
   17    18     1     1     1
SMALL
USER_CHARGES


@<TRIPOS>ATOM
      1 C1         -3.4090    0.6894   -0.0609 C.ar       1 <1>        0.000
      2 C2         -3.3396   -0.7041   -0.0928 C.ar       1 <1>        0.000
      3 C3         -1.9879    1.1986   -0.0587 C.3        1 <1>        0.000
      4 C4         -4.6309    1.3593   -0.0347 C.ar       1 <1>        0.000
      5 O1         -2.0618   -1.2296   -0.1016 O.3        1 <1>        0.000
      6 C5         -4.5042   -1.4659   -0.1135 C.ar       1 <1>        0.000
      7 C6         -1.2612   -0.1165    0.3464 C.3        1 <1>        0.000
      8 C7         -5.7997    0.5938   -0.0511 C.ar       1 <1>        0.000
      9 C8         -5.7360   -0.8073   -0.0937 C.ar       1 <1>        0.000
     10 H          -1.8040    2.0479    0.5993 H.spc      1 <1>        0.000
     11 H          -1.6547    1.6381   -0.9989 H.spc      1 <1>        0.000
     12 H          -4.6735    2.4480   -0.0024 H.spc      1 <1>        0.000
     13 H          -4.4561   -2.5544   -0.1445 H.spc      1 <1>        0.000
     14 H          -0.2736   -0.1560   -0.1132 H.spc      1 <1>        0.000
     15 H          -1.1348   -0.1570    1.4283 H.spc      1 <1>        0.000
     16 H          -6.7701    1.0897   -0.0306 H.spc      1 <1>        0.000
     17 H          -6.6580   -1.3883   -0.1115 H.spc      1 <1>        0.000
@<TRIPOS>BOND
     1    5    7 1  
     2    6    9 ar 
     3    8    9 ar 
     4    1    2 ar 
     5    1    3 1  
     6    1    4 ar 
     7    2    5 1  
     8    2    6 ar 
     9    3    7 1  
    10    4    8 ar 
    11    3   10 1  
    12    3   11 1  
    13    4   12 1  
    14    6   13 1  
    15    7   14 1  
    16    7   15 1  
    17    8   16 1  
    18    9   17 1  
