#      Rotatable Fragment
#      Build by yxyuan
#
# Name:          frag3-242-5/96164
# Creation time: Sat Jun  5 12:53:16 2010


@<TRIPOS>MOLECULE
frag3-242-5/96164
   14    13     1     1     1
SMALL
USER_CHARGES


@<TRIPOS>ATOM
      1 N3         -1.7837   -0.7533   -0.4765 N.am       1 <1>        0.000
      2 C9         -1.6179   -2.0339   -0.0584 C.2        1 <1>        0.000
      3 C10        -0.2406   -2.5072    0.1148 C.2        1 <1>        0.000
      4 O4         -2.5819   -2.7458    0.1865 O.2        1 <1>        0.000
      5 C11        -0.0231   -3.8081    0.3696 C.2        1 <1>        0.000
      6 C12         1.3564   -4.2713    0.5702 C.2        1 <1>        0.000
      7 N4          1.5661   -5.6117    0.5631 N.am       1 <1>        0.000
      8 O5          2.2813   -3.4924    0.7591 O.2        1 <1>        0.000
      9 H          -2.7227   -0.3716   -0.5906 H.spc      1 <1>        0.000
     10 H          -0.9693   -0.1726   -0.6766 H.spc      1 <1>        0.000
     11 H           0.5957   -1.8124    0.0378 H.spc      1 <1>        0.000
     12 H          -0.8565   -4.5084    0.4266 H.spc      1 <1>        0.000
     13 H           2.5041   -5.9820    0.7165 H.spc      1 <1>        0.000
     14 H           0.7858   -6.2491    0.4044 H.spc      1 <1>        0.000
@<TRIPOS>BOND
     1    1    2 am 
     2    2    3 1  
     3    2    4 2  
     4    3    5 2  
     5    5    6 1  
     6    6    7 am 
     7    6    8 2  
     8    1    9 1  
     9    1   10 1  
    10    3   11 1  
    11    5   12 1  
    12    7   13 1  
    13    7   14 1  
# Name:          frag3-242-5/96164
# Creation time: Sat Jun  5 12:53:16 2010


@<TRIPOS>MOLECULE
frag3-242-5/96164
   14    13     1     1     1
SMALL
USER_CHARGES


@<TRIPOS>ATOM
      1 N3         -1.8816   -0.8131    0.4120 N.am       1 <1>        0.000
      2 C9         -1.5925   -2.0376   -0.0833 C.2        1 <1>        0.000
      3 C10        -0.2316   -2.5216    0.1244 C.2        1 <1>        0.000
      4 O4         -2.4357   -2.7107   -0.6574 O.2        1 <1>        0.000
      5 C11        -0.0472   -3.8296    0.3546 C.2        1 <1>        0.000
      6 C12         1.3343   -4.2796    0.5321 C.2        1 <1>        0.000
      7 N4          1.5508   -5.2812    1.4124 N.am       1 <1>        0.000
      8 O5          2.2601   -3.7502   -0.0665 O.2        1 <1>        0.000
      9 H          -2.8218   -0.4309    0.3106 H.spc      1 <1>        0.000
     10 H          -1.1595   -0.2716    0.8871 H.spc      1 <1>        0.000
     11 H           0.6151   -1.8359    0.0931 H.spc      1 <1>        0.000
     12 H          -0.8855   -4.5242    0.4070 H.spc      1 <1>        0.000
     13 H           2.5005   -5.6093    1.5882 H.spc      1 <1>        0.000
     14 H           0.7646   -5.7093    1.9013 H.spc      1 <1>        0.000
@<TRIPOS>BOND
     1    1    2 am 
     2    2    3 1  
     3    2    4 2  
     4    3    5 2  
     5    5    6 1  
     6    6    7 am 
     7    6    8 2  
     8    1    9 1  
     9    1   10 1  
    10    3   11 1  
    11    5   12 1  
    12    7   13 1  
    13    7   14 1  
# Name:          frag3-242-5/96164
# Creation time: Sat Jun  5 12:53:16 2010


@<TRIPOS>MOLECULE
frag3-242-5/96164
   14    13     1     1     1
SMALL
USER_CHARGES


@<TRIPOS>ATOM
      1 N3          1.8006   -4.8325   -0.4641 N.am       1 <1>        0.000
      2 C9          1.4130   -4.2428    0.6848 C.2        1 <1>        0.000
      3 C10         0.2020   -3.3966    0.7418 C.2        1 <1>        0.000
      4 O4          2.0566   -4.4028    1.7132 O.2        1 <1>        0.000
      5 C11        -0.4767   -2.9085   -0.3129 C.2        1 <1>        0.000
      6 C12        -1.6802   -2.0703   -0.1118 C.2        1 <1>        0.000
      7 N4         -2.0162   -1.2402   -1.1300 N.am       1 <1>        0.000
      8 O5         -2.3425   -2.1300    0.9072 O.2        1 <1>        0.000
      9 H           2.6361   -5.4173   -0.4806 H.spc      1 <1>        0.000
     10 H           1.2583   -4.6938   -1.3168 H.spc      1 <1>        0.000
     11 H          -0.1771   -3.1441    1.7320 H.spc      1 <1>        0.000
     12 H          -0.1372   -3.1324   -1.3242 H.spc      1 <1>        0.000
     13 H          -2.8418   -0.6462   -1.0525 H.spc      1 <1>        0.000
     14 H          -1.4434   -1.2098   -1.9734 H.spc      1 <1>        0.000
@<TRIPOS>BOND
     1    1    2 am 
     2    2    3 1  
     3    2    4 2  
     4    3    5 2  
     5    5    6 1  
     6    6    7 am 
     7    6    8 2  
     8    1    9 1  
     9    1   10 1  
    10    3   11 1  
    11    5   12 1  
    12    7   13 1  
    13    7   14 1  
# Name:          frag3-242-5/96164
# Creation time: Sat Jun  5 12:53:16 2010


@<TRIPOS>MOLECULE
frag3-242-5/96164
   14    13     1     1     1
SMALL
USER_CHARGES


@<TRIPOS>ATOM
      1 N3         -1.4184   -1.1025   -0.7031 N.am       1 <1>        0.000
      2 C9         -1.7932   -2.2119   -0.0270 C.2        1 <1>        0.000
      3 C10        -0.8048   -3.2746    0.2381 C.2        1 <1>        0.000
      4 O4         -2.9539   -2.3879    0.3335 O.2        1 <1>        0.000
      5 C11         0.5127   -3.0419    0.3556 C.2        1 <1>        0.000
      6 C12         1.5299   -4.0872    0.5720 C.2        1 <1>        0.000
      7 N4          1.2885   -5.3641    0.1736 N.am       1 <1>        0.000
      8 O5          2.5958   -3.7536    1.0855 O.2        1 <1>        0.000
      9 H          -2.1074   -0.3843   -0.9266 H.spc      1 <1>        0.000
     10 H          -0.4467   -0.9838   -0.9897 H.spc      1 <1>        0.000
     11 H          -1.1614   -4.2992    0.3438 H.spc      1 <1>        0.000
     12 H           0.8536   -2.0089    0.2862 H.spc      1 <1>        0.000
     13 H           2.0037   -6.0808    0.2973 H.spc      1 <1>        0.000
     14 H           0.3922   -5.6057   -0.2491 H.spc      1 <1>        0.000
@<TRIPOS>BOND
     1    1    2 am 
     2    2    3 1  
     3    2    4 2  
     4    3    5 2  
     5    5    6 1  
     6    6    7 am 
     7    6    8 2  
     8    1    9 1  
     9    1   10 1  
    10    3   11 1  
    11    5   12 1  
    12    7   13 1  
    13    7   14 1  
# Name:          frag3-242-5/96164
# Creation time: Sat Jun  5 12:53:16 2010


@<TRIPOS>MOLECULE
frag3-242-5/96164
   14    13     1     1     1
SMALL
USER_CHARGES


@<TRIPOS>ATOM
      1 N3          1.3511   -5.1358    1.4214 N.am       1 <1>        0.000
      2 C9          1.5170   -4.1219    0.5539 C.2        1 <1>        0.000
      3 C10         0.4856   -3.0759    0.3988 C.2        1 <1>        0.000
      4 O4          2.5398   -4.0216   -0.1040 O.2        1 <1>        0.000
      5 C11        -0.8117   -3.2896    0.1107 C.2        1 <1>        0.000
      6 C12        -1.7813   -2.1890   -0.0895 C.2        1 <1>        0.000
      7 N4         -1.6580   -1.0602    0.6326 N.am       1 <1>        0.000
      8 O5         -2.6860   -2.3296   -0.8957 O.2        1 <1>        0.000
      9 H           2.0857   -5.8341    1.5363 H.spc      1 <1>        0.000
     10 H           0.4907   -5.2067    1.9646 H.spc      1 <1>        0.000
     11 H           0.8026   -2.0412    0.5290 H.spc      1 <1>        0.000
     12 H          -1.1635   -4.3173    0.0209 H.spc      1 <1>        0.000
     13 H          -2.3286   -0.3013    0.5112 H.spc      1 <1>        0.000
     14 H          -0.8939   -0.9635    1.3013 H.spc      1 <1>        0.000
@<TRIPOS>BOND
     1    1    2 am 
     2    2    3 1  
     3    2    4 2  
     4    3    5 2  
     5    5    6 1  
     6    6    7 am 
     7    6    8 2  
     8    1    9 1  
     9    1   10 1  
    10    3   11 1  
    11    5   12 1  
    12    7   13 1  
    13    7   14 1  
# Name:          frag3-242-5/96164 -- energy: -0.694352
# Creation time: Sat Jun  5 12:53:16 2010


@<TRIPOS>MOLECULE
frag3-242-5/96164 -- energy: -0.694352
   14    13     1     1     1
SMALL
USER_CHARGES


@<TRIPOS>ATOM
      1 N3         -1.7837   -0.7533   -0.4765 N.am       1 <1>        0.000
      2 C9         -1.6179   -2.0339   -0.0584 C.2        1 <1>        0.000
      3 C10        -0.2406   -2.5072    0.1148 C.2        1 <1>        0.000
      4 O4         -2.5819   -2.7458    0.1865 O.2        1 <1>        0.000
      5 C11        -0.0231   -3.8081    0.3696 C.2        1 <1>        0.000
      6 C12         1.3564   -4.2713    0.5702 C.2        1 <1>        0.000
      7 N4          1.5661   -5.6117    0.5631 N.am       1 <1>        0.000
      8 O5          2.2813   -3.4924    0.7591 O.2        1 <1>        0.000
      9 H          -2.7227   -0.3716   -0.5906 H.spc      1 <1>        0.000
     10 H          -0.9693   -0.1726   -0.6766 H.spc      1 <1>        0.000
     11 H           0.5957   -1.8124    0.0378 H.spc      1 <1>        0.000
     12 H          -0.8565   -4.5084    0.4266 H.spc      1 <1>        0.000
     13 H           2.5041   -5.9820    0.7165 H.spc      1 <1>        0.000
     14 H           0.7858   -6.2491    0.4044 H.spc      1 <1>        0.000
@<TRIPOS>BOND
     1    1    2 am 
     2    2    3 1  
     3    2    4 2  
     4    3    5 2  
     5    5    6 1  
     6    6    7 am 
     7    6    8 2  
     8    1    9 1  
     9    1   10 1  
    10    3   11 1  
    11    5   12 1  
    12    7   13 1  
    13    7   14 1  
# Name:          frag3-242-5/96164 -- energy: -0.793890
# Creation time: Sat Jun  5 12:53:16 2010


@<TRIPOS>MOLECULE
frag3-242-5/96164 -- energy: -0.793890
   14    13     1     1     1
SMALL
USER_CHARGES


@<TRIPOS>ATOM
      1 N3         -1.8816   -0.8131    0.4120 N.am       1 <1>        0.000
      2 C9         -1.5925   -2.0376   -0.0833 C.2        1 <1>        0.000
      3 C10        -0.2316   -2.5216    0.1244 C.2        1 <1>        0.000
      4 O4         -2.4357   -2.7107   -0.6574 O.2        1 <1>        0.000
      5 C11        -0.0472   -3.8296    0.3546 C.2        1 <1>        0.000
      6 C12         1.3343   -4.2796    0.5321 C.2        1 <1>        0.000
      7 N4          1.5508   -5.2812    1.4124 N.am       1 <1>        0.000
      8 O5          2.2601   -3.7502   -0.0665 O.2        1 <1>        0.000
      9 H          -2.8218   -0.4309    0.3106 H.spc      1 <1>        0.000
     10 H          -1.1595   -0.2716    0.8871 H.spc      1 <1>        0.000
     11 H           0.6151   -1.8359    0.0931 H.spc      1 <1>        0.000
     12 H          -0.8855   -4.5242    0.4070 H.spc      1 <1>        0.000
     13 H           2.5005   -5.6093    1.5882 H.spc      1 <1>        0.000
     14 H           0.7646   -5.7093    1.9013 H.spc      1 <1>        0.000
@<TRIPOS>BOND
     1    1    2 am 
     2    2    3 1  
     3    2    4 2  
     4    3    5 2  
     5    5    6 1  
     6    6    7 am 
     7    6    8 2  
     8    1    9 1  
     9    1   10 1  
    10    3   11 1  
    11    5   12 1  
    12    7   13 1  
    13    7   14 1  
# Name:          frag3-242-5/96164 -- energy: -0.866988
# Creation time: Sat Jun  5 12:53:16 2010


@<TRIPOS>MOLECULE
frag3-242-5/96164 -- energy: -0.866988
   14    13     1     1     1
SMALL
USER_CHARGES


@<TRIPOS>ATOM
      1 N3          1.8006   -4.8325   -0.4641 N.am       1 <1>        0.000
      2 C9          1.4130   -4.2428    0.6848 C.2        1 <1>        0.000
      3 C10         0.2020   -3.3966    0.7418 C.2        1 <1>        0.000
      4 O4          2.0566   -4.4028    1.7132 O.2        1 <1>        0.000
      5 C11        -0.4767   -2.9085   -0.3129 C.2        1 <1>        0.000
      6 C12        -1.6802   -2.0703   -0.1118 C.2        1 <1>        0.000
      7 N4         -2.0162   -1.2402   -1.1300 N.am       1 <1>        0.000
      8 O5         -2.3425   -2.1300    0.9072 O.2        1 <1>        0.000
      9 H           2.6361   -5.4173   -0.4806 H.spc      1 <1>        0.000
     10 H           1.2583   -4.6938   -1.3168 H.spc      1 <1>        0.000
     11 H          -0.1771   -3.1441    1.7320 H.spc      1 <1>        0.000
     12 H          -0.1372   -3.1324   -1.3242 H.spc      1 <1>        0.000
     13 H          -2.8418   -0.6462   -1.0525 H.spc      1 <1>        0.000
     14 H          -1.4434   -1.2098   -1.9734 H.spc      1 <1>        0.000
@<TRIPOS>BOND
     1    1    2 am 
     2    2    3 1  
     3    2    4 2  
     4    3    5 2  
     5    5    6 1  
     6    6    7 am 
     7    6    8 2  
     8    1    9 1  
     9    1   10 1  
    10    3   11 1  
    11    5   12 1  
    12    7   13 1  
    13    7   14 1  
# Name:          frag3-242-5/96164 -- energy: -0.919849
# Creation time: Sat Jun  5 12:53:16 2010


@<TRIPOS>MOLECULE
frag3-242-5/96164 -- energy: -0.919849
   14    13     1     1     1
SMALL
USER_CHARGES


@<TRIPOS>ATOM
      1 N3         -1.4184   -1.1025   -0.7031 N.am       1 <1>        0.000
      2 C9         -1.7932   -2.2119   -0.0270 C.2        1 <1>        0.000
      3 C10        -0.8048   -3.2746    0.2381 C.2        1 <1>        0.000
      4 O4         -2.9539   -2.3879    0.3335 O.2        1 <1>        0.000
      5 C11         0.5127   -3.0419    0.3556 C.2        1 <1>        0.000
      6 C12         1.5299   -4.0872    0.5720 C.2        1 <1>        0.000
      7 N4          1.2885   -5.3641    0.1736 N.am       1 <1>        0.000
      8 O5          2.5958   -3.7536    1.0855 O.2        1 <1>        0.000
      9 H          -2.1074   -0.3843   -0.9266 H.spc      1 <1>        0.000
     10 H          -0.4467   -0.9838   -0.9897 H.spc      1 <1>        0.000
     11 H          -1.1614   -4.2992    0.3438 H.spc      1 <1>        0.000
     12 H           0.8536   -2.0089    0.2862 H.spc      1 <1>        0.000
     13 H           2.0037   -6.0808    0.2973 H.spc      1 <1>        0.000
     14 H           0.3922   -5.6057   -0.2491 H.spc      1 <1>        0.000
@<TRIPOS>BOND
     1    1    2 am 
     2    2    3 1  
     3    2    4 2  
     4    3    5 2  
     5    5    6 1  
     6    6    7 am 
     7    6    8 2  
     8    1    9 1  
     9    1   10 1  
    10    3   11 1  
    11    5   12 1  
    12    7   13 1  
    13    7   14 1  
# Name:          frag3-242-5/96164 -- energy: -1.057498
# Creation time: Sat Jun  5 12:53:16 2010


@<TRIPOS>MOLECULE
frag3-242-5/96164 -- energy: -1.057498
   14    13     1     1     1
SMALL
USER_CHARGES


@<TRIPOS>ATOM
      1 N3          1.3511   -5.1358    1.4214 N.am       1 <1>        0.000
      2 C9          1.5170   -4.1219    0.5539 C.2        1 <1>        0.000
      3 C10         0.4856   -3.0759    0.3988 C.2        1 <1>        0.000
      4 O4          2.5398   -4.0216   -0.1040 O.2        1 <1>        0.000
      5 C11        -0.8117   -3.2896    0.1107 C.2        1 <1>        0.000
      6 C12        -1.7813   -2.1890   -0.0895 C.2        1 <1>        0.000
      7 N4         -1.6580   -1.0602    0.6326 N.am       1 <1>        0.000
      8 O5         -2.6860   -2.3296   -0.8957 O.2        1 <1>        0.000
      9 H           2.0857   -5.8341    1.5363 H.spc      1 <1>        0.000
     10 H           0.4907   -5.2067    1.9646 H.spc      1 <1>        0.000
     11 H           0.8026   -2.0412    0.5290 H.spc      1 <1>        0.000
     12 H          -1.1635   -4.3173    0.0209 H.spc      1 <1>        0.000
     13 H          -2.3286   -0.3013    0.5112 H.spc      1 <1>        0.000
     14 H          -0.8939   -0.9635    1.3013 H.spc      1 <1>        0.000
@<TRIPOS>BOND
     1    1    2 am 
     2    2    3 1  
     3    2    4 2  
     4    3    5 2  
     5    5    6 1  
     6    6    7 am 
     7    6    8 2  
     8    1    9 1  
     9    1   10 1  
    10    3   11 1  
    11    5   12 1  
    12    7   13 1  
    13    7   14 1  
