#      Rotatable Fragment
#      Build by yxyuan
#
# Name:          frag4-411-54/48856
# Creation time: Sat Jun  5 12:51:57 2010


@<TRIPOS>MOLECULE
frag4-411-54/48856
   33    36     1     1     1
SMALL
USER_CHARGES


@<TRIPOS>ATOM
      1 N1          4.6630    2.9367    1.5587 N.4        1 <1>        0.000
      2 C1          4.1857    1.6853    0.9195 C.3        1 <1>        0.000
      3 C2          2.7196    1.8329    0.4279 C.3        1 <1>        0.000
      4 C3          2.2699    0.4994   -0.2007 C.ar       1 <1>        0.000
      5 C4          3.2063   -0.2460   -0.9262 C.ar       1 <1>        0.000
      6 C5          2.8413   -1.5230   -1.3793 C.ar       1 <1>        0.000
      7 C6          1.5387   -1.9931   -1.2081 C.ar       1 <1>        0.000
      8 C7          0.5918   -1.2038   -0.5501 C.ar       1 <1>        0.000
      9 C36         5.2998   -0.0013   -2.3120 C.ar       1 <1>        0.000
     10 C8          0.9614    0.0442   -0.0379 C.ar       1 <1>        0.000
     11 C31         4.5407    0.3365   -1.1815 C.ar       1 <1>        0.000
     12 C32         5.0655    1.2636   -0.2698 C.ar       1 <1>        0.000
     13 C33         6.3444    1.7893   -0.4381 C.ar       1 <1>        0.000
     14 C34         7.1187    1.3890   -1.5321 C.ar       1 <1>        0.000
     15 C35         6.5914    0.4996   -2.4737 C.ar       1 <1>        0.000
     16 C40         6.9251    2.8124    0.5500 C.3        1 <1>        0.000
     17 C41         6.1103    2.8498    1.8703 C.3        1 <1>        0.000
     18 H           4.5111    3.7134    0.9153 H.spc      1 <1>        0.000
     19 H           4.1475    3.0798    2.4272 H.spc      1 <1>        0.000
     20 H           4.2442    0.9126    1.6861 H.spc      1 <1>        0.000
     21 H           2.6569    2.6301   -0.3128 H.spc      1 <1>        0.000
     22 H           2.0716    2.0823    1.2681 H.spc      1 <1>        0.000
     23 H           3.5826   -2.1539   -1.8698 H.spc      1 <1>        0.000
     24 H           1.2598   -2.9761   -1.5877 H.spc      1 <1>        0.000
     25 H          -0.4322   -1.5597   -0.4363 H.spc      1 <1>        0.000
     26 H           4.8768   -0.6605   -3.0700 H.spc      1 <1>        0.000
     27 H           0.2297    0.6588    0.4865 H.spc      1 <1>        0.000
     28 H           8.1329    1.7702   -1.6507 H.spc      1 <1>        0.000
     29 H           7.1895    0.1980   -3.3336 H.spc      1 <1>        0.000
     30 H           7.9501    2.5247    0.7838 H.spc      1 <1>        0.000
     31 H           6.8844    3.7997    0.0899 H.spc      1 <1>        0.000
     32 H           6.3041    1.9420    2.4416 H.spc      1 <1>        0.000
     33 H           6.4079    3.7200    2.4553 H.spc      1 <1>        0.000
@<TRIPOS>BOND
     1    2   12 1  
     2    7    8 ar 
     3   11   12 ar 
     4    1   17 1  
     5    6    7 ar 
     6    8   10 ar 
     7    4    5 ar 
     8    2    3 1  
     9    4   10 ar 
    10    3    4 1  
    11    5   11 1  
    12    5    6 ar 
    13   16   17 1  
    14   14   15 ar 
    15   13   16 1  
    16   15    9 ar 
    17   13   14 ar 
    18   12   13 ar 
    19   11    9 ar 
    20    1    2 1  
    21    1   18 1  
    22    1   19 1  
    23    2   20 1  
    24    3   21 1  
    25    3   22 1  
    26    6   23 1  
    27    7   24 1  
    28    8   25 1  
    29    9   26 1  
    30   10   27 1  
    31   14   28 1  
    32   15   29 1  
    33   16   30 1  
    34   16   31 1  
    35   17   32 1  
    36   17   33 1  
# Name:          frag4-411-54/48856 -- energy: -3.410705
# Creation time: Sat Jun  5 12:51:57 2010


@<TRIPOS>MOLECULE
frag4-411-54/48856 -- energy: -3.410705
   33    36     1     1     1
SMALL
USER_CHARGES


@<TRIPOS>ATOM
      1 N1          4.6630    2.9367    1.5587 N.4        1 <1>        0.000
      2 C1          4.1857    1.6853    0.9195 C.3        1 <1>        0.000
      3 C2          2.7196    1.8329    0.4279 C.3        1 <1>        0.000
      4 C3          2.2699    0.4994   -0.2007 C.ar       1 <1>        0.000
      5 C4          3.2063   -0.2460   -0.9262 C.ar       1 <1>        0.000
      6 C5          2.8413   -1.5230   -1.3793 C.ar       1 <1>        0.000
      7 C6          1.5387   -1.9931   -1.2081 C.ar       1 <1>        0.000
      8 C7          0.5918   -1.2038   -0.5501 C.ar       1 <1>        0.000
      9 C36         5.2998   -0.0013   -2.3120 C.ar       1 <1>        0.000
     10 C8          0.9614    0.0442   -0.0379 C.ar       1 <1>        0.000
     11 C31         4.5407    0.3365   -1.1815 C.ar       1 <1>        0.000
     12 C32         5.0655    1.2636   -0.2698 C.ar       1 <1>        0.000
     13 C33         6.3444    1.7893   -0.4381 C.ar       1 <1>        0.000
     14 C34         7.1187    1.3890   -1.5321 C.ar       1 <1>        0.000
     15 C35         6.5914    0.4996   -2.4737 C.ar       1 <1>        0.000
     16 C40         6.9251    2.8124    0.5500 C.3        1 <1>        0.000
     17 C41         6.1103    2.8498    1.8703 C.3        1 <1>        0.000
     18 H           4.5111    3.7134    0.9153 H.spc      1 <1>        0.000
     19 H           4.1475    3.0798    2.4272 H.spc      1 <1>        0.000
     20 H           4.2442    0.9126    1.6861 H.spc      1 <1>        0.000
     21 H           2.6569    2.6301   -0.3128 H.spc      1 <1>        0.000
     22 H           2.0716    2.0823    1.2681 H.spc      1 <1>        0.000
     23 H           3.5826   -2.1539   -1.8698 H.spc      1 <1>        0.000
     24 H           1.2598   -2.9761   -1.5877 H.spc      1 <1>        0.000
     25 H          -0.4322   -1.5597   -0.4363 H.spc      1 <1>        0.000
     26 H           4.8768   -0.6605   -3.0700 H.spc      1 <1>        0.000
     27 H           0.2297    0.6588    0.4865 H.spc      1 <1>        0.000
     28 H           8.1329    1.7702   -1.6507 H.spc      1 <1>        0.000
     29 H           7.1895    0.1980   -3.3336 H.spc      1 <1>        0.000
     30 H           7.9501    2.5247    0.7838 H.spc      1 <1>        0.000
     31 H           6.8844    3.7997    0.0899 H.spc      1 <1>        0.000
     32 H           6.3041    1.9420    2.4416 H.spc      1 <1>        0.000
     33 H           6.4079    3.7200    2.4553 H.spc      1 <1>        0.000
@<TRIPOS>BOND
     1    2   12 1  
     2    7    8 ar 
     3   11   12 ar 
     4    1   17 1  
     5    6    7 ar 
     6    8   10 ar 
     7    4    5 ar 
     8    2    3 1  
     9    4   10 ar 
    10    3    4 1  
    11    5   11 1  
    12    5    6 ar 
    13   16   17 1  
    14   14   15 ar 
    15   13   16 1  
    16   15    9 ar 
    17   13   14 ar 
    18   12   13 ar 
    19   11    9 ar 
    20    1    2 1  
    21    1   18 1  
    22    1   19 1  
    23    2   20 1  
    24    3   21 1  
    25    3   22 1  
    26    6   23 1  
    27    7   24 1  
    28    8   25 1  
    29    9   26 1  
    30   10   27 1  
    31   14   28 1  
    32   15   29 1  
    33   16   30 1  
    34   16   31 1  
    35   17   32 1  
    36   17   33 1  
