#      Rotatable Fragment
#      Build by yxyuan
#
# Name:          frag3-279-2/31924
# Creation time: Sat Jun  5 12:52:44 2010


@<TRIPOS>MOLECULE
frag3-279-2/31924
    6     5     1     1     1
SMALL
USER_CHARGES


@<TRIPOS>ATOM
      1 Br1        -0.5992    2.1161   -0.0325 Br         1 <1>        0.000
      2 C1          0.2642    0.4561    0.1569 C.2        1 <1>        0.000
      3 C2         -0.3802   -0.6560   -0.2251 C.2        1 <1>        0.000
      4 Br2         2.0006    0.3041    0.8644 Br         1 <1>        0.000
      5 H           0.1027   -1.6279   -0.1234 H.spc      1 <1>        0.000
      6 H          -1.3869   -0.5882   -0.6374 H.spc      1 <1>        0.000
@<TRIPOS>BOND
     1    1    2 1  
     2    2    3 2  
     3    2    4 1  
     4    3    5 1  
     5    3    6 1  
# Name:          frag3-279-2/31924 -- energy: -0.174470
# Creation time: Sat Jun  5 12:52:44 2010


@<TRIPOS>MOLECULE
frag3-279-2/31924 -- energy: -0.174470
    6     5     1     1     1
SMALL
USER_CHARGES


@<TRIPOS>ATOM
      1 Br1        -0.5992    2.1161   -0.0325 Br         1 <1>        0.000
      2 C1          0.2642    0.4561    0.1569 C.2        1 <1>        0.000
      3 C2         -0.3802   -0.6560   -0.2251 C.2        1 <1>        0.000
      4 Br2         2.0006    0.3041    0.8644 Br         1 <1>        0.000
      5 H           0.1027   -1.6279   -0.1234 H.spc      1 <1>        0.000
      6 H          -1.3869   -0.5882   -0.6374 H.spc      1 <1>        0.000
@<TRIPOS>BOND
     1    1    2 1  
     2    2    3 2  
     3    2    4 1  
     4    3    5 1  
     5    3    6 1  
