#      Rotatable Fragment
#      Build by yxyuan
#
# Name:          frag4-456-109/150395
# Creation time: Sat Jun  5 12:53:37 2010


@<TRIPOS>MOLECULE
frag4-456-109/150395
   17    18     1     1     1
SMALL
USER_CHARGES


@<TRIPOS>ATOM
      1 C2          2.4484    0.5022   -0.0263 C.ar       1 <1>        0.000
      2 C5          1.2735    1.3725    0.0417 C.ar       1 <1>        0.000
      3 N1          2.3822   -0.7891   -0.0175 N.ar       1 <1>        0.000
      4 C9          0.0741    0.7436    0.0439 C.ar       1 <1>        0.000
      5 C10         1.1747   -1.4066    0.0119 C.ar       1 <1>        0.000
      6 C14         0.0183   -0.7618    0.0219 C.ar       1 <1>        0.000
      7 C15        -1.1980    1.4826    0.0315 C.ar       1 <1>        0.000
      8 C17        -1.3144   -1.3794   -0.0161 C.ar       1 <1>        0.000
      9 C18        -2.3814    0.8275   -0.0144 C.ar       1 <1>        0.000
     10 C19        -2.4376   -0.6158   -0.0279 C.ar       1 <1>        0.000
     11 H           3.4321    0.9677   -0.0877 H.spc      1 <1>        0.000
     12 H           1.3585    2.4582    0.0877 H.spc      1 <1>        0.000
     13 H           1.1553   -2.4963    0.0282 H.spc      1 <1>        0.000
     14 H          -1.1872    2.5722    0.0597 H.spc      1 <1>        0.000
     15 H          -1.4029   -2.4656   -0.0351 H.spc      1 <1>        0.000
     16 H          -3.3089    1.3994   -0.0417 H.spc      1 <1>        0.000
     17 H          -3.4105   -1.1068   -0.0482 H.spc      1 <1>        0.000
@<TRIPOS>BOND
     1    7    9 ar 
     2    5    6 ar 
     3    8   10 ar 
     4    9   10 ar 
     5    4    7 ar 
     6    6    8 ar 
     7    1    3 ar 
     8    1    2 ar 
     9    2    4 ar 
    10    3    5 ar 
    11    4    6 ar 
    12    1   11 1  
    13    2   12 1  
    14    5   13 1  
    15    7   14 1  
    16    8   15 1  
    17    9   16 1  
    18   10   17 1  
# Name:          frag4-456-109/150395 -- energy: -0.386956
# Creation time: Sat Jun  5 12:53:37 2010


@<TRIPOS>MOLECULE
frag4-456-109/150395 -- energy: -0.386956
   17    18     1     1     1
SMALL
USER_CHARGES


@<TRIPOS>ATOM
      1 C2          2.4484    0.5022   -0.0263 C.ar       1 <1>        0.000
      2 C5          1.2735    1.3725    0.0417 C.ar       1 <1>        0.000
      3 N1          2.3822   -0.7891   -0.0175 N.ar       1 <1>        0.000
      4 C9          0.0741    0.7436    0.0439 C.ar       1 <1>        0.000
      5 C10         1.1747   -1.4066    0.0119 C.ar       1 <1>        0.000
      6 C14         0.0183   -0.7618    0.0219 C.ar       1 <1>        0.000
      7 C15        -1.1980    1.4826    0.0315 C.ar       1 <1>        0.000
      8 C17        -1.3144   -1.3794   -0.0161 C.ar       1 <1>        0.000
      9 C18        -2.3814    0.8275   -0.0144 C.ar       1 <1>        0.000
     10 C19        -2.4376   -0.6158   -0.0279 C.ar       1 <1>        0.000
     11 H           3.4321    0.9677   -0.0877 H.spc      1 <1>        0.000
     12 H           1.3585    2.4582    0.0877 H.spc      1 <1>        0.000
     13 H           1.1553   -2.4963    0.0282 H.spc      1 <1>        0.000
     14 H          -1.1872    2.5722    0.0597 H.spc      1 <1>        0.000
     15 H          -1.4029   -2.4656   -0.0351 H.spc      1 <1>        0.000
     16 H          -3.3089    1.3994   -0.0417 H.spc      1 <1>        0.000
     17 H          -3.4105   -1.1068   -0.0482 H.spc      1 <1>        0.000
@<TRIPOS>BOND
     1    7    9 ar 
     2    5    6 ar 
     3    8   10 ar 
     4    9   10 ar 
     5    4    7 ar 
     6    6    8 ar 
     7    1    3 ar 
     8    1    2 ar 
     9    2    4 ar 
    10    3    5 ar 
    11    4    6 ar 
    12    1   11 1  
    13    2   12 1  
    14    5   13 1  
    15    7   14 1  
    16    8   15 1  
    17    9   16 1  
    18   10   17 1  
