#      Rotatable Fragment
#      Build by yxyuan
#
# Name:          frag4-461-105/150395
# Creation time: Sat Jun  5 12:53:37 2010


@<TRIPOS>MOLECULE
frag4-461-105/150395
   12    12     1     1     1
SMALL
USER_CHARGES


@<TRIPOS>ATOM
      1 C1         -0.7088   -0.1011    0.4277 C.3        1 <1>        0.000
      2 S1          0.5144    1.1100    0.7342 S.3        1 <1>        0.000
      3 C3         -0.1308   -1.4334    0.0889 C.3        1 <1>        0.000
      4 C6          1.7656   -0.1151    0.4312 C.3        1 <1>        0.000
      5 N1          1.2811   -1.3688   -0.0673 N.3        1 <1>        0.000
      6 H          -1.3021    0.2317   -0.4240 H.spc      1 <1>        0.000
      7 H          -1.3006   -0.2152    1.3359 H.spc      1 <1>        0.000
      8 H          -0.5660   -1.7675   -0.8530 H.spc      1 <1>        0.000
      9 H          -0.3554   -2.1227    0.9029 H.spc      1 <1>        0.000
     10 H           2.2415   -0.3214    1.3899 H.spc      1 <1>        0.000
     11 H           2.4255    0.2930   -0.3343 H.spc      1 <1>        0.000
     12 H           1.5160   -1.4529   -1.0563 H.spc      1 <1>        0.000
@<TRIPOS>BOND
     1    1    2 1  
     2    1    3 1  
     3    2    4 1  
     4    3    5 1  
     5    4    5 1  
     6    1    6 1  
     7    1    7 1  
     8    3    8 1  
     9    3    9 1  
    10    4   10 1  
    11    4   11 1  
    12    5   12 1  
# Name:          frag4-461-105/150395 -- energy: -0.555646
# Creation time: Sat Jun  5 12:53:37 2010


@<TRIPOS>MOLECULE
frag4-461-105/150395 -- energy: -0.555646
   12    12     1     1     1
SMALL
USER_CHARGES


@<TRIPOS>ATOM
      1 C1         -0.7088   -0.1011    0.4277 C.3        1 <1>        0.000
      2 S1          0.5144    1.1100    0.7342 S.3        1 <1>        0.000
      3 C3         -0.1308   -1.4334    0.0889 C.3        1 <1>        0.000
      4 C6          1.7656   -0.1151    0.4312 C.3        1 <1>        0.000
      5 N1          1.2811   -1.3688   -0.0673 N.3        1 <1>        0.000
      6 H          -1.3021    0.2317   -0.4240 H.spc      1 <1>        0.000
      7 H          -1.3006   -0.2152    1.3359 H.spc      1 <1>        0.000
      8 H          -0.5660   -1.7675   -0.8530 H.spc      1 <1>        0.000
      9 H          -0.3554   -2.1227    0.9029 H.spc      1 <1>        0.000
     10 H           2.2415   -0.3214    1.3899 H.spc      1 <1>        0.000
     11 H           2.4255    0.2930   -0.3343 H.spc      1 <1>        0.000
     12 H           1.5160   -1.4529   -1.0563 H.spc      1 <1>        0.000
@<TRIPOS>BOND
     1    1    2 1  
     2    1    3 1  
     3    2    4 1  
     4    3    5 1  
     5    4    5 1  
     6    1    6 1  
     7    1    7 1  
     8    3    8 1  
     9    3    9 1  
    10    4   10 1  
    11    4   11 1  
    12    5   12 1  
