#      Rotatable Fragment
#      Build by yxyuan
#
# Name:          frag5-681-61/138278
# Creation time: Sat Jun  5 12:51:55 2010


@<TRIPOS>MOLECULE
frag5-681-61/138278
   20    21     1     1     1
SMALL
USER_CHARGES


@<TRIPOS>ATOM
      1 C1         -1.3721    1.0605   -0.0356 C.ar       1 <1>        0.000
      2 C2         -1.1576   -0.3312   -0.0164 C.ar       1 <1>        0.000
      3 C3         -0.0881    1.7603   -0.1987 C.3        1 <1>        0.000
      4 C4         -2.6475    1.5216    0.0511 C.ar       1 <1>        0.000
      5 C5          0.2665   -0.6509   -0.0926 C.3        1 <1>        0.000
      6 C6         -2.3017   -1.1415    0.0297 C.ar       1 <1>        0.000
      7 C7          0.8891    0.6581   -0.4965 C.3        1 <1>        0.000
      8 C8         -3.7275    0.6363    0.0737 C.ar       1 <1>        0.000
      9 C9         -3.6164   -0.7405    0.0558 C.ar       1 <1>        0.000
     10 O1         -4.6646   -1.5763    0.0545 O.3        1 <1>        0.000
     11 H          -0.1222    2.5084   -0.9907 H.spc      1 <1>        0.000
     12 H           0.1884    2.3300    0.6885 H.spc      1 <1>        0.000
     13 H          -2.8298    2.5950    0.1036 H.spc      1 <1>        0.000
     14 H           0.6633   -1.0339    0.8476 H.spc      1 <1>        0.000
     15 H           0.4808   -1.4546   -0.7971 H.spc      1 <1>        0.000
     16 H          -2.1276   -2.2174    0.0469 H.spc      1 <1>        0.000
     17 H           1.1249    0.6463   -1.5606 H.spc      1 <1>        0.000
     18 H           1.8130    0.8187    0.0590 H.spc      1 <1>        0.000
     19 H          -4.7302    1.0624    0.1079 H.spc      1 <1>        0.000
     20 H          -5.4783   -1.0673    0.0756 H.spc      1 <1>        0.000
@<TRIPOS>BOND
     1    9   10 1  
     2    5    7 1  
     3    6    9 ar 
     4    3    7 1  
     5    4    8 ar 
     6    1    2 ar 
     7    1    3 1  
     8    1    4 ar 
     9    2    5 1  
    10    2    6 ar 
    11    8    9 ar 
    12    3   11 1  
    13    3   12 1  
    14    4   13 1  
    15    5   14 1  
    16    5   15 1  
    17    6   16 1  
    18    7   17 1  
    19    7   18 1  
    20    8   19 1  
    21   10   20 1  
# Name:          frag5-681-61/138278 -- energy: -1.053268
# Creation time: Sat Jun  5 12:51:55 2010


@<TRIPOS>MOLECULE
frag5-681-61/138278 -- energy: -1.053268
   20    21     1     1     1
SMALL
USER_CHARGES


@<TRIPOS>ATOM
      1 C1         -1.3721    1.0605   -0.0356 C.ar       1 <1>        0.000
      2 C2         -1.1576   -0.3312   -0.0164 C.ar       1 <1>        0.000
      3 C3         -0.0881    1.7603   -0.1987 C.3        1 <1>        0.000
      4 C4         -2.6475    1.5216    0.0511 C.ar       1 <1>        0.000
      5 C5          0.2665   -0.6509   -0.0926 C.3        1 <1>        0.000
      6 C6         -2.3017   -1.1415    0.0297 C.ar       1 <1>        0.000
      7 C7          0.8891    0.6581   -0.4965 C.3        1 <1>        0.000
      8 C8         -3.7275    0.6363    0.0737 C.ar       1 <1>        0.000
      9 C9         -3.6164   -0.7405    0.0558 C.ar       1 <1>        0.000
     10 O1         -4.6646   -1.5763    0.0545 O.3        1 <1>        0.000
     11 H          -0.1222    2.5084   -0.9907 H.spc      1 <1>        0.000
     12 H           0.1884    2.3300    0.6885 H.spc      1 <1>        0.000
     13 H          -2.8298    2.5950    0.1036 H.spc      1 <1>        0.000
     14 H           0.6633   -1.0339    0.8476 H.spc      1 <1>        0.000
     15 H           0.4808   -1.4546   -0.7971 H.spc      1 <1>        0.000
     16 H          -2.1276   -2.2174    0.0469 H.spc      1 <1>        0.000
     17 H           1.1249    0.6463   -1.5606 H.spc      1 <1>        0.000
     18 H           1.8130    0.8187    0.0590 H.spc      1 <1>        0.000
     19 H          -4.7302    1.0624    0.1079 H.spc      1 <1>        0.000
     20 H          -5.4783   -1.0673    0.0756 H.spc      1 <1>        0.000
@<TRIPOS>BOND
     1    9   10 1  
     2    5    7 1  
     3    6    9 ar 
     4    3    7 1  
     5    4    8 ar 
     6    1    2 ar 
     7    1    3 1  
     8    1    4 ar 
     9    2    5 1  
    10    2    6 ar 
    11    8    9 ar 
    12    3   11 1  
    13    3   12 1  
    14    4   13 1  
    15    5   14 1  
    16    5   15 1  
    17    6   16 1  
    18    7   17 1  
    19    7   18 1  
    20    8   19 1  
    21   10   20 1  
