#      Rotatable Fragment
#      Build by yxyuan
#
# Name:          frag5-560-154/138278
# Creation time: Sat Jun  5 12:53:43 2010


@<TRIPOS>MOLECULE
frag5-560-154/138278
   10    10     1     1     1
SMALL
USER_CHARGES


@<TRIPOS>ATOM
      1 C10         1.8164    0.6235   -0.3133 C.3        1 <1>        0.000
      2 O5          3.2528    0.6455   -0.1872 O.3        1 <1>        0.000
      3 C11         1.3941    2.0610   -0.1325 C.2        1 <1>        0.000
      4 C12         3.5686    1.9176    0.0339 C.2        1 <1>        0.000
      5 C13         2.4465    2.8503    0.0781 C.2        1 <1>        0.000
      6 O6          4.7239    2.2774    0.1893 O.2        1 <1>        0.000
      7 H           1.3534   -0.0323    0.4241 H.spc      1 <1>        0.000
      8 H           1.4987    0.2243   -1.2766 H.spc      1 <1>        0.000
      9 H           0.3616    2.4085   -0.1694 H.spc      1 <1>        0.000
     10 H           2.4651    3.9276    0.2429 H.spc      1 <1>        0.000
@<TRIPOS>BOND
     1    1    2 1  
     2    1    3 1  
     3    2    4 1  
     4    3    5 2  
     5    4    6 2  
     6    4    5 1  
     7    1    7 1  
     8    1    8 1  
     9    3    9 1  
    10    5   10 1  
# Name:          frag5-560-154/138278 -- energy: -0.428027
# Creation time: Sat Jun  5 12:53:43 2010


@<TRIPOS>MOLECULE
frag5-560-154/138278 -- energy: -0.428027
   10    10     1     1     1
SMALL
USER_CHARGES


@<TRIPOS>ATOM
      1 C10         1.8164    0.6235   -0.3133 C.3        1 <1>        0.000
      2 O5          3.2528    0.6455   -0.1872 O.3        1 <1>        0.000
      3 C11         1.3941    2.0610   -0.1325 C.2        1 <1>        0.000
      4 C12         3.5686    1.9176    0.0339 C.2        1 <1>        0.000
      5 C13         2.4465    2.8503    0.0781 C.2        1 <1>        0.000
      6 O6          4.7239    2.2774    0.1893 O.2        1 <1>        0.000
      7 H           1.3534   -0.0323    0.4241 H.spc      1 <1>        0.000
      8 H           1.4987    0.2243   -1.2766 H.spc      1 <1>        0.000
      9 H           0.3616    2.4085   -0.1694 H.spc      1 <1>        0.000
     10 H           2.4651    3.9276    0.2429 H.spc      1 <1>        0.000
@<TRIPOS>BOND
     1    1    2 1  
     2    1    3 1  
     3    2    4 1  
     4    3    5 2  
     5    4    6 2  
     6    4    5 1  
     7    1    7 1  
     8    1    8 1  
     9    3    9 1  
    10    5   10 1  
