#      Rotatable Fragment
#      Build by yxyuan
#
# Name:          frag2-074-1/92655
# Creation time: Sat Jun  5 12:51:58 2010


@<TRIPOS>MOLECULE
frag2-074-1/92655
   22    24     1     1     1
SMALL
USER_CHARGES


@<TRIPOS>ATOM
      1 N1         -2.4775    1.3874   -0.2899 N.ar       1 <1>        0.000
      2 C1         -1.2656    0.8007   -0.1673 C.ar       1 <1>        0.000
      3 C2         -1.1811   -0.5686    0.1157 C.ar       1 <1>        0.000
      4 C3          0.0772   -1.1700    0.2407 C.ar       1 <1>        0.000
      5 C4          1.2462   -0.4134    0.0864 C.ar       1 <1>        0.000
      6 C5          1.1492    0.9542   -0.1964 C.ar       1 <1>        0.000
      7 N2          2.2757    1.6882   -0.3468 N.ar       1 <1>        0.000
      8 C6          3.5067    1.1503   -0.2329 C.ar       1 <1>        0.000
      9 C7          3.6492   -0.1995    0.0469 C.ar       1 <1>        0.000
     10 C8          2.5168   -0.9885    0.2075 C.ar       1 <1>        0.000
     11 C10        -0.1023    1.5483   -0.3205 C.ar       1 <1>        0.000
     12 C12        -2.3661   -1.3009    0.2663 C.ar       1 <1>        0.000
     13 C13        -3.5928   -0.6608    0.1319 C.ar       1 <1>        0.000
     14 C14        -3.6275    0.6974   -0.1486 C.ar       1 <1>        0.000
     15 H           0.1478   -2.2354    0.4598 H.spc      1 <1>        0.000
     16 H           4.3895    1.7768   -0.3608 H.spc      1 <1>        0.000
     17 H           4.6423   -0.6390    0.1403 H.spc      1 <1>        0.000
     18 H           2.6174   -2.0514    0.4270 H.spc      1 <1>        0.000
     19 H          -0.1726    2.6135   -0.5407 H.spc      1 <1>        0.000
     20 H          -2.3263   -2.3674    0.4878 H.spc      1 <1>        0.000
     21 H          -4.5203   -1.2218    0.2460 H.spc      1 <1>        0.000
     22 H          -4.5850    1.2072   -0.2549 H.spc      1 <1>        0.000
@<TRIPOS>BOND
     1    2    3 ar 
     2   12   13 ar 
     3    7    8 ar 
     4    6    7 ar 
     5    5   10 ar 
     6   13   14 ar 
     7    6   11 ar 
     8    4    5 ar 
     9    9   10 ar 
    10    2   11 ar 
    11    5    6 ar 
    12    3   12 ar 
    13    3    4 ar 
    14    1    2 ar 
    15    1   14 ar 
    16    8    9 ar 
    17    4   15 1  
    18    8   16 1  
    19    9   17 1  
    20   10   18 1  
    21   11   19 1  
    22   12   20 1  
    23   13   21 1  
    24   14   22 1  
# Name:          frag2-074-1/92655 -- energy: -0.356171
# Creation time: Sat Jun  5 12:51:58 2010


@<TRIPOS>MOLECULE
frag2-074-1/92655 -- energy: -0.356171
   22    24     1     1     1
SMALL
USER_CHARGES


@<TRIPOS>ATOM
      1 N1         -2.4775    1.3874   -0.2899 N.ar       1 <1>        0.000
      2 C1         -1.2656    0.8007   -0.1673 C.ar       1 <1>        0.000
      3 C2         -1.1811   -0.5686    0.1157 C.ar       1 <1>        0.000
      4 C3          0.0772   -1.1700    0.2407 C.ar       1 <1>        0.000
      5 C4          1.2462   -0.4134    0.0864 C.ar       1 <1>        0.000
      6 C5          1.1492    0.9542   -0.1964 C.ar       1 <1>        0.000
      7 N2          2.2757    1.6882   -0.3468 N.ar       1 <1>        0.000
      8 C6          3.5067    1.1503   -0.2329 C.ar       1 <1>        0.000
      9 C7          3.6492   -0.1995    0.0469 C.ar       1 <1>        0.000
     10 C8          2.5168   -0.9885    0.2075 C.ar       1 <1>        0.000
     11 C10        -0.1023    1.5483   -0.3205 C.ar       1 <1>        0.000
     12 C12        -2.3661   -1.3009    0.2663 C.ar       1 <1>        0.000
     13 C13        -3.5928   -0.6608    0.1319 C.ar       1 <1>        0.000
     14 C14        -3.6275    0.6974   -0.1486 C.ar       1 <1>        0.000
     15 H           0.1478   -2.2354    0.4598 H.spc      1 <1>        0.000
     16 H           4.3895    1.7768   -0.3608 H.spc      1 <1>        0.000
     17 H           4.6423   -0.6390    0.1403 H.spc      1 <1>        0.000
     18 H           2.6174   -2.0514    0.4270 H.spc      1 <1>        0.000
     19 H          -0.1726    2.6135   -0.5407 H.spc      1 <1>        0.000
     20 H          -2.3263   -2.3674    0.4878 H.spc      1 <1>        0.000
     21 H          -4.5203   -1.2218    0.2460 H.spc      1 <1>        0.000
     22 H          -4.5850    1.2072   -0.2549 H.spc      1 <1>        0.000
@<TRIPOS>BOND
     1    2    3 ar 
     2   12   13 ar 
     3    7    8 ar 
     4    6    7 ar 
     5    5   10 ar 
     6   13   14 ar 
     7    6   11 ar 
     8    4    5 ar 
     9    9   10 ar 
    10    2   11 ar 
    11    5    6 ar 
    12    3   12 ar 
    13    3    4 ar 
    14    1    2 ar 
    15    1   14 ar 
    16    8    9 ar 
    17    4   15 1  
    18    8   16 1  
    19    9   17 1  
    20   10   18 1  
    21   11   19 1  
    22   12   20 1  
    23   13   21 1  
    24   14   22 1  
