#      Rotatable Fragment
#      Build by yxyuan
#
# Name:          frag5-528-292/138278
# Creation time: Sat Jun  5 12:53:41 2010


@<TRIPOS>MOLECULE
frag5-528-292/138278
   19    19     1     1     1
SMALL
USER_CHARGES


@<TRIPOS>ATOM
      1 N1          1.0450   -1.1527    1.0833 N.4        1 <1>        0.000
      2 C7          1.4868   -1.5652   -0.2709 C.3        1 <1>        0.000
      3 C8         -0.2707   -1.6229    1.5676 C.3        1 <1>        0.000
      4 C15         0.5995   -2.5221   -1.0463 C.3        1 <1>        0.000
      5 C16        -1.0873   -2.5443    0.6694 C.3        1 <1>        0.000
      6 N3         -0.1987   -3.3536   -0.1417 N.am       1 <1>        0.000
      7 C19         0.4029   -4.4773    0.4074 C.2        1 <1>        0.000
      8 O1          1.5872   -4.7699    0.3945 O.2        1 <1>        0.000
      9 H           0.9669   -0.1366    1.0411 H.spc      1 <1>        0.000
     10 H           1.7268   -1.5608    1.7229 H.spc      1 <1>        0.000
     11 H           2.4257   -2.0979   -0.1200 H.spc      1 <1>        0.000
     12 H           1.5097   -0.6486   -0.8603 H.spc      1 <1>        0.000
     13 H          -0.0532   -2.2119    2.4586 H.spc      1 <1>        0.000
     14 H          -0.8739   -0.7215    1.6760 H.spc      1 <1>        0.000
     15 H          -0.0768   -1.9402   -1.6724 H.spc      1 <1>        0.000
     16 H           1.2325   -3.1726   -1.6499 H.spc      1 <1>        0.000
     17 H          -1.7046   -3.1961    1.2877 H.spc      1 <1>        0.000
     18 H          -1.7221   -1.9432    0.0184 H.spc      1 <1>        0.000
     19 H          -0.2609   -5.1813    0.9093 H.spc      1 <1>        0.000
@<TRIPOS>BOND
     1    7    8 2  
     2    6    7 am 
     3    5    6 1  
     4    4    6 1  
     5    3    5 1  
     6    1    2 1  
     7    1    3 1  
     8    2    4 1  
     9    1    9 1  
    10    1   10 1  
    11    2   11 1  
    12    2   12 1  
    13    3   13 1  
    14    3   14 1  
    15    4   15 1  
    16    4   16 1  
    17    5   17 1  
    18    5   18 1  
    19    7   19 1  
# Name:          frag5-528-292/138278
# Creation time: Sat Jun  5 12:53:41 2010


@<TRIPOS>MOLECULE
frag5-528-292/138278
   19    19     1     1     1
SMALL
USER_CHARGES


@<TRIPOS>ATOM
      1 N1          0.5182   -0.5216    0.6413 N.4        1 <1>        0.000
      2 C7         -0.3831   -1.3351    1.4537 C.3        1 <1>        0.000
      3 C8          1.5242   -1.3758    0.0078 C.3        1 <1>        0.000
      4 C15        -0.8571   -2.6555    0.8929 C.3        1 <1>        0.000
      5 C16         0.9772   -2.5917   -0.6965 C.3        1 <1>        0.000
      6 N3          0.1824   -3.3967    0.2154 N.am       1 <1>        0.000
      7 C19         0.5063   -4.6835    0.4460 C.2        1 <1>        0.000
      8 O1          1.0969   -5.4481   -0.2973 O.2        1 <1>        0.000
      9 H           0.9843    0.1622    1.2376 H.spc      1 <1>        0.000
     10 H          -0.0195   -0.0422   -0.0808 H.spc      1 <1>        0.000
     11 H          -1.2844   -0.7336    1.5718 H.spc      1 <1>        0.000
     12 H           0.1877   -1.5910    2.3464 H.spc      1 <1>        0.000
     13 H           2.0189   -0.7692   -0.7508 H.spc      1 <1>        0.000
     14 H           2.1740   -1.7395    0.8038 H.spc      1 <1>        0.000
     15 H          -1.2025   -3.2631    1.7294 H.spc      1 <1>        0.000
     16 H          -1.6377   -2.4415    0.1628 H.spc      1 <1>        0.000
     17 H           0.3453   -2.2666   -1.5230 H.spc      1 <1>        0.000
     18 H           1.8099   -3.1919   -1.0632 H.spc      1 <1>        0.000
     19 H           0.2046   -5.0893    1.4116 H.spc      1 <1>        0.000
@<TRIPOS>BOND
     1    7    8 2  
     2    6    7 am 
     3    5    6 1  
     4    4    6 1  
     5    3    5 1  
     6    1    2 1  
     7    1    3 1  
     8    2    4 1  
     9    1    9 1  
    10    1   10 1  
    11    2   11 1  
    12    2   12 1  
    13    3   13 1  
    14    3   14 1  
    15    4   15 1  
    16    4   16 1  
    17    5   17 1  
    18    5   18 1  
    19    7   19 1  
# Name:          frag5-528-292/138278
# Creation time: Sat Jun  5 12:53:41 2010


@<TRIPOS>MOLECULE
frag5-528-292/138278
   19    19     1     1     1
SMALL
USER_CHARGES


@<TRIPOS>ATOM
      1 N1          0.9829   -0.9854    1.0347 N.4        1 <1>        0.000
      2 C7          1.3079   -1.1828   -0.3922 C.3        1 <1>        0.000
      3 C8         -0.3122   -1.5053    1.4971 C.3        1 <1>        0.000
      4 C15         0.5099   -2.2832   -1.0667 C.3        1 <1>        0.000
      5 C16        -0.7389   -2.8567    0.9054 C.3        1 <1>        0.000
      6 N3          0.1366   -3.3350   -0.1477 N.am       1 <1>        0.000
      7 C19         0.8512   -4.5046   -0.0227 C.2        1 <1>        0.000
      8 O1          0.8274   -5.3550    0.8555 O.2        1 <1>        0.000
      9 H           0.9465    0.0240    1.1768 H.spc      1 <1>        0.000
     10 H           1.6933   -1.4977    1.5574 H.spc      1 <1>        0.000
     11 H           2.3583   -1.4689   -0.4457 H.spc      1 <1>        0.000
     12 H           1.0706   -0.2520   -0.9074 H.spc      1 <1>        0.000
     13 H          -0.2175   -1.6560    2.5725 H.spc      1 <1>        0.000
     14 H          -1.0643   -0.7809    1.1845 H.spc      1 <1>        0.000
     15 H          -0.4042   -1.8421   -1.4640 H.spc      1 <1>        0.000
     16 H           1.1323   -2.7218   -1.8467 H.spc      1 <1>        0.000
     17 H          -0.7091   -3.5895    1.7118 H.spc      1 <1>        0.000
     18 H          -1.7294   -2.7237    0.4703 H.spc      1 <1>        0.000
     19 H           1.5492   -4.7045   -0.8357 H.spc      1 <1>        0.000
@<TRIPOS>BOND
     1    7    8 2  
     2    6    7 am 
     3    5    6 1  
     4    4    6 1  
     5    3    5 1  
     6    1    2 1  
     7    1    3 1  
     8    2    4 1  
     9    1    9 1  
    10    1   10 1  
    11    2   11 1  
    12    2   12 1  
    13    3   13 1  
    14    3   14 1  
    15    4   15 1  
    16    4   16 1  
    17    5   17 1  
    18    5   18 1  
    19    7   19 1  
# Name:          frag5-528-292/138278 -- energy: -1.926472
# Creation time: Sat Jun  5 12:53:41 2010


@<TRIPOS>MOLECULE
frag5-528-292/138278 -- energy: -1.926472
   19    19     1     1     1
SMALL
USER_CHARGES


@<TRIPOS>ATOM
      1 N1          1.0450   -1.1527    1.0833 N.4        1 <1>        0.000
      2 C7          1.4868   -1.5652   -0.2709 C.3        1 <1>        0.000
      3 C8         -0.2707   -1.6229    1.5676 C.3        1 <1>        0.000
      4 C15         0.5995   -2.5221   -1.0463 C.3        1 <1>        0.000
      5 C16        -1.0873   -2.5443    0.6694 C.3        1 <1>        0.000
      6 N3         -0.1987   -3.3536   -0.1417 N.am       1 <1>        0.000
      7 C19         0.4029   -4.4773    0.4074 C.2        1 <1>        0.000
      8 O1          1.5872   -4.7699    0.3945 O.2        1 <1>        0.000
      9 H           0.9669   -0.1366    1.0411 H.spc      1 <1>        0.000
     10 H           1.7268   -1.5608    1.7229 H.spc      1 <1>        0.000
     11 H           2.4257   -2.0979   -0.1200 H.spc      1 <1>        0.000
     12 H           1.5097   -0.6486   -0.8603 H.spc      1 <1>        0.000
     13 H          -0.0532   -2.2119    2.4586 H.spc      1 <1>        0.000
     14 H          -0.8739   -0.7215    1.6760 H.spc      1 <1>        0.000
     15 H          -0.0768   -1.9402   -1.6724 H.spc      1 <1>        0.000
     16 H           1.2325   -3.1726   -1.6499 H.spc      1 <1>        0.000
     17 H          -1.7046   -3.1961    1.2877 H.spc      1 <1>        0.000
     18 H          -1.7221   -1.9432    0.0184 H.spc      1 <1>        0.000
     19 H          -0.2609   -5.1813    0.9093 H.spc      1 <1>        0.000
@<TRIPOS>BOND
     1    7    8 2  
     2    6    7 am 
     3    5    6 1  
     4    4    6 1  
     5    3    5 1  
     6    1    2 1  
     7    1    3 1  
     8    2    4 1  
     9    1    9 1  
    10    1   10 1  
    11    2   11 1  
    12    2   12 1  
    13    3   13 1  
    14    3   14 1  
    15    4   15 1  
    16    4   16 1  
    17    5   17 1  
    18    5   18 1  
    19    7   19 1  
# Name:          frag5-528-292/138278 -- energy: -1.724649
# Creation time: Sat Jun  5 12:53:41 2010


@<TRIPOS>MOLECULE
frag5-528-292/138278 -- energy: -1.724649
   19    19     1     1     1
SMALL
USER_CHARGES


@<TRIPOS>ATOM
      1 N1          0.5182   -0.5216    0.6413 N.4        1 <1>        0.000
      2 C7         -0.3831   -1.3351    1.4537 C.3        1 <1>        0.000
      3 C8          1.5242   -1.3758    0.0078 C.3        1 <1>        0.000
      4 C15        -0.8571   -2.6555    0.8929 C.3        1 <1>        0.000
      5 C16         0.9772   -2.5917   -0.6965 C.3        1 <1>        0.000
      6 N3          0.1824   -3.3967    0.2154 N.am       1 <1>        0.000
      7 C19         0.5063   -4.6835    0.4460 C.2        1 <1>        0.000
      8 O1          1.0969   -5.4481   -0.2973 O.2        1 <1>        0.000
      9 H           0.9843    0.1622    1.2376 H.spc      1 <1>        0.000
     10 H          -0.0195   -0.0422   -0.0808 H.spc      1 <1>        0.000
     11 H          -1.2844   -0.7336    1.5718 H.spc      1 <1>        0.000
     12 H           0.1877   -1.5910    2.3464 H.spc      1 <1>        0.000
     13 H           2.0189   -0.7692   -0.7508 H.spc      1 <1>        0.000
     14 H           2.1740   -1.7395    0.8038 H.spc      1 <1>        0.000
     15 H          -1.2025   -3.2631    1.7294 H.spc      1 <1>        0.000
     16 H          -1.6377   -2.4415    0.1628 H.spc      1 <1>        0.000
     17 H           0.3453   -2.2666   -1.5230 H.spc      1 <1>        0.000
     18 H           1.8099   -3.1919   -1.0632 H.spc      1 <1>        0.000
     19 H           0.2046   -5.0893    1.4116 H.spc      1 <1>        0.000
@<TRIPOS>BOND
     1    7    8 2  
     2    6    7 am 
     3    5    6 1  
     4    4    6 1  
     5    3    5 1  
     6    1    2 1  
     7    1    3 1  
     8    2    4 1  
     9    1    9 1  
    10    1   10 1  
    11    2   11 1  
    12    2   12 1  
    13    3   13 1  
    14    3   14 1  
    15    4   15 1  
    16    4   16 1  
    17    5   17 1  
    18    5   18 1  
    19    7   19 1  
# Name:          frag5-528-292/138278 -- energy: -1.698887
# Creation time: Sat Jun  5 12:53:41 2010


@<TRIPOS>MOLECULE
frag5-528-292/138278 -- energy: -1.698887
   19    19     1     1     1
SMALL
USER_CHARGES


@<TRIPOS>ATOM
      1 N1          0.9829   -0.9854    1.0347 N.4        1 <1>        0.000
      2 C7          1.3079   -1.1828   -0.3922 C.3        1 <1>        0.000
      3 C8         -0.3122   -1.5053    1.4971 C.3        1 <1>        0.000
      4 C15         0.5099   -2.2832   -1.0667 C.3        1 <1>        0.000
      5 C16        -0.7389   -2.8567    0.9054 C.3        1 <1>        0.000
      6 N3          0.1366   -3.3350   -0.1477 N.am       1 <1>        0.000
      7 C19         0.8512   -4.5046   -0.0227 C.2        1 <1>        0.000
      8 O1          0.8274   -5.3550    0.8555 O.2        1 <1>        0.000
      9 H           0.9465    0.0240    1.1768 H.spc      1 <1>        0.000
     10 H           1.6933   -1.4977    1.5574 H.spc      1 <1>        0.000
     11 H           2.3583   -1.4689   -0.4457 H.spc      1 <1>        0.000
     12 H           1.0706   -0.2520   -0.9074 H.spc      1 <1>        0.000
     13 H          -0.2175   -1.6560    2.5725 H.spc      1 <1>        0.000
     14 H          -1.0643   -0.7809    1.1845 H.spc      1 <1>        0.000
     15 H          -0.4042   -1.8421   -1.4640 H.spc      1 <1>        0.000
     16 H           1.1323   -2.7218   -1.8467 H.spc      1 <1>        0.000
     17 H          -0.7091   -3.5895    1.7118 H.spc      1 <1>        0.000
     18 H          -1.7294   -2.7237    0.4703 H.spc      1 <1>        0.000
     19 H           1.5492   -4.7045   -0.8357 H.spc      1 <1>        0.000
@<TRIPOS>BOND
     1    7    8 2  
     2    6    7 am 
     3    5    6 1  
     4    4    6 1  
     5    3    5 1  
     6    1    2 1  
     7    1    3 1  
     8    2    4 1  
     9    1    9 1  
    10    1   10 1  
    11    2   11 1  
    12    2   12 1  
    13    3   13 1  
    14    3   14 1  
    15    4   15 1  
    16    4   16 1  
    17    5   17 1  
    18    5   18 1  
    19    7   19 1  
