#      Rotatable Fragment
#      Build by yxyuan
#
# Name:          frag2-088-1/92655
# Creation time: Sat Jun  5 12:51:58 2010


@<TRIPOS>MOLECULE
frag2-088-1/92655
   28    31     1     1     1
SMALL
USER_CHARGES


@<TRIPOS>ATOM
      1 C4          0.7803   -2.2311   -0.9242 C.ar       1 <1>        0.000
      2 C5         -0.1579   -1.2845   -0.5238 C.ar       1 <1>        0.000
      3 N3         -1.4760   -1.5443   -0.6254 N.ar       1 <1>        0.000
      4 C6         -2.3997   -0.6372   -0.2450 C.ar       1 <1>        0.000
      5 C7         -1.9820    0.5904    0.2699 C.ar       1 <1>        0.000
      6 N4         -0.6577    0.8513    0.3757 N.ar       1 <1>        0.000
      7 C8          0.2682   -0.0541   -0.0136 C.ar       1 <1>        0.000
      8 C16        -2.9288    1.5358    0.6686 C.ar       1 <1>        0.000
      9 C9          1.6393    0.2332    0.0891 C.ar       1 <1>        0.000
     10 C10         2.5791   -0.7223   -0.3167 C.ar       1 <1>        0.000
     11 C11         2.1392   -1.9556   -0.8217 C.ar       1 <1>        0.000
     12 C12         3.9471   -0.4346   -0.2143 C.ar       1 <1>        0.000
     13 C13         4.3767    0.7907    0.2873 C.ar       1 <1>        0.000
     14 C14         3.4495    1.7395    0.6909 C.ar       1 <1>        0.000
     15 C15         2.0845    1.4663    0.5942 C.ar       1 <1>        0.000
     16 C17        -4.2895    1.2587    0.5500 C.ar       1 <1>        0.000
     17 C18        -4.7069    0.0324    0.0347 C.ar       1 <1>        0.000
     18 C19        -3.7640   -0.9151   -0.3611 C.ar       1 <1>        0.000
     19 H           0.4488   -3.1914   -1.3193 H.spc      1 <1>        0.000
     20 H          -2.6028    2.4937    1.0739 H.spc      1 <1>        0.000
     21 H           2.8680   -2.7028   -1.1358 H.spc      1 <1>        0.000
     22 H           4.6806   -1.1765   -0.5301 H.spc      1 <1>        0.000
     23 H           5.4428    1.0046    0.3629 H.spc      1 <1>        0.000
     24 H           3.7869    2.6987    1.0837 H.spc      1 <1>        0.000
     25 H           1.3588    2.2146    0.9127 H.spc      1 <1>        0.000
     26 H          -5.0264    1.9998    0.8597 H.spc      1 <1>        0.000
     27 H          -5.7708   -0.1856   -0.0588 H.spc      1 <1>        0.000
     28 H          -4.0917   -1.8743   -0.7618 H.spc      1 <1>        0.000
@<TRIPOS>BOND
     1   16   17 ar 
     2    4   18 ar 
     3   17   18 ar 
     4    4    5 ar 
     5    2    3 ar 
     6    8   16 ar 
     7    1   11 ar 
     8    5    6 ar 
     9    7    9 ar 
    10    9   15 ar 
    11   10   11 ar 
    12    1    2 ar 
    13    5    8 ar 
    14    6    7 ar 
    15    9   10 ar 
    16   14   15 ar 
    17   10   12 ar 
    18   12   13 ar 
    19    3    4 ar 
    20   13   14 ar 
    21    2    7 ar 
    22    1   19 1  
    23    8   20 1  
    24   11   21 1  
    25   12   22 1  
    26   13   23 1  
    27   14   24 1  
    28   15   25 1  
    29   16   26 1  
    30   17   27 1  
    31   18   28 1  
# Name:          frag2-088-1/92655 -- energy: -0.719498
# Creation time: Sat Jun  5 12:51:58 2010


@<TRIPOS>MOLECULE
frag2-088-1/92655 -- energy: -0.719498
   28    31     1     1     1
SMALL
USER_CHARGES


@<TRIPOS>ATOM
      1 C4          0.7803   -2.2311   -0.9242 C.ar       1 <1>        0.000
      2 C5         -0.1579   -1.2845   -0.5238 C.ar       1 <1>        0.000
      3 N3         -1.4760   -1.5443   -0.6254 N.ar       1 <1>        0.000
      4 C6         -2.3997   -0.6372   -0.2450 C.ar       1 <1>        0.000
      5 C7         -1.9820    0.5904    0.2699 C.ar       1 <1>        0.000
      6 N4         -0.6577    0.8513    0.3757 N.ar       1 <1>        0.000
      7 C8          0.2682   -0.0541   -0.0136 C.ar       1 <1>        0.000
      8 C16        -2.9288    1.5358    0.6686 C.ar       1 <1>        0.000
      9 C9          1.6393    0.2332    0.0891 C.ar       1 <1>        0.000
     10 C10         2.5791   -0.7223   -0.3167 C.ar       1 <1>        0.000
     11 C11         2.1392   -1.9556   -0.8217 C.ar       1 <1>        0.000
     12 C12         3.9471   -0.4346   -0.2143 C.ar       1 <1>        0.000
     13 C13         4.3767    0.7907    0.2873 C.ar       1 <1>        0.000
     14 C14         3.4495    1.7395    0.6909 C.ar       1 <1>        0.000
     15 C15         2.0845    1.4663    0.5942 C.ar       1 <1>        0.000
     16 C17        -4.2895    1.2587    0.5500 C.ar       1 <1>        0.000
     17 C18        -4.7069    0.0324    0.0347 C.ar       1 <1>        0.000
     18 C19        -3.7640   -0.9151   -0.3611 C.ar       1 <1>        0.000
     19 H           0.4488   -3.1914   -1.3193 H.spc      1 <1>        0.000
     20 H          -2.6028    2.4937    1.0739 H.spc      1 <1>        0.000
     21 H           2.8680   -2.7028   -1.1358 H.spc      1 <1>        0.000
     22 H           4.6806   -1.1765   -0.5301 H.spc      1 <1>        0.000
     23 H           5.4428    1.0046    0.3629 H.spc      1 <1>        0.000
     24 H           3.7869    2.6987    1.0837 H.spc      1 <1>        0.000
     25 H           1.3588    2.2146    0.9127 H.spc      1 <1>        0.000
     26 H          -5.0264    1.9998    0.8597 H.spc      1 <1>        0.000
     27 H          -5.7708   -0.1856   -0.0588 H.spc      1 <1>        0.000
     28 H          -4.0917   -1.8743   -0.7618 H.spc      1 <1>        0.000
@<TRIPOS>BOND
     1   16   17 ar 
     2    4   18 ar 
     3   17   18 ar 
     4    4    5 ar 
     5    2    3 ar 
     6    8   16 ar 
     7    1   11 ar 
     8    5    6 ar 
     9    7    9 ar 
    10    9   15 ar 
    11   10   11 ar 
    12    1    2 ar 
    13    5    8 ar 
    14    6    7 ar 
    15    9   10 ar 
    16   14   15 ar 
    17   10   12 ar 
    18   12   13 ar 
    19    3    4 ar 
    20   13   14 ar 
    21    2    7 ar 
    22    1   19 1  
    23    8   20 1  
    24   11   21 1  
    25   12   22 1  
    26   13   23 1  
    27   14   24 1  
    28   15   25 1  
    29   16   26 1  
    30   17   27 1  
    31   18   28 1  
