#      Rotatable Fragment
#      Build by yxyuan
#
# Name:          frag3-264-2/31924
# Creation time: Sat Jun  5 12:52:41 2010


@<TRIPOS>MOLECULE
frag3-264-2/31924
   12    11     1     1     1
SMALL
USER_CHARGES


@<TRIPOS>ATOM
      1 S1         -3.2495    3.8136    2.5229 S.2        1 <1>        0.000
      2 P1         -4.4248    2.8131    1.4352 P.3        1 <1>        0.000
      3 O1         -3.7766    1.9874    0.2599 O.3        1 <1>        0.000
      4 P2         -4.2945    0.6203   -0.2493 P.3        1 <1>        0.000
      5 O2         -4.1594   -0.3656    0.8053 O.2        1 <1>        0.000
      6 O3         -3.5922    0.1719   -1.5468 O.3        1 <1>        0.000
      7 O7         -5.8325    0.8807   -0.5964 O.3        1 <1>        0.000
      8 O8         -5.2855    1.6934    2.2335 O.3        1 <1>        0.000
      9 O9         -5.4617    3.6527    0.8165 O.2        1 <1>        0.000
     10 H          -3.7030    0.8479   -2.2194 H.spc      1 <1>        0.000
     11 H          -5.8952    1.5355   -1.2956 H.spc      1 <1>        0.000
     12 H          -5.8558    1.2296    1.6161 H.spc      1 <1>        0.000
@<TRIPOS>BOND
     1    1    2 2  
     2    2    3 1  
     3    2    8 1  
     4    2    9 2  
     5    3    4 1  
     6    4    6 1  
     7    4    5 2  
     8    4    7 1  
     9    6   10 1  
    10    7   11 1  
    11    8   12 1  
# Name:          frag3-264-2/31924
# Creation time: Sat Jun  5 12:52:41 2010


@<TRIPOS>MOLECULE
frag3-264-2/31924
   12    11     1     1     1
SMALL
USER_CHARGES


@<TRIPOS>ATOM
      1 S1         -2.8821    3.0224    2.2451 S.2        1 <1>        0.000
      2 P1         -4.5642    2.8474    1.3676 P.3        1 <1>        0.000
      3 O1         -4.4539    2.1998   -0.0561 O.3        1 <1>        0.000
      4 P2         -4.3311    0.6617   -0.2541 P.3        1 <1>        0.000
      5 O2         -3.9793    0.0864    1.0247 O.2        1 <1>        0.000
      6 O3         -3.2627    0.3130   -1.3175 O.3        1 <1>        0.000
      7 O7         -5.7170    0.1257   -0.7896 O.3        1 <1>        0.000
      8 O8         -5.6101    1.8990    2.1724 O.3        1 <1>        0.000
      9 O9         -5.2763    4.1122    1.2882 O.2        1 <1>        0.000
     10 H          -3.5115    0.7021   -2.1591 H.spc      1 <1>        0.000
     11 H          -5.9101    0.5324   -1.6375 H.spc      1 <1>        0.000
     12 H          -6.4354    1.8488    1.6846 H.spc      1 <1>        0.000
@<TRIPOS>BOND
     1    1    2 2  
     2    2    3 1  
     3    2    8 1  
     4    2    9 2  
     5    3    4 1  
     6    4    6 1  
     7    4    5 2  
     8    4    7 1  
     9    6   10 1  
    10    7   11 1  
    11    8   12 1  
# Name:          frag3-264-2/31924
# Creation time: Sat Jun  5 12:52:41 2010


@<TRIPOS>MOLECULE
frag3-264-2/31924
   12    11     1     1     1
SMALL
USER_CHARGES


@<TRIPOS>ATOM
      1 S1         -3.4378    4.2327    2.1574 S.2        1 <1>        0.000
      2 P1         -4.3690    2.6955    1.5573 P.3        1 <1>        0.000
      3 O1         -3.7622    1.9365    0.3116 O.3        1 <1>        0.000
      4 P2         -4.4386    0.7119   -0.3741 P.3        1 <1>        0.000
      5 O2         -5.0275   -0.0760    0.6794 O.2        1 <1>        0.000
      6 O3         -3.3930   -0.1102   -1.1577 O.3        1 <1>        0.000
      7 O7         -5.5102    1.2952   -1.3754 O.3        1 <1>        0.000
      8 O8         -4.3994    1.5740    2.7236 O.3        1 <1>        0.000
      9 O9         -5.7390    3.0081    1.1587 O.2        1 <1>        0.000
     10 H          -3.0151    0.4339   -1.8525 H.spc      1 <1>        0.000
     11 H          -5.0662    1.8092   -2.0538 H.spc      1 <1>        0.000
     12 H          -4.8730    0.8002    2.4096 H.spc      1 <1>        0.000
@<TRIPOS>BOND
     1    1    2 2  
     2    2    3 1  
     3    2    8 1  
     4    2    9 2  
     5    3    4 1  
     6    4    6 1  
     7    4    5 2  
     8    4    7 1  
     9    6   10 1  
    10    7   11 1  
    11    8   12 1  
# Name:          frag3-264-2/31924
# Creation time: Sat Jun  5 12:52:41 2010


@<TRIPOS>MOLECULE
frag3-264-2/31924
   12    11     1     1     1
SMALL
USER_CHARGES


@<TRIPOS>ATOM
      1 S1         -3.0145    4.0018    1.9628 S.2        1 <1>        0.000
      2 P1         -4.3700    2.7580    1.4895 P.3        1 <1>        0.000
      3 O1         -4.3384    2.2490   -0.0054 O.3        1 <1>        0.000
      4 P2         -4.5425    0.7492   -0.3992 P.3        1 <1>        0.000
      5 O2         -5.3266    0.1488    0.6835 O.2        1 <1>        0.000
      6 O3         -3.1354    0.0576   -0.4122 O.3        1 <1>        0.000
      7 O7         -5.3218    0.6162   -1.7427 O.3        1 <1>        0.000
      8 O8         -4.3095    1.3911    2.3684 O.3        1 <1>        0.000
      9 O9         -5.7180    3.2960    1.7360 O.2        1 <1>        0.000
     10 H          -2.6012    0.4348   -1.1150 H.spc      1 <1>        0.000
     11 H          -4.8066    1.0100   -2.4505 H.spc      1 <1>        0.000
     12 H          -5.0133    0.8010    2.0891 H.spc      1 <1>        0.000
@<TRIPOS>BOND
     1    1    2 2  
     2    2    3 1  
     3    2    8 1  
     4    2    9 2  
     5    3    4 1  
     6    4    6 1  
     7    4    5 2  
     8    4    7 1  
     9    6   10 1  
    10    7   11 1  
    11    8   12 1  
# Name:          frag3-264-2/31924
# Creation time: Sat Jun  5 12:52:41 2010


@<TRIPOS>MOLECULE
frag3-264-2/31924
   12    11     1     1     1
SMALL
USER_CHARGES


@<TRIPOS>ATOM
      1 S1         -3.3724    2.6476    2.6787 S.2        1 <1>        0.000
      2 P1         -4.6285    2.8998    1.2667 P.3        1 <1>        0.000
      3 O1         -4.1885    2.1698   -0.0536 O.3        1 <1>        0.000
      4 P2         -4.1808    0.6236   -0.1703 P.3        1 <1>        0.000
      5 O2         -3.1704    0.0665    0.7148 O.2        1 <1>        0.000
      6 O3         -3.9069    0.1230   -1.6055 O.3        1 <1>        0.000
      7 O7         -5.6366    0.1551    0.2572 O.3        1 <1>        0.000
      8 O8         -6.0991    2.2772    1.5848 O.3        1 <1>        0.000
      9 O9         -4.8936    4.3051    1.0080 O.2        1 <1>        0.000
     10 H          -4.5679    0.4841   -2.2007 H.spc      1 <1>        0.000
     11 H          -6.2829    0.5360   -0.3418 H.spc      1 <1>        0.000
     12 H          -6.6813    2.4369    0.8384 H.spc      1 <1>        0.000
@<TRIPOS>BOND
     1    1    2 2  
     2    2    3 1  
     3    2    8 1  
     4    2    9 2  
     5    3    4 1  
     6    4    6 1  
     7    4    5 2  
     8    4    7 1  
     9    6   10 1  
    10    7   11 1  
    11    8   12 1  
# Name:          frag3-264-2/31924
# Creation time: Sat Jun  5 12:52:41 2010


@<TRIPOS>MOLECULE
frag3-264-2/31924
   12    11     1     1     1
SMALL
USER_CHARGES


@<TRIPOS>ATOM
      1 S1         -3.4666    3.8807    0.8686 S.2        1 <1>        0.000
      2 P1         -4.5865    2.5266    1.6992 P.3        1 <1>        0.000
      3 O1         -4.1576    1.0910    1.2204 O.3        1 <1>        0.000
      4 P2         -4.2923    0.6526   -0.2610 P.3        1 <1>        0.000
      5 O2         -5.1127   -0.5259   -0.4144 O.2        1 <1>        0.000
      6 O3         -2.8981    0.4683   -0.9147 O.3        1 <1>        0.000
      7 O7         -5.0840    1.8189   -1.0150 O.3        1 <1>        0.000
      8 O8         -4.5111    2.6874    3.2664 O.3        1 <1>        0.000
      9 O9         -5.9678    2.6680    1.2314 O.2        1 <1>        0.000
     10 H          -2.3811    1.2682   -0.7941 H.spc      1 <1>        0.000
     11 H          -4.5859    2.6369   -0.9488 H.spc      1 <1>        0.000
     12 H          -5.0627    2.0208    3.6823 H.spc      1 <1>        0.000
@<TRIPOS>BOND
     1    1    2 2  
     2    2    3 1  
     3    2    8 1  
     4    2    9 2  
     5    3    4 1  
     6    4    6 1  
     7    4    5 2  
     8    4    7 1  
     9    6   10 1  
    10    7   11 1  
    11    8   12 1  
# Name:          frag3-264-2/31924
# Creation time: Sat Jun  5 12:52:41 2010


@<TRIPOS>MOLECULE
frag3-264-2/31924
   12    11     1     1     1
SMALL
USER_CHARGES


@<TRIPOS>ATOM
      1 S1         -2.8912    3.5851    1.6497 S.2        1 <1>        0.000
      2 P1         -4.5527    2.6408    1.5924 P.3        1 <1>        0.000
      3 O1         -4.3887    1.0964    1.3020 O.3        1 <1>        0.000
      4 P2         -4.3412    0.5217   -0.1400 P.3        1 <1>        0.000
      5 O2         -3.8711   -0.8469   -0.2341 O.2        1 <1>        0.000
      6 O3         -3.3844    1.4830   -0.9436 O.3        1 <1>        0.000
      7 O7         -5.7955    0.7257   -0.7390 O.3        1 <1>        0.000
      8 O8         -5.5217    2.9595    2.7993 O.3        1 <1>        0.000
      9 O9         -5.3302    3.1023    0.3941 O.2        1 <1>        0.000
     10 H          -3.7061    2.3848   -0.8735 H.spc      1 <1>        0.000
     11 H          -6.0512    1.6466   -0.6488 H.spc      1 <1>        0.000
     12 H          -6.3302    2.4512    2.7019 H.spc      1 <1>        0.000
@<TRIPOS>BOND
     1    1    2 2  
     2    2    3 1  
     3    2    8 1  
     4    2    9 2  
     5    3    4 1  
     6    4    6 1  
     7    4    5 2  
     8    4    7 1  
     9    6   10 1  
    10    7   11 1  
    11    8   12 1  
# Name:          frag3-264-2/31924
# Creation time: Sat Jun  5 12:52:41 2010


@<TRIPOS>MOLECULE
frag3-264-2/31924
   12    11     1     1     1
SMALL
USER_CHARGES


@<TRIPOS>ATOM
      1 S1         -2.7264    2.9641    1.5439 S.2        1 <1>        0.000
      2 P1         -4.5843    2.4962    1.7277 P.3        1 <1>        0.000
      3 O1         -4.8694    1.0828    1.1059 O.3        1 <1>        0.000
      4 P2         -4.4607    0.7728   -0.3716 P.3        1 <1>        0.000
      5 O2         -4.7346    1.9458   -1.1595 O.2        1 <1>        0.000
      6 O3         -5.2225   -0.4545   -0.9138 O.3        1 <1>        0.000
      7 O7         -2.9152    0.3925   -0.3853 O.3        1 <1>        0.000
      8 O8         -5.1464    2.6548    3.2003 O.3        1 <1>        0.000
      9 O9         -5.4175    3.4132    0.9332 O.2        1 <1>        0.000
     10 H          -5.0215   -1.2201   -0.3706 H.spc      1 <1>        0.000
     11 H          -2.7751   -0.3922    0.1497 H.spc      1 <1>        0.000
     12 H          -6.0733    2.4054    3.2164 H.spc      1 <1>        0.000
@<TRIPOS>BOND
     1    1    2 2  
     2    2    3 1  
     3    2    8 1  
     4    2    9 2  
     5    3    4 1  
     6    4    6 1  
     7    4    5 2  
     8    4    7 1  
     9    6   10 1  
    10    7   11 1  
    11    8   12 1  
# Name:          frag3-264-2/31924
# Creation time: Sat Jun  5 12:52:41 2010


@<TRIPOS>MOLECULE
frag3-264-2/31924
   12    11     1     1     1
SMALL
USER_CHARGES


@<TRIPOS>ATOM
      1 S1         -2.8121    3.5129    1.2619 S.2        1 <1>        0.000
      2 P1         -4.5978    2.7860    1.4501 P.3        1 <1>        0.000
      3 O1         -5.0760    2.0821    0.1305 O.3        1 <1>        0.000
      4 P2         -4.5595    0.6712   -0.2980 P.3        1 <1>        0.000
      5 O2         -5.1271   -0.3201    0.5887 O.2        1 <1>        0.000
      6 O3         -2.9969    0.7185   -0.0763 O.3        1 <1>        0.000
      7 O7         -4.8418    0.3997   -1.8051 O.3        1 <1>        0.000
      8 O8         -4.5283    1.6073    2.5507 O.3        1 <1>        0.000
      9 O9         -5.5371    3.8102    1.8782 O.2        1 <1>        0.000
     10 H          -2.6115    1.3747   -0.6616 H.spc      1 <1>        0.000
     11 H          -4.4391    1.0918   -2.3347 H.spc      1 <1>        0.000
     12 H          -5.4020    1.2266    2.6658 H.spc      1 <1>        0.000
@<TRIPOS>BOND
     1    1    2 2  
     2    2    3 1  
     3    2    8 1  
     4    2    9 2  
     5    3    4 1  
     6    4    6 1  
     7    4    5 2  
     8    4    7 1  
     9    6   10 1  
    10    7   11 1  
    11    8   12 1  
# Name:          frag3-264-2/31924
# Creation time: Sat Jun  5 12:52:41 2010


@<TRIPOS>MOLECULE
frag3-264-2/31924
   12    11     1     1     1
SMALL
USER_CHARGES


@<TRIPOS>ATOM
      1 S1         -3.3618    3.8912    2.5843 S.2        1 <1>        0.000
      2 P1         -4.3990    2.7429    1.4932 P.3        1 <1>        0.000
      3 O1         -3.6392    1.8797    0.4356 O.3        1 <1>        0.000
      4 P2         -4.2702    0.7028   -0.3191 P.3        1 <1>        0.000
      5 O2         -4.3658    0.9291   -1.7454 O.2        1 <1>        0.000
      6 O3         -5.7491    0.5817    0.2375 O.3        1 <1>        0.000
      7 O7         -3.5627   -0.6843   -0.1097 O.3        1 <1>        0.000
      8 O8         -5.3175    1.7260    2.3750 O.3        1 <1>        0.000
      9 O9         -5.4115    3.4986    0.7294 O.2        1 <1>        0.000
     10 H          -5.7218    0.4306    1.1851 H.spc      1 <1>        0.000
     11 H          -3.4843   -0.8636    0.8301 H.spc      1 <1>        0.000
     12 H          -5.8257    1.1634    1.7861 H.spc      1 <1>        0.000
@<TRIPOS>BOND
     1    1    2 2  
     2    2    3 1  
     3    2    8 1  
     4    2    9 2  
     5    3    4 1  
     6    4    6 1  
     7    4    5 2  
     8    4    7 1  
     9    6   10 1  
    10    7   11 1  
    11    8   12 1  
# Name:          frag3-264-2/31924
# Creation time: Sat Jun  5 12:52:41 2010


@<TRIPOS>MOLECULE
frag3-264-2/31924
   12    11     1     1     1
SMALL
USER_CHARGES


@<TRIPOS>ATOM
      1 S1         -2.7115    2.9809    1.5641 S.2        1 <1>        0.000
      2 P1         -4.6181    2.8019    1.4115 P.3        1 <1>        0.000
      3 O1         -5.0268    2.0868    0.0735 O.3        1 <1>        0.000
      4 P2         -4.4667    0.6763   -0.2593 P.3        1 <1>        0.000
      5 O2         -4.4448   -0.1009    0.9549 O.2        1 <1>        0.000
      6 O3         -2.9960    0.8252   -0.7901 O.3        1 <1>        0.000
      7 O7         -5.2694   -0.0142   -1.4174 O.3        1 <1>        0.000
      8 O8         -5.2624    1.9273    2.6116 O.3        1 <1>        0.000
      9 O9         -5.2810    4.0843    1.5319 O.2        1 <1>        0.000
     10 H          -2.9998    1.3418   -1.5993 H.spc      1 <1>        0.000
     11 H          -5.2500    0.5459   -2.1968 H.spc      1 <1>        0.000
     12 H          -6.2127    1.8685    2.4887 H.spc      1 <1>        0.000
@<TRIPOS>BOND
     1    1    2 2  
     2    2    3 1  
     3    2    8 1  
     4    2    9 2  
     5    3    4 1  
     6    4    6 1  
     7    4    5 2  
     8    4    7 1  
     9    6   10 1  
    10    7   11 1  
    11    8   12 1  
# Name:          frag3-264-2/31924
# Creation time: Sat Jun  5 12:52:41 2010


@<TRIPOS>MOLECULE
frag3-264-2/31924
   12    11     1     1     1
SMALL
USER_CHARGES


@<TRIPOS>ATOM
      1 S1         -2.9193    3.0902    2.1858 S.2        1 <1>        0.000
      2 P1         -4.5751    2.8928    1.2524 P.3        1 <1>        0.000
      3 O1         -4.4188    2.1771   -0.1444 O.3        1 <1>        0.000
      4 P2         -4.3082    0.6320   -0.2689 P.3        1 <1>        0.000
      5 O2         -4.0404    0.1409   -1.6029 O.2        1 <1>        0.000
      6 O3         -5.6849    0.0675    0.2574 O.3        1 <1>        0.000
      7 O7         -3.2201    0.1525    0.7951 O.3        1 <1>        0.000
      8 O8         -5.6323    1.9573    2.0959 O.3        1 <1>        0.000
      9 O9         -5.2776    4.1572    1.1104 O.2        1 <1>        0.000
     10 H          -5.8490    0.4014    1.1424 H.spc      1 <1>        0.000
     11 H          -3.4433    0.5041    1.6600 H.spc      1 <1>        0.000
     12 H          -6.4517    1.8775    1.6021 H.spc      1 <1>        0.000
@<TRIPOS>BOND
     1    1    2 2  
     2    2    3 1  
     3    2    8 1  
     4    2    9 2  
     5    3    4 1  
     6    4    6 1  
     7    4    5 2  
     8    4    7 1  
     9    6   10 1  
    10    7   11 1  
    11    8   12 1  
# Name:          frag3-264-2/31924
# Creation time: Sat Jun  5 12:52:41 2010


@<TRIPOS>MOLECULE
frag3-264-2/31924
   12    11     1     1     1
SMALL
USER_CHARGES


@<TRIPOS>ATOM
      1 S1         -3.0463    3.3597    2.0502 S.2        1 <1>        0.000
      2 P1         -4.6903    2.4574    1.7454 P.3        1 <1>        0.000
      3 O1         -4.4838    1.0047    1.1497 O.3        1 <1>        0.000
      4 P2         -4.1687    0.7809   -0.3640 P.3        1 <1>        0.000
      5 O2         -2.9921    1.5131   -0.7295 O.2        1 <1>        0.000
      6 O3         -5.4197    1.3763   -1.1192 O.3        1 <1>        0.000
      7 O7         -4.1187   -0.7396   -0.7176 O.3        1 <1>        0.000
      8 O8         -5.6886    2.3850    2.9814 O.3        1 <1>        0.000
      9 O9         -5.4686    3.1300    0.6842 O.2        1 <1>        0.000
     10 H          -6.2056    0.8836   -0.8720 H.spc      1 <1>        0.000
     11 H          -4.9380   -1.1579   -0.4431 H.spc      1 <1>        0.000
     12 H          -6.4828    1.9118    2.7226 H.spc      1 <1>        0.000
@<TRIPOS>BOND
     1    1    2 2  
     2    2    3 1  
     3    2    8 1  
     4    2    9 2  
     5    3    4 1  
     6    4    6 1  
     7    4    5 2  
     8    4    7 1  
     9    6   10 1  
    10    7   11 1  
    11    8   12 1  
# Name:          frag3-264-2/31924
# Creation time: Sat Jun  5 12:52:41 2010


@<TRIPOS>MOLECULE
frag3-264-2/31924
   12    11     1     1     1
SMALL
USER_CHARGES


@<TRIPOS>ATOM
      1 S1         -3.9431    4.3300    1.3618 S.2        1 <1>        0.000
      2 P1         -4.3990    2.5009    1.7232 P.3        1 <1>        0.000
      3 O1         -3.6565    1.4766    0.7856 O.3        1 <1>        0.000
      4 P2         -4.3849    0.7719   -0.3836 P.3        1 <1>        0.000
      5 O2         -5.5157    0.0572    0.1359 O.2        1 <1>        0.000
      6 O3         -3.4417   -0.1716   -1.1690 O.3        1 <1>        0.000
      7 O7         -4.8277    1.8836   -1.4455 O.3        1 <1>        0.000
      8 O8         -4.0965    2.1516    3.2450 O.3        1 <1>        0.000
      9 O9         -5.8116    2.2673    1.4274 O.2        1 <1>        0.000
     10 H          -2.6956    0.3306   -1.5048 H.spc      1 <1>        0.000
     11 H          -4.0492    2.3410   -1.7717 H.spc      1 <1>        0.000
     12 H          -4.3281    1.2354    3.4140 H.spc      1 <1>        0.000
@<TRIPOS>BOND
     1    1    2 2  
     2    2    3 1  
     3    2    8 1  
     4    2    9 2  
     5    3    4 1  
     6    4    6 1  
     7    4    5 2  
     8    4    7 1  
     9    6   10 1  
    10    7   11 1  
    11    8   12 1  
# Name:          frag3-264-2/31924 -- energy: -0.755117
# Creation time: Sat Jun  5 12:52:41 2010


@<TRIPOS>MOLECULE
frag3-264-2/31924 -- energy: -0.755117
   12    11     1     1     1
SMALL
USER_CHARGES


@<TRIPOS>ATOM
      1 S1         -3.2495    3.8136    2.5229 S.2        1 <1>        0.000
      2 P1         -4.4248    2.8131    1.4352 P.3        1 <1>        0.000
      3 O1         -3.7766    1.9874    0.2599 O.3        1 <1>        0.000
      4 P2         -4.2945    0.6203   -0.2493 P.3        1 <1>        0.000
      5 O2         -4.1594   -0.3656    0.8053 O.2        1 <1>        0.000
      6 O3         -3.5922    0.1719   -1.5468 O.3        1 <1>        0.000
      7 O7         -5.8325    0.8807   -0.5964 O.3        1 <1>        0.000
      8 O8         -5.2855    1.6934    2.2335 O.3        1 <1>        0.000
      9 O9         -5.4617    3.6527    0.8165 O.2        1 <1>        0.000
     10 H          -3.7030    0.8479   -2.2194 H.spc      1 <1>        0.000
     11 H          -5.8952    1.5355   -1.2956 H.spc      1 <1>        0.000
     12 H          -5.8558    1.2296    1.6161 H.spc      1 <1>        0.000
@<TRIPOS>BOND
     1    1    2 2  
     2    2    3 1  
     3    2    8 1  
     4    2    9 2  
     5    3    4 1  
     6    4    6 1  
     7    4    5 2  
     8    4    7 1  
     9    6   10 1  
    10    7   11 1  
    11    8   12 1  
# Name:          frag3-264-2/31924 -- energy: -1.306945
# Creation time: Sat Jun  5 12:52:41 2010


@<TRIPOS>MOLECULE
frag3-264-2/31924 -- energy: -1.306945
   12    11     1     1     1
SMALL
USER_CHARGES


@<TRIPOS>ATOM
      1 S1         -2.8821    3.0224    2.2451 S.2        1 <1>        0.000
      2 P1         -4.5642    2.8474    1.3676 P.3        1 <1>        0.000
      3 O1         -4.4539    2.1998   -0.0561 O.3        1 <1>        0.000
      4 P2         -4.3311    0.6617   -0.2541 P.3        1 <1>        0.000
      5 O2         -3.9793    0.0864    1.0247 O.2        1 <1>        0.000
      6 O3         -3.2627    0.3130   -1.3175 O.3        1 <1>        0.000
      7 O7         -5.7170    0.1257   -0.7896 O.3        1 <1>        0.000
      8 O8         -5.6101    1.8990    2.1724 O.3        1 <1>        0.000
      9 O9         -5.2763    4.1122    1.2882 O.2        1 <1>        0.000
     10 H          -3.5115    0.7021   -2.1591 H.spc      1 <1>        0.000
     11 H          -5.9101    0.5324   -1.6375 H.spc      1 <1>        0.000
     12 H          -6.4354    1.8488    1.6846 H.spc      1 <1>        0.000
@<TRIPOS>BOND
     1    1    2 2  
     2    2    3 1  
     3    2    8 1  
     4    2    9 2  
     5    3    4 1  
     6    4    6 1  
     7    4    5 2  
     8    4    7 1  
     9    6   10 1  
    10    7   11 1  
    11    8   12 1  
# Name:          frag3-264-2/31924 -- energy: 1.526814
# Creation time: Sat Jun  5 12:52:41 2010


@<TRIPOS>MOLECULE
frag3-264-2/31924 -- energy: 1.526814
   12    11     1     1     1
SMALL
USER_CHARGES


@<TRIPOS>ATOM
      1 S1         -3.4378    4.2327    2.1574 S.2        1 <1>        0.000
      2 P1         -4.3690    2.6955    1.5573 P.3        1 <1>        0.000
      3 O1         -3.7622    1.9365    0.3116 O.3        1 <1>        0.000
      4 P2         -4.4386    0.7119   -0.3741 P.3        1 <1>        0.000
      5 O2         -5.0275   -0.0760    0.6794 O.2        1 <1>        0.000
      6 O3         -3.3930   -0.1102   -1.1577 O.3        1 <1>        0.000
      7 O7         -5.5102    1.2952   -1.3754 O.3        1 <1>        0.000
      8 O8         -4.3994    1.5740    2.7236 O.3        1 <1>        0.000
      9 O9         -5.7390    3.0081    1.1587 O.2        1 <1>        0.000
     10 H          -3.0151    0.4339   -1.8525 H.spc      1 <1>        0.000
     11 H          -5.0662    1.8092   -2.0538 H.spc      1 <1>        0.000
     12 H          -4.8730    0.8002    2.4096 H.spc      1 <1>        0.000
@<TRIPOS>BOND
     1    1    2 2  
     2    2    3 1  
     3    2    8 1  
     4    2    9 2  
     5    3    4 1  
     6    4    6 1  
     7    4    5 2  
     8    4    7 1  
     9    6   10 1  
    10    7   11 1  
    11    8   12 1  
# Name:          frag3-264-2/31924 -- energy: -1.370378
# Creation time: Sat Jun  5 12:52:41 2010


@<TRIPOS>MOLECULE
frag3-264-2/31924 -- energy: -1.370378
   12    11     1     1     1
SMALL
USER_CHARGES


@<TRIPOS>ATOM
      1 S1         -3.3724    2.6476    2.6787 S.2        1 <1>        0.000
      2 P1         -4.6285    2.8998    1.2667 P.3        1 <1>        0.000
      3 O1         -4.1885    2.1698   -0.0536 O.3        1 <1>        0.000
      4 P2         -4.1808    0.6236   -0.1703 P.3        1 <1>        0.000
      5 O2         -3.1704    0.0665    0.7148 O.2        1 <1>        0.000
      6 O3         -3.9069    0.1230   -1.6055 O.3        1 <1>        0.000
      7 O7         -5.6366    0.1551    0.2572 O.3        1 <1>        0.000
      8 O8         -6.0991    2.2772    1.5848 O.3        1 <1>        0.000
      9 O9         -4.8936    4.3051    1.0080 O.2        1 <1>        0.000
     10 H          -4.5679    0.4841   -2.2007 H.spc      1 <1>        0.000
     11 H          -6.2829    0.5360   -0.3418 H.spc      1 <1>        0.000
     12 H          -6.6813    2.4369    0.8384 H.spc      1 <1>        0.000
@<TRIPOS>BOND
     1    1    2 2  
     2    2    3 1  
     3    2    8 1  
     4    2    9 2  
     5    3    4 1  
     6    4    6 1  
     7    4    5 2  
     8    4    7 1  
     9    6   10 1  
    10    7   11 1  
    11    8   12 1  
# Name:          frag3-264-2/31924 -- energy: -0.593593
# Creation time: Sat Jun  5 12:52:41 2010


@<TRIPOS>MOLECULE
frag3-264-2/31924 -- energy: -0.593593
   12    11     1     1     1
SMALL
USER_CHARGES


@<TRIPOS>ATOM
      1 S1         -3.4666    3.8807    0.8686 S.2        1 <1>        0.000
      2 P1         -4.5865    2.5266    1.6992 P.3        1 <1>        0.000
      3 O1         -4.1576    1.0910    1.2204 O.3        1 <1>        0.000
      4 P2         -4.2923    0.6526   -0.2610 P.3        1 <1>        0.000
      5 O2         -5.1127   -0.5259   -0.4144 O.2        1 <1>        0.000
      6 O3         -2.8981    0.4683   -0.9147 O.3        1 <1>        0.000
      7 O7         -5.0840    1.8189   -1.0150 O.3        1 <1>        0.000
      8 O8         -4.5111    2.6874    3.2664 O.3        1 <1>        0.000
      9 O9         -5.9678    2.6680    1.2314 O.2        1 <1>        0.000
     10 H          -2.3811    1.2682   -0.7941 H.spc      1 <1>        0.000
     11 H          -4.5859    2.6369   -0.9488 H.spc      1 <1>        0.000
     12 H          -5.0627    2.0208    3.6823 H.spc      1 <1>        0.000
@<TRIPOS>BOND
     1    1    2 2  
     2    2    3 1  
     3    2    8 1  
     4    2    9 2  
     5    3    4 1  
     6    4    6 1  
     7    4    5 2  
     8    4    7 1  
     9    6   10 1  
    10    7   11 1  
    11    8   12 1  
# Name:          frag3-264-2/31924 -- energy: 2.449702
# Creation time: Sat Jun  5 12:52:41 2010


@<TRIPOS>MOLECULE
frag3-264-2/31924 -- energy: 2.449702
   12    11     1     1     1
SMALL
USER_CHARGES


@<TRIPOS>ATOM
      1 S1         -2.8912    3.5851    1.6497 S.2        1 <1>        0.000
      2 P1         -4.5527    2.6408    1.5924 P.3        1 <1>        0.000
      3 O1         -4.3887    1.0964    1.3020 O.3        1 <1>        0.000
      4 P2         -4.3412    0.5217   -0.1400 P.3        1 <1>        0.000
      5 O2         -3.8711   -0.8469   -0.2341 O.2        1 <1>        0.000
      6 O3         -3.3844    1.4830   -0.9436 O.3        1 <1>        0.000
      7 O7         -5.7955    0.7257   -0.7390 O.3        1 <1>        0.000
      8 O8         -5.5217    2.9595    2.7993 O.3        1 <1>        0.000
      9 O9         -5.3302    3.1023    0.3941 O.2        1 <1>        0.000
     10 H          -3.7061    2.3848   -0.8735 H.spc      1 <1>        0.000
     11 H          -6.0512    1.6466   -0.6488 H.spc      1 <1>        0.000
     12 H          -6.3302    2.4512    2.7019 H.spc      1 <1>        0.000
@<TRIPOS>BOND
     1    1    2 2  
     2    2    3 1  
     3    2    8 1  
     4    2    9 2  
     5    3    4 1  
     6    4    6 1  
     7    4    5 2  
     8    4    7 1  
     9    6   10 1  
    10    7   11 1  
    11    8   12 1  
# Name:          frag3-264-2/31924 -- energy: -1.305036
# Creation time: Sat Jun  5 12:52:41 2010


@<TRIPOS>MOLECULE
frag3-264-2/31924 -- energy: -1.305036
   12    11     1     1     1
SMALL
USER_CHARGES


@<TRIPOS>ATOM
      1 S1         -2.7264    2.9641    1.5439 S.2        1 <1>        0.000
      2 P1         -4.5843    2.4962    1.7277 P.3        1 <1>        0.000
      3 O1         -4.8694    1.0828    1.1059 O.3        1 <1>        0.000
      4 P2         -4.4607    0.7728   -0.3716 P.3        1 <1>        0.000
      5 O2         -4.7346    1.9458   -1.1595 O.2        1 <1>        0.000
      6 O3         -5.2225   -0.4545   -0.9138 O.3        1 <1>        0.000
      7 O7         -2.9152    0.3925   -0.3853 O.3        1 <1>        0.000
      8 O8         -5.1464    2.6548    3.2003 O.3        1 <1>        0.000
      9 O9         -5.4175    3.4132    0.9332 O.2        1 <1>        0.000
     10 H          -5.0215   -1.2201   -0.3706 H.spc      1 <1>        0.000
     11 H          -2.7751   -0.3922    0.1497 H.spc      1 <1>        0.000
     12 H          -6.0733    2.4054    3.2164 H.spc      1 <1>        0.000
@<TRIPOS>BOND
     1    1    2 2  
     2    2    3 1  
     3    2    8 1  
     4    2    9 2  
     5    3    4 1  
     6    4    6 1  
     7    4    5 2  
     8    4    7 1  
     9    6   10 1  
    10    7   11 1  
    11    8   12 1  
# Name:          frag3-264-2/31924 -- energy: -1.728923
# Creation time: Sat Jun  5 12:52:41 2010


@<TRIPOS>MOLECULE
frag3-264-2/31924 -- energy: -1.728923
   12    11     1     1     1
SMALL
USER_CHARGES


@<TRIPOS>ATOM
      1 S1         -2.8121    3.5129    1.2619 S.2        1 <1>        0.000
      2 P1         -4.5978    2.7860    1.4501 P.3        1 <1>        0.000
      3 O1         -5.0760    2.0821    0.1305 O.3        1 <1>        0.000
      4 P2         -4.5595    0.6712   -0.2980 P.3        1 <1>        0.000
      5 O2         -5.1271   -0.3201    0.5887 O.2        1 <1>        0.000
      6 O3         -2.9969    0.7185   -0.0763 O.3        1 <1>        0.000
      7 O7         -4.8418    0.3997   -1.8051 O.3        1 <1>        0.000
      8 O8         -4.5283    1.6073    2.5507 O.3        1 <1>        0.000
      9 O9         -5.5371    3.8102    1.8782 O.2        1 <1>        0.000
     10 H          -2.6115    1.3747   -0.6616 H.spc      1 <1>        0.000
     11 H          -4.4391    1.0918   -2.3347 H.spc      1 <1>        0.000
     12 H          -5.4020    1.2266    2.6658 H.spc      1 <1>        0.000
@<TRIPOS>BOND
     1    1    2 2  
     2    2    3 1  
     3    2    8 1  
     4    2    9 2  
     5    3    4 1  
     6    4    6 1  
     7    4    5 2  
     8    4    7 1  
     9    6   10 1  
    10    7   11 1  
    11    8   12 1  
# Name:          frag3-264-2/31924 -- energy: -1.555917
# Creation time: Sat Jun  5 12:52:41 2010


@<TRIPOS>MOLECULE
frag3-264-2/31924 -- energy: -1.555917
   12    11     1     1     1
SMALL
USER_CHARGES


@<TRIPOS>ATOM
      1 S1         -2.7115    2.9809    1.5641 S.2        1 <1>        0.000
      2 P1         -4.6181    2.8019    1.4115 P.3        1 <1>        0.000
      3 O1         -5.0268    2.0868    0.0735 O.3        1 <1>        0.000
      4 P2         -4.4667    0.6763   -0.2593 P.3        1 <1>        0.000
      5 O2         -4.4448   -0.1009    0.9549 O.2        1 <1>        0.000
      6 O3         -2.9960    0.8252   -0.7901 O.3        1 <1>        0.000
      7 O7         -5.2694   -0.0142   -1.4174 O.3        1 <1>        0.000
      8 O8         -5.2624    1.9273    2.6116 O.3        1 <1>        0.000
      9 O9         -5.2810    4.0843    1.5319 O.2        1 <1>        0.000
     10 H          -2.9998    1.3418   -1.5993 H.spc      1 <1>        0.000
     11 H          -5.2500    0.5459   -2.1968 H.spc      1 <1>        0.000
     12 H          -6.2127    1.8685    2.4887 H.spc      1 <1>        0.000
@<TRIPOS>BOND
     1    1    2 2  
     2    2    3 1  
     3    2    8 1  
     4    2    9 2  
     5    3    4 1  
     6    4    6 1  
     7    4    5 2  
     8    4    7 1  
     9    6   10 1  
    10    7   11 1  
    11    8   12 1  
# Name:          frag3-264-2/31924 -- energy: -0.987844
# Creation time: Sat Jun  5 12:52:41 2010


@<TRIPOS>MOLECULE
frag3-264-2/31924 -- energy: -0.987844
   12    11     1     1     1
SMALL
USER_CHARGES


@<TRIPOS>ATOM
      1 S1         -3.0463    3.3597    2.0502 S.2        1 <1>        0.000
      2 P1         -4.6903    2.4574    1.7454 P.3        1 <1>        0.000
      3 O1         -4.4838    1.0047    1.1497 O.3        1 <1>        0.000
      4 P2         -4.1687    0.7809   -0.3640 P.3        1 <1>        0.000
      5 O2         -2.9921    1.5131   -0.7295 O.2        1 <1>        0.000
      6 O3         -5.4197    1.3763   -1.1192 O.3        1 <1>        0.000
      7 O7         -4.1187   -0.7396   -0.7176 O.3        1 <1>        0.000
      8 O8         -5.6886    2.3850    2.9814 O.3        1 <1>        0.000
      9 O9         -5.4686    3.1300    0.6842 O.2        1 <1>        0.000
     10 H          -6.2056    0.8836   -0.8720 H.spc      1 <1>        0.000
     11 H          -4.9380   -1.1579   -0.4431 H.spc      1 <1>        0.000
     12 H          -6.4828    1.9118    2.7226 H.spc      1 <1>        0.000
@<TRIPOS>BOND
     1    1    2 2  
     2    2    3 1  
     3    2    8 1  
     4    2    9 2  
     5    3    4 1  
     6    4    6 1  
     7    4    5 2  
     8    4    7 1  
     9    6   10 1  
    10    7   11 1  
    11    8   12 1  
# Name:          frag3-264-2/31924 -- energy: -0.848191
# Creation time: Sat Jun  5 12:52:41 2010


@<TRIPOS>MOLECULE
frag3-264-2/31924 -- energy: -0.848191
   12    11     1     1     1
SMALL
USER_CHARGES


@<TRIPOS>ATOM
      1 S1         -3.9431    4.3300    1.3618 S.2        1 <1>        0.000
      2 P1         -4.3990    2.5009    1.7232 P.3        1 <1>        0.000
      3 O1         -3.6565    1.4766    0.7856 O.3        1 <1>        0.000
      4 P2         -4.3849    0.7719   -0.3836 P.3        1 <1>        0.000
      5 O2         -5.5157    0.0572    0.1359 O.2        1 <1>        0.000
      6 O3         -3.4417   -0.1716   -1.1690 O.3        1 <1>        0.000
      7 O7         -4.8277    1.8836   -1.4455 O.3        1 <1>        0.000
      8 O8         -4.0965    2.1516    3.2450 O.3        1 <1>        0.000
      9 O9         -5.8116    2.2673    1.4274 O.2        1 <1>        0.000
     10 H          -2.6956    0.3306   -1.5048 H.spc      1 <1>        0.000
     11 H          -4.0492    2.3410   -1.7717 H.spc      1 <1>        0.000
     12 H          -4.3281    1.2354    3.4140 H.spc      1 <1>        0.000
@<TRIPOS>BOND
     1    1    2 2  
     2    2    3 1  
     3    2    8 1  
     4    2    9 2  
     5    3    4 1  
     6    4    6 1  
     7    4    5 2  
     8    4    7 1  
     9    6   10 1  
    10    7   11 1  
    11    8   12 1  
