#      Rotatable Fragment
#      Build by yxyuan
#
# Name:          frag3-144-30/96164
# Creation time: Sat Jun  5 12:53:05 2010


@<TRIPOS>MOLECULE
frag3-144-30/96164
   11    10     1     1     1
SMALL
USER_CHARGES


@<TRIPOS>ATOM
      1 N4          2.2742    1.3824    0.1917 N.pl3      1 <1>        0.000
      2 C20         3.1850    0.7038   -0.4925 C.2        1 <1>        0.000
      3 N5          4.1634    1.2329   -1.2191 N.am       1 <1>        0.000
      4 N6          3.1305   -0.6088   -0.4431 N.2        1 <1>        0.000
      5 C22         5.2157    0.5941   -1.8886 C.2        1 <1>        0.000
      6 O1          5.2146   -0.6210   -1.9063 O.2        1 <1>        0.000
      7 H           1.5655    0.8845    0.7305 H.spc      1 <1>        0.000
      8 H           2.2822    2.4023    0.1792 H.spc      1 <1>        0.000
      9 H           4.1461    2.2494   -1.3014 H.spc      1 <1>        0.000
     10 H           3.8189   -1.1672   -0.9478 H.spc      1 <1>        0.000
     11 H           6.0058    1.1658   -2.3754 H.spc      1 <1>        0.000
@<TRIPOS>BOND
     1    1    2 1  
     2    2    3 1  
     3    2    4 2  
     4    3    5 am 
     5    5    6 2  
     6    1    7 1  
     7    1    8 1  
     8    3    9 1  
     9    4   10 1  
    10    5   11 1  
# Name:          frag3-144-30/96164
# Creation time: Sat Jun  5 12:53:05 2010


@<TRIPOS>MOLECULE
frag3-144-30/96164
   11    10     1     1     1
SMALL
USER_CHARGES


@<TRIPOS>ATOM
      1 N4          3.6448    0.9574    0.4219 N.pl3      1 <1>        0.000
      2 C20         3.0793    0.4398   -0.6724 C.2        1 <1>        0.000
      3 N5          3.7139    0.4980   -1.8387 N.am       1 <1>        0.000
      4 N6          1.8964   -0.1444   -0.5724 N.2        1 <1>        0.000
      5 C22         5.0780    0.6090   -2.0224 C.2        1 <1>        0.000
      6 O1          5.7711    0.3234   -1.0739 O.2        1 <1>        0.000
      7 H           3.1649    0.8993    1.3201 H.spc      1 <1>        0.000
      8 H           4.5564    1.4106    0.3591 H.spc      1 <1>        0.000
      9 H           3.1377    0.4567   -2.6793 H.spc      1 <1>        0.000
     10 H           1.4602   -0.5574   -1.3968 H.spc      1 <1>        0.000
     11 H           5.5061    0.9360   -2.9700 H.spc      1 <1>        0.000
@<TRIPOS>BOND
     1    1    2 1  
     2    2    3 1  
     3    2    4 2  
     4    3    5 am 
     5    5    6 2  
     6    1    7 1  
     7    1    8 1  
     8    3    9 1  
     9    4   10 1  
    10    5   11 1  
# Name:          frag3-144-30/96164
# Creation time: Sat Jun  5 12:53:05 2010


@<TRIPOS>MOLECULE
frag3-144-30/96164
   11    10     1     1     1
SMALL
USER_CHARGES


@<TRIPOS>ATOM
      1 N4          2.4010    1.6813    0.0829 N.pl3      1 <1>        0.000
      2 C20         3.0559    0.6162   -0.4098 C.2        1 <1>        0.000
      3 N5          4.0682    0.7591   -1.2389 N.am       1 <1>        0.000
      4 N6          2.6680   -0.6037   -0.0431 N.2        1 <1>        0.000
      5 C22         5.1211   -0.0662   -1.6306 C.2        1 <1>        0.000
      6 O1          5.8693    0.2968   -2.5184 O.2        1 <1>        0.000
      7 H           1.6210    1.5475    0.7264 H.spc      1 <1>        0.000
      8 H           2.6839    2.6235   -0.1867 H.spc      1 <1>        0.000
      9 H           4.0861    1.6720   -1.6935 H.spc      1 <1>        0.000
     10 H           3.1549   -1.4239   -0.4045 H.spc      1 <1>        0.000
     11 H           5.2729   -1.0301   -1.1448 H.spc      1 <1>        0.000
@<TRIPOS>BOND
     1    1    2 1  
     2    2    3 1  
     3    2    4 2  
     4    3    5 am 
     5    5    6 2  
     6    1    7 1  
     7    1    8 1  
     8    3    9 1  
     9    4   10 1  
    10    5   11 1  
# Name:          frag3-144-30/96164
# Creation time: Sat Jun  5 12:53:05 2010


@<TRIPOS>MOLECULE
frag3-144-30/96164
   11    10     1     1     1
SMALL
USER_CHARGES


@<TRIPOS>ATOM
      1 N4          2.8974    1.7078   -0.1284 N.pl3      1 <1>        0.000
      2 C20         3.0250    0.4139   -0.4338 C.2        1 <1>        0.000
      3 N5          3.9753    0.0591   -1.2753 N.am       1 <1>        0.000
      4 N6          2.2387   -0.4761    0.1498 N.2        1 <1>        0.000
      5 C22         5.1434    0.7194   -1.6227 C.2        1 <1>        0.000
      6 O1          5.9036    0.2593   -2.4474 O.2        1 <1>        0.000
      7 H           2.1970    2.0048    0.5511 H.spc      1 <1>        0.000
      8 H           3.5003    2.3990   -0.5746 H.spc      1 <1>        0.000
      9 H           3.8291   -0.8365   -1.7411 H.spc      1 <1>        0.000
     10 H           2.3590   -1.4697   -0.0470 H.spc      1 <1>        0.000
     11 H           5.3829    1.6698   -1.1457 H.spc      1 <1>        0.000
@<TRIPOS>BOND
     1    1    2 1  
     2    2    3 1  
     3    2    4 2  
     4    3    5 am 
     5    5    6 2  
     6    1    7 1  
     7    1    8 1  
     8    3    9 1  
     9    4   10 1  
    10    5   11 1  
# Name:          frag3-144-30/96164
# Creation time: Sat Jun  5 12:53:05 2010


@<TRIPOS>MOLECULE
frag3-144-30/96164
   11    10     1     1     1
SMALL
USER_CHARGES


@<TRIPOS>ATOM
      1 N4          2.4967    0.9994   -1.2007 N.pl3      1 <1>        0.000
      2 C20         3.3229    0.4307   -0.3161 C.2        1 <1>        0.000
      3 N5          4.6354    0.4849   -0.5259 N.am       1 <1>        0.000
      4 N6          2.8168   -0.1784    0.7466 N.2        1 <1>        0.000
      5 C22         5.2734    0.6291   -1.7380 C.2        1 <1>        0.000
      6 O1          4.6382    0.3177   -2.7238 O.2        1 <1>        0.000
      7 H           1.4880    0.9617   -1.0539 H.spc      1 <1>        0.000
      8 H           2.8752    1.4709   -2.0222 H.spc      1 <1>        0.000
      9 H           5.2324    0.4120    0.2979 H.spc      1 <1>        0.000
     10 H           3.4374   -0.6190    1.4256 H.spc      1 <1>        0.000
     11 H           6.2948    1.0031   -1.8080 H.spc      1 <1>        0.000
@<TRIPOS>BOND
     1    1    2 1  
     2    2    3 1  
     3    2    4 2  
     4    3    5 am 
     5    5    6 2  
     6    1    7 1  
     7    1    8 1  
     8    3    9 1  
     9    4   10 1  
    10    5   11 1  
# Name:          frag3-144-30/96164 -- energy: 0.246268
# Creation time: Sat Jun  5 12:53:05 2010


@<TRIPOS>MOLECULE
frag3-144-30/96164 -- energy: 0.246268
   11    10     1     1     1
SMALL
USER_CHARGES


@<TRIPOS>ATOM
      1 N4          3.6448    0.9574    0.4219 N.pl3      1 <1>        0.000
      2 C20         3.0793    0.4398   -0.6724 C.2        1 <1>        0.000
      3 N5          3.7139    0.4980   -1.8387 N.am       1 <1>        0.000
      4 N6          1.8964   -0.1444   -0.5724 N.2        1 <1>        0.000
      5 C22         5.0780    0.6090   -2.0224 C.2        1 <1>        0.000
      6 O1          5.7711    0.3234   -1.0739 O.2        1 <1>        0.000
      7 H           3.1649    0.8993    1.3201 H.spc      1 <1>        0.000
      8 H           4.5564    1.4106    0.3591 H.spc      1 <1>        0.000
      9 H           3.1377    0.4567   -2.6793 H.spc      1 <1>        0.000
     10 H           1.4602   -0.5574   -1.3968 H.spc      1 <1>        0.000
     11 H           5.5061    0.9360   -2.9700 H.spc      1 <1>        0.000
@<TRIPOS>BOND
     1    1    2 1  
     2    2    3 1  
     3    2    4 2  
     4    3    5 am 
     5    5    6 2  
     6    1    7 1  
     7    1    8 1  
     8    3    9 1  
     9    4   10 1  
    10    5   11 1  
# Name:          frag3-144-30/96164 -- energy: -0.594235
# Creation time: Sat Jun  5 12:53:05 2010


@<TRIPOS>MOLECULE
frag3-144-30/96164 -- energy: -0.594235
   11    10     1     1     1
SMALL
USER_CHARGES


@<TRIPOS>ATOM
      1 N4          2.4010    1.6813    0.0829 N.pl3      1 <1>        0.000
      2 C20         3.0559    0.6162   -0.4098 C.2        1 <1>        0.000
      3 N5          4.0682    0.7591   -1.2389 N.am       1 <1>        0.000
      4 N6          2.6680   -0.6037   -0.0431 N.2        1 <1>        0.000
      5 C22         5.1211   -0.0662   -1.6306 C.2        1 <1>        0.000
      6 O1          5.8693    0.2968   -2.5184 O.2        1 <1>        0.000
      7 H           1.6210    1.5475    0.7264 H.spc      1 <1>        0.000
      8 H           2.6839    2.6235   -0.1867 H.spc      1 <1>        0.000
      9 H           4.0861    1.6720   -1.6935 H.spc      1 <1>        0.000
     10 H           3.1549   -1.4239   -0.4045 H.spc      1 <1>        0.000
     11 H           5.2729   -1.0301   -1.1448 H.spc      1 <1>        0.000
@<TRIPOS>BOND
     1    1    2 1  
     2    2    3 1  
     3    2    4 2  
     4    3    5 am 
     5    5    6 2  
     6    1    7 1  
     7    1    8 1  
     8    3    9 1  
     9    4   10 1  
    10    5   11 1  
# Name:          frag3-144-30/96164 -- energy: -0.505584
# Creation time: Sat Jun  5 12:53:05 2010


@<TRIPOS>MOLECULE
frag3-144-30/96164 -- energy: -0.505584
   11    10     1     1     1
SMALL
USER_CHARGES


@<TRIPOS>ATOM
      1 N4          2.8974    1.7078   -0.1284 N.pl3      1 <1>        0.000
      2 C20         3.0250    0.4139   -0.4338 C.2        1 <1>        0.000
      3 N5          3.9753    0.0591   -1.2753 N.am       1 <1>        0.000
      4 N6          2.2387   -0.4761    0.1498 N.2        1 <1>        0.000
      5 C22         5.1434    0.7194   -1.6227 C.2        1 <1>        0.000
      6 O1          5.9036    0.2593   -2.4474 O.2        1 <1>        0.000
      7 H           2.1970    2.0048    0.5511 H.spc      1 <1>        0.000
      8 H           3.5003    2.3990   -0.5746 H.spc      1 <1>        0.000
      9 H           3.8291   -0.8365   -1.7411 H.spc      1 <1>        0.000
     10 H           2.3590   -1.4697   -0.0470 H.spc      1 <1>        0.000
     11 H           5.3829    1.6698   -1.1457 H.spc      1 <1>        0.000
@<TRIPOS>BOND
     1    1    2 1  
     2    2    3 1  
     3    2    4 2  
     4    3    5 am 
     5    5    6 2  
     6    1    7 1  
     7    1    8 1  
     8    3    9 1  
     9    4   10 1  
    10    5   11 1  
# Name:          frag3-144-30/96164 -- energy: 0.000604
# Creation time: Sat Jun  5 12:53:05 2010


@<TRIPOS>MOLECULE
frag3-144-30/96164 -- energy: 0.000604
   11    10     1     1     1
SMALL
USER_CHARGES


@<TRIPOS>ATOM
      1 N4          2.4967    0.9994   -1.2007 N.pl3      1 <1>        0.000
      2 C20         3.3229    0.4307   -0.3161 C.2        1 <1>        0.000
      3 N5          4.6354    0.4849   -0.5259 N.am       1 <1>        0.000
      4 N6          2.8168   -0.1784    0.7466 N.2        1 <1>        0.000
      5 C22         5.2734    0.6291   -1.7380 C.2        1 <1>        0.000
      6 O1          4.6382    0.3177   -2.7238 O.2        1 <1>        0.000
      7 H           1.4880    0.9617   -1.0539 H.spc      1 <1>        0.000
      8 H           2.8752    1.4709   -2.0222 H.spc      1 <1>        0.000
      9 H           5.2324    0.4120    0.2979 H.spc      1 <1>        0.000
     10 H           3.4374   -0.6190    1.4256 H.spc      1 <1>        0.000
     11 H           6.2948    1.0031   -1.8080 H.spc      1 <1>        0.000
@<TRIPOS>BOND
     1    1    2 1  
     2    2    3 1  
     3    2    4 2  
     4    3    5 am 
     5    5    6 2  
     6    1    7 1  
     7    1    8 1  
     8    3    9 1  
     9    4   10 1  
    10    5   11 1  
