#      Rotatable Fragment
#      Build by yxyuan
#
# Name:          frag4-299-1082/48856
# Creation time: Sat Jun  5 12:52:47 2010


@<TRIPOS>MOLECULE
frag4-299-1082/48856
    8     8     1     1     1
SMALL
USER_CHARGES


@<TRIPOS>ATOM
      1 C1         -0.7483   -0.6420   -0.0306 C.ar       1 <1>        0.000
      2 N2          0.6563   -0.7053   -0.0301 N.ar       1 <1>        0.000
      3 C2          1.1617    0.5653    0.0255 C.ar       1 <1>        0.000
      4 N3          0.0935    1.3731    0.0571 N.ar       1 <1>        0.000
      5 C3         -1.0919    0.6560    0.0269 C.ar       1 <1>        0.000
      6 H          -1.4325   -1.4896   -0.0703 H.spc      1 <1>        0.000
      7 H           2.2115    0.8581    0.0408 H.spc      1 <1>        0.000
      8 H          -2.1026    1.0638    0.0460 H.spc      1 <1>        0.000
@<TRIPOS>BOND
     1    1    2 ar 
     2    1    5 ar 
     3    2    3 ar 
     4    3    4 ar 
     5    4    5 ar 
     6    1    6 1  
     7    3    7 1  
     8    5    8 1  
# Name:          frag4-299-1082/48856 -- energy: -0.152781
# Creation time: Sat Jun  5 12:52:47 2010


@<TRIPOS>MOLECULE
frag4-299-1082/48856 -- energy: -0.152781
    8     8     1     1     1
SMALL
USER_CHARGES


@<TRIPOS>ATOM
      1 C1         -0.7483   -0.6420   -0.0306 C.ar       1 <1>        0.000
      2 N2          0.6563   -0.7053   -0.0301 N.ar       1 <1>        0.000
      3 C2          1.1617    0.5653    0.0255 C.ar       1 <1>        0.000
      4 N3          0.0935    1.3731    0.0571 N.ar       1 <1>        0.000
      5 C3         -1.0919    0.6560    0.0269 C.ar       1 <1>        0.000
      6 H          -1.4325   -1.4896   -0.0703 H.spc      1 <1>        0.000
      7 H           2.2115    0.8581    0.0408 H.spc      1 <1>        0.000
      8 H          -2.1026    1.0638    0.0460 H.spc      1 <1>        0.000
@<TRIPOS>BOND
     1    1    2 ar 
     2    1    5 ar 
     3    2    3 ar 
     4    3    4 ar 
     5    4    5 ar 
     6    1    6 1  
     7    3    7 1  
     8    5    8 1  
