#      Rotatable Fragment
#      Build by yxyuan
#
# Name:          frag5-526-300/138278
# Creation time: Sat Jun  5 12:53:41 2010


@<TRIPOS>MOLECULE
frag5-526-300/138278
   44    46     1     1     1
SMALL
USER_CHARGES


@<TRIPOS>ATOM
      1 C1         -0.5098    2.5247   -0.3079 C.3        1 <1>        0.000
      2 C2         -0.4404    1.0021   -0.5739 C.3        1 <1>        0.000
      3 C3          0.8096    2.8951    0.3628 C.3        1 <1>        0.000
      4 C4         -1.7496    3.0646    0.3783 C.3        1 <1>        0.000
      5 C6         -1.7646    0.2761   -0.4212 C.2        1 <1>        0.000
      6 C7          0.7825    0.5201    0.2145 C.3        1 <1>        0.000
      7 C8          1.7161    1.6965    0.3042 C.3        1 <1>        0.000
      8 C22        -1.5759   -5.6671   -0.6390 C.3        1 <1>        0.000
      9 C10        -3.0659    2.4609   -0.0262 C.3        1 <1>        0.000
     10 C11        -1.7762   -1.0566   -0.2357 C.2        1 <1>        0.000
     11 C12        -3.0487    1.0538   -0.5886 C.3        1 <1>        0.000
     12 C15        -2.7256   -2.1082   -0.0241 C.2        1 <1>        0.000
     13 C17        -2.6501   -3.4605    0.0726 C.2        1 <1>        0.000
     14 C19        -1.4537   -4.3032   -0.0102 C.2        1 <1>        0.000
     15 C20        -3.9909   -4.1779    0.2921 C.3        1 <1>        0.000
     16 C23        -0.2541   -3.9689    0.4952 C.2        1 <1>        0.000
     17 C24        -4.0465   -5.6424   -0.1286 C.3        1 <1>        0.000
     18 C27        -2.7556   -6.4197   -0.0727 C.3        1 <1>        0.000
     19 H          -0.6318    3.0356   -1.2630 H.spc      1 <1>        0.000
     20 H          -0.2814    0.7473   -1.6217 H.spc      1 <1>        0.000
     21 H           1.2688    3.7390   -0.1520 H.spc      1 <1>        0.000
     22 H           0.6360    3.1845    1.3992 H.spc      1 <1>        0.000
     23 H          -1.8074    4.1184    0.1058 H.spc      1 <1>        0.000
     24 H          -1.6287    2.8365    1.4373 H.spc      1 <1>        0.000
     25 H           1.2614   -0.3241   -0.2815 H.spc      1 <1>        0.000
     26 H           0.4968    0.1693    1.2062 H.spc      1 <1>        0.000
     27 H           2.3676    1.6347    1.1759 H.spc      1 <1>        0.000
     28 H           2.3980    1.7418   -0.5450 H.spc      1 <1>        0.000
     29 H          -1.7210   -5.5457   -1.7125 H.spc      1 <1>        0.000
     30 H          -0.6674   -6.2317   -0.4293 H.spc      1 <1>        0.000
     31 H          -3.6552    2.4033    0.8890 H.spc      1 <1>        0.000
     32 H          -3.4432    3.0930   -0.8301 H.spc      1 <1>        0.000
     33 H          -0.7614   -1.4542   -0.2510 H.spc      1 <1>        0.000
     34 H          -3.2013    1.1565   -1.6630 H.spc      1 <1>        0.000
     35 H          -3.8104    0.5002   -0.0395 H.spc      1 <1>        0.000
     36 H          -3.7446   -1.7368    0.0844 H.spc      1 <1>        0.000
     37 H          -4.1724   -4.1625    1.3668 H.spc      1 <1>        0.000
     38 H          -4.7209   -3.6553   -0.3261 H.spc      1 <1>        0.000
     39 H           0.5763   -4.6727    0.4390 H.spc      1 <1>        0.000
     40 H          -0.1116   -2.9939    0.9613 H.spc      1 <1>        0.000
     41 H          -4.7184   -6.1298    0.5779 H.spc      1 <1>        0.000
     42 H          -4.3475   -5.6400   -1.1762 H.spc      1 <1>        0.000
     43 H          -2.8887   -7.3202   -0.6723 H.spc      1 <1>        0.000
     44 H          -2.5412   -6.6245    0.9762 H.spc      1 <1>        0.000
@<TRIPOS>BOND
     1    2    6 1  
     2    1    2 1  
     3    3    7 1  
     4    1    3 1  
     5    1    4 1  
     6    2    5 1  
     7   17   18 1  
     8    8   18 1  
     9   15   17 1  
    10   14   16 2  
    11   14    8 1  
    12   13   15 1  
    13   13   14 1  
    14   12   13 2  
    15   10   12 1  
    16    9   11 1  
    17    6    7 1  
    18    5   11 1  
    19    5   10 2  
    20    4    9 1  
    21    1   19 1  
    22    2   20 1  
    23    3   21 1  
    24    3   22 1  
    25    4   23 1  
    26    4   24 1  
    27    6   25 1  
    28    6   26 1  
    29    7   27 1  
    30    7   28 1  
    31    8   29 1  
    32    8   30 1  
    33    9   31 1  
    34    9   32 1  
    35   10   33 1  
    36   11   34 1  
    37   11   35 1  
    38   12   36 1  
    39   15   37 1  
    40   15   38 1  
    41   16   39 1  
    42   16   40 1  
    43   17   41 1  
    44   17   42 1  
    45   18   43 1  
    46   18   44 1  
# Name:          frag5-526-300/138278
# Creation time: Sat Jun  5 12:53:41 2010


@<TRIPOS>MOLECULE
frag5-526-300/138278
   44    46     1     1     1
SMALL
USER_CHARGES


@<TRIPOS>ATOM
      1 C1         -0.5586    1.9895   -0.6954 C.3        1 <1>        0.000
      2 C2         -0.1968    0.6689    0.0098 C.3        1 <1>        0.000
      3 C3          0.3175    3.0428   -0.0297 C.3        1 <1>        0.000
      4 C4         -2.0293    2.2955   -0.8765 C.3        1 <1>        0.000
      5 C6         -1.3193   -0.3215    0.1404 C.2        1 <1>        0.000
      6 C7          0.6931    1.0409    1.1845 C.3        1 <1>        0.000
      7 C8          1.3665    2.3097    0.7587 C.3        1 <1>        0.000
      8 C22        -2.2640   -4.6819   -1.5006 C.3        1 <1>        0.000
      9 C10        -2.9527    1.1291   -1.1421 C.3        1 <1>        0.000
     10 C11        -1.3335   -1.2407    1.1225 C.2        1 <1>        0.000
     11 C12        -2.4503   -0.2704   -0.8479 C.3        1 <1>        0.000
     12 C15        -2.2007   -2.3210    1.4666 C.2        1 <1>        0.000
     13 C17        -2.3162   -3.4606    0.7518 C.2        1 <1>        0.000
     14 C19        -1.5974   -3.8126   -0.4761 C.2        1 <1>        0.000
     15 C20        -3.3008   -4.5100    1.2013 C.3        1 <1>        0.000
     16 C23        -0.3471   -3.4061   -0.7593 C.2        1 <1>        0.000
     17 C24        -4.2527   -4.9403    0.1029 C.3        1 <1>        0.000
     18 C27        -3.7573   -4.8220   -1.3194 C.3        1 <1>        0.000
     19 H          -0.3360    1.9396   -1.7613 H.spc      1 <1>        0.000
     20 H           0.4053   -0.0041   -0.6006 H.spc      1 <1>        0.000
     21 H           0.7786    3.6885   -0.7770 H.spc      1 <1>        0.000
     22 H          -0.2774    3.6824    0.6223 H.spc      1 <1>        0.000
     23 H          -2.0920    2.9287   -1.7615 H.spc      1 <1>        0.000
     24 H          -2.3601    2.7240    0.0696 H.spc      1 <1>        0.000
     25 H           1.4120    0.2553    1.4170 H.spc      1 <1>        0.000
     26 H           0.1225    1.1702    2.1042 H.spc      1 <1>        0.000
     27 H           1.7201    2.8914    1.6100 H.spc      1 <1>        0.000
     28 H           2.2635    2.1195    0.1693 H.spc      1 <1>        0.000
     29 H          -2.1010   -4.2156   -2.4722 H.spc      1 <1>        0.000
     30 H          -1.8341   -5.6789   -1.4042 H.spc      1 <1>        0.000
     31 H          -3.7986    1.2759   -0.4706 H.spc      1 <1>        0.000
     32 H          -3.1341    1.1474   -2.2167 H.spc      1 <1>        0.000
     33 H          -0.4941   -1.1373    1.8101 H.spc      1 <1>        0.000
     34 H          -2.0780   -0.6830   -1.7856 H.spc      1 <1>        0.000
     35 H          -3.2817   -0.8271   -0.4155 H.spc      1 <1>        0.000
     36 H          -2.8094   -2.2193    2.3651 H.spc      1 <1>        0.000
     37 H          -2.7324   -5.3874    1.5100 H.spc      1 <1>        0.000
     38 H          -3.8966   -4.0820    2.0075 H.spc      1 <1>        0.000
     39 H           0.1267   -3.7105   -1.6925 H.spc      1 <1>        0.000
     40 H           0.1924   -2.7722   -0.0556 H.spc      1 <1>        0.000
     41 H          -4.4357   -6.0022    0.2669 H.spc      1 <1>        0.000
     42 H          -5.1116   -4.2731    0.1753 H.spc      1 <1>        0.000
     43 H          -4.1978   -3.9084   -1.7185 H.spc      1 <1>        0.000
     44 H          -4.0367   -5.7514   -1.8157 H.spc      1 <1>        0.000
@<TRIPOS>BOND
     1    2    6 1  
     2    1    2 1  
     3    3    7 1  
     4    1    3 1  
     5    1    4 1  
     6    2    5 1  
     7   17   18 1  
     8    8   18 1  
     9   15   17 1  
    10   14   16 2  
    11   14    8 1  
    12   13   15 1  
    13   13   14 1  
    14   12   13 2  
    15   10   12 1  
    16    9   11 1  
    17    6    7 1  
    18    5   11 1  
    19    5   10 2  
    20    4    9 1  
    21    1   19 1  
    22    2   20 1  
    23    3   21 1  
    24    3   22 1  
    25    4   23 1  
    26    4   24 1  
    27    6   25 1  
    28    6   26 1  
    29    7   27 1  
    30    7   28 1  
    31    8   29 1  
    32    8   30 1  
    33    9   31 1  
    34    9   32 1  
    35   10   33 1  
    36   11   34 1  
    37   11   35 1  
    38   12   36 1  
    39   15   37 1  
    40   15   38 1  
    41   16   39 1  
    42   16   40 1  
    43   17   41 1  
    44   17   42 1  
    45   18   43 1  
    46   18   44 1  
# Name:          frag5-526-300/138278
# Creation time: Sat Jun  5 12:53:41 2010


@<TRIPOS>MOLECULE
frag5-526-300/138278
   44    46     1     1     1
SMALL
USER_CHARGES


@<TRIPOS>ATOM
      1 C1         -0.5923    2.4504    0.1285 C.3        1 <1>        0.000
      2 C2         -0.5385    1.1968   -0.7757 C.3        1 <1>        0.000
      3 C3          0.8457    2.6430    0.6010 C.3        1 <1>        0.000
      4 C4         -1.7140    2.5013    1.1550 C.3        1 <1>        0.000
      5 C6         -1.7323    0.2798   -0.6805 C.2        1 <1>        0.000
      6 C7          0.8793    0.6479   -0.6411 C.3        1 <1>        0.000
      7 C8          1.7223    1.8473   -0.3313 C.3        1 <1>        0.000
      8 C22        -1.5708   -5.6010    0.3918 C.3        1 <1>        0.000
      9 C10        -3.0409    1.8868    0.7932 C.3        1 <1>        0.000
     10 C11        -1.6000   -1.0472   -0.8982 C.2        1 <1>        0.000
     11 C12        -3.0623    0.8524   -0.3225 C.3        1 <1>        0.000
     12 C15        -2.5162   -2.1530   -0.9376 C.2        1 <1>        0.000
     13 C17        -2.5386   -3.4035   -0.4515 C.2        1 <1>        0.000
     14 C19        -1.5690   -4.0887    0.3877 C.2        1 <1>        0.000
     15 C20        -3.6949   -4.2575   -0.9671 C.3        1 <1>        0.000
     16 C23        -0.7313   -3.4463    1.2067 C.2        1 <1>        0.000
     17 C24        -4.0915   -5.4109   -0.0757 C.3        1 <1>        0.000
     18 C27        -2.9543   -6.2084    0.5089 C.3        1 <1>        0.000
     19 H          -0.9189    3.3365   -0.4158 H.spc      1 <1>        0.000
     20 H          -0.6859    1.4222   -1.8319 H.spc      1 <1>        0.000
     21 H           1.1204    3.6977    0.5846 H.spc      1 <1>        0.000
     22 H           0.9642    2.3015    1.6293 H.spc      1 <1>        0.000
     23 H          -1.9197    3.5615    1.3028 H.spc      1 <1>        0.000
     24 H          -1.3519    1.9222    2.0045 H.spc      1 <1>        0.000
     25 H           1.2082    0.1427   -1.5492 H.spc      1 <1>        0.000
     26 H           0.9497   -0.1114    0.1378 H.spc      1 <1>        0.000
     27 H           2.6836    1.5862    0.1112 H.spc      1 <1>        0.000
     28 H           2.0083    2.4054   -1.2228 H.spc      1 <1>        0.000
     29 H          -1.1499   -5.9299   -0.5583 H.spc      1 <1>        0.000
     30 H          -0.9980   -5.9252    1.2606 H.spc      1 <1>        0.000
     31 H          -3.3701    1.3574    1.6874 H.spc      1 <1>        0.000
     32 H          -3.6565    2.7125    0.4365 H.spc      1 <1>        0.000
     33 H          -0.5683   -1.3449   -1.0857 H.spc      1 <1>        0.000
     34 H          -3.4357    1.3587   -1.2126 H.spc      1 <1>        0.000
     35 H          -3.6761    0.0235    0.0300 H.spc      1 <1>        0.000
     36 H          -3.4177   -1.9176   -1.5032 H.spc      1 <1>        0.000
     37 H          -4.5627   -3.6013   -1.0337 H.spc      1 <1>        0.000
     38 H          -3.3663   -4.6911   -1.9116 H.spc      1 <1>        0.000
     39 H          -0.0672   -4.0120    1.8602 H.spc      1 <1>        0.000
     40 H          -0.7120   -2.3566    1.2214 H.spc      1 <1>        0.000
     41 H          -4.6294   -4.9777    0.7676 H.spc      1 <1>        0.000
     42 H          -4.6623   -6.0995   -0.6987 H.spc      1 <1>        0.000
     43 H          -2.9218   -7.1427   -0.0516 H.spc      1 <1>        0.000
     44 H          -3.1593   -6.2878    1.5765 H.spc      1 <1>        0.000
@<TRIPOS>BOND
     1    2    6 1  
     2    1    2 1  
     3    3    7 1  
     4    1    3 1  
     5    1    4 1  
     6    2    5 1  
     7   17   18 1  
     8    8   18 1  
     9   15   17 1  
    10   14   16 2  
    11   14    8 1  
    12   13   15 1  
    13   13   14 1  
    14   12   13 2  
    15   10   12 1  
    16    9   11 1  
    17    6    7 1  
    18    5   11 1  
    19    5   10 2  
    20    4    9 1  
    21    1   19 1  
    22    2   20 1  
    23    3   21 1  
    24    3   22 1  
    25    4   23 1  
    26    4   24 1  
    27    6   25 1  
    28    6   26 1  
    29    7   27 1  
    30    7   28 1  
    31    8   29 1  
    32    8   30 1  
    33    9   31 1  
    34    9   32 1  
    35   10   33 1  
    36   11   34 1  
    37   11   35 1  
    38   12   36 1  
    39   15   37 1  
    40   15   38 1  
    41   16   39 1  
    42   16   40 1  
    43   17   41 1  
    44   17   42 1  
    45   18   43 1  
    46   18   44 1  
# Name:          frag5-526-300/138278
# Creation time: Sat Jun  5 12:53:41 2010


@<TRIPOS>MOLECULE
frag5-526-300/138278
   44    46     1     1     1
SMALL
USER_CHARGES


@<TRIPOS>ATOM
      1 C1         -0.6178    2.3035    0.2949 C.3        1 <1>        0.000
      2 C2         -0.6145    1.2488   -0.8416 C.3        1 <1>        0.000
      3 C3          0.8586    2.6065    0.5491 C.3        1 <1>        0.000
      4 C4         -1.5124    2.0158    1.4869 C.3        1 <1>        0.000
      5 C6         -1.6566    0.1629   -0.7248 C.2        1 <1>        0.000
      6 C7          0.8511    0.8987   -1.0682 C.3        1 <1>        0.000
      7 C8          1.6053    2.1312   -0.6655 C.3        1 <1>        0.000
      8 C22        -1.9726   -5.1998    1.1039 C.3        1 <1>        0.000
      9 C10        -2.8161    1.2915    1.2342 C.3        1 <1>        0.000
     10 C11        -1.4732   -1.0629   -1.2381 C.2        1 <1>        0.000
     11 C12        -2.9473    0.4755   -0.0330 C.3        1 <1>        0.000
     12 C15        -2.2215   -2.2691   -1.3457 C.2        1 <1>        0.000
     13 C17        -2.4274   -3.3916   -0.6344 C.2        1 <1>        0.000
     14 C19        -1.8730   -3.7588    0.6620 C.2        1 <1>        0.000
     15 C20        -3.3563   -4.3881   -1.3454 C.3        1 <1>        0.000
     16 C23        -1.3545   -2.8781    1.5295 C.2        1 <1>        0.000
     17 C24        -3.6352   -5.7220   -0.6713 C.3        1 <1>        0.000
     18 C27        -3.3363   -5.7748    0.7989 C.3        1 <1>        0.000
     19 H          -1.1329    3.2169   -0.0025 H.spc      1 <1>        0.000
     20 H          -0.9991    1.6327   -1.7864 H.spc      1 <1>        0.000
     21 H           1.0163    3.6726    0.7125 H.spc      1 <1>        0.000
     22 H           1.2122    2.1012    1.4479 H.spc      1 <1>        0.000
     23 H          -1.7945    2.9924    1.8804 H.spc      1 <1>        0.000
     24 H          -0.9333    1.3546    2.1315 H.spc      1 <1>        0.000
     25 H           1.0472    0.6230   -2.1044 H.spc      1 <1>        0.000
     26 H           1.1553    0.0284   -0.4868 H.spc      1 <1>        0.000
     27 H           2.6578    1.9335   -0.4624 H.spc      1 <1>        0.000
     28 H           1.6424    2.8798   -1.4569 H.spc      1 <1>        0.000
     29 H          -1.2231   -5.7802    0.5659 H.spc      1 <1>        0.000
     30 H          -1.8102   -5.2444    2.1808 H.spc      1 <1>        0.000
     31 H          -2.9084    0.5735    2.0491 H.spc      1 <1>        0.000
     32 H          -3.5687    2.0755    1.1502 H.spc      1 <1>        0.000
     33 H          -0.4883   -1.1616   -1.6946 H.spc      1 <1>        0.000
     34 H          -3.5399    1.0698   -0.7286 H.spc      1 <1>        0.000
     35 H          -3.3888   -0.4791    0.2532 H.spc      1 <1>        0.000
     36 H          -2.7933   -2.2884   -2.2735 H.spc      1 <1>        0.000
     37 H          -4.3232   -3.8881   -1.4017 H.spc      1 <1>        0.000
     38 H          -2.8483   -4.6386   -2.2767 H.spc      1 <1>        0.000
     39 H          -1.0232   -3.2121    2.5128 H.spc      1 <1>        0.000
     40 H          -1.2642   -1.8280    1.2516 H.spc      1 <1>        0.000
     41 H          -4.7039   -5.9078   -0.7787 H.spc      1 <1>        0.000
     42 H          -2.9835   -6.4542   -1.1481 H.spc      1 <1>        0.000
     43 H          -3.3526   -6.8167    1.1187 H.spc      1 <1>        0.000
     44 H          -4.0867   -5.1860    1.3265 H.spc      1 <1>        0.000
@<TRIPOS>BOND
     1    2    6 1  
     2    1    2 1  
     3    3    7 1  
     4    1    3 1  
     5    1    4 1  
     6    2    5 1  
     7   17   18 1  
     8    8   18 1  
     9   15   17 1  
    10   14   16 2  
    11   14    8 1  
    12   13   15 1  
    13   13   14 1  
    14   12   13 2  
    15   10   12 1  
    16    9   11 1  
    17    6    7 1  
    18    5   11 1  
    19    5   10 2  
    20    4    9 1  
    21    1   19 1  
    22    2   20 1  
    23    3   21 1  
    24    3   22 1  
    25    4   23 1  
    26    4   24 1  
    27    6   25 1  
    28    6   26 1  
    29    7   27 1  
    30    7   28 1  
    31    8   29 1  
    32    8   30 1  
    33    9   31 1  
    34    9   32 1  
    35   10   33 1  
    36   11   34 1  
    37   11   35 1  
    38   12   36 1  
    39   15   37 1  
    40   15   38 1  
    41   16   39 1  
    42   16   40 1  
    43   17   41 1  
    44   17   42 1  
    45   18   43 1  
    46   18   44 1  
# Name:          frag5-526-300/138278
# Creation time: Sat Jun  5 12:53:41 2010


@<TRIPOS>MOLECULE
frag5-526-300/138278
   44    46     1     1     1
SMALL
USER_CHARGES


@<TRIPOS>ATOM
      1 C1         -0.4212    2.0607   -0.6144 C.3        1 <1>        0.000
      2 C2         -0.2295    0.6773    0.0246 C.3        1 <1>        0.000
      3 C3          0.5290    2.9681    0.1563 C.3        1 <1>        0.000
      4 C4         -1.8439    2.4936   -0.8503 C.3        1 <1>        0.000
      5 C6         -1.4255   -0.2147    0.1138 C.2        1 <1>        0.000
      6 C7          0.6813    0.8734    1.2166 C.3        1 <1>        0.000
      7 C8          1.5137    2.0543    0.8309 C.3        1 <1>        0.000
      8 C22        -2.4742   -4.5995   -1.6077 C.3        1 <1>        0.000
      9 C10        -2.8413    1.4130   -1.2105 C.3        1 <1>        0.000
     10 C11        -1.5483   -1.1440    1.0767 C.2        1 <1>        0.000
     11 C12        -2.5337   -0.0363   -0.8791 C.3        1 <1>        0.000
     12 C15        -2.5239   -2.1436    1.3401 C.2        1 <1>        0.000
     13 C17        -2.6566   -3.2459    0.5608 C.2        1 <1>        0.000
     14 C19        -1.8925   -3.5992   -0.6545 C.2        1 <1>        0.000
     15 C20        -3.7095   -4.2420    0.9926 C.3        1 <1>        0.000
     16 C23        -0.6787   -3.1488   -1.0171 C.2        1 <1>        0.000
     17 C24        -3.4270   -5.6550    0.5271 C.3        1 <1>        0.000
     18 C27        -3.0178   -5.8219   -0.9143 C.3        1 <1>        0.000
     19 H          -0.1505    2.0849   -1.6700 H.spc      1 <1>        0.000
     20 H           0.2794   -0.0059   -0.6554 H.spc      1 <1>        0.000
     21 H           1.0319    3.6706   -0.5083 H.spc      1 <1>        0.000
     22 H          -0.0079    3.5775    0.8833 H.spc      1 <1>        0.000
     23 H          -1.8117    3.1662   -1.7075 H.spc      1 <1>        0.000
     24 H          -2.1879    2.9124    0.0954 H.spc      1 <1>        0.000
     25 H           1.2835   -0.0094    1.4314 H.spc      1 <1>        0.000
     26 H           0.1286    1.0367    2.1418 H.spc      1 <1>        0.000
     27 H           2.0004    2.5215    1.6870 H.spc      1 <1>        0.000
     28 H           2.3478    1.7853    0.1828 H.spc      1 <1>        0.000
     29 H          -3.3002   -4.1189   -2.1320 H.spc      1 <1>        0.000
     30 H          -1.6779   -4.9231   -2.2780 H.spc      1 <1>        0.000
     31 H          -3.7264    1.6481   -0.6194 H.spc      1 <1>        0.000
     32 H          -2.8951    1.4405   -2.2988 H.spc      1 <1>        0.000
     33 H          -0.7353   -1.1280    1.8026 H.spc      1 <1>        0.000
     34 H          -2.2187   -0.5189   -1.8043 H.spc      1 <1>        0.000
     35 H          -3.4339   -0.4645   -0.4382 H.spc      1 <1>        0.000
     36 H          -3.1871   -2.0203    2.1963 H.spc      1 <1>        0.000
     37 H          -3.7252   -4.2520    2.0824 H.spc      1 <1>        0.000
     38 H          -4.6560   -3.9329    0.5490 H.spc      1 <1>        0.000
     39 H          -0.2122   -3.5152   -1.9316 H.spc      1 <1>        0.000
     40 H          -0.1611   -2.4172   -0.3966 H.spc      1 <1>        0.000
     41 H          -2.5832   -6.0048    1.1219 H.spc      1 <1>        0.000
     42 H          -4.3633   -6.2017    0.6393 H.spc      1 <1>        0.000
     43 H          -3.9240   -6.0961   -1.4544 H.spc      1 <1>        0.000
     44 H          -2.2090   -6.5526   -0.9147 H.spc      1 <1>        0.000
@<TRIPOS>BOND
     1    2    6 1  
     2    1    2 1  
     3    3    7 1  
     4    1    3 1  
     5    1    4 1  
     6    2    5 1  
     7   17   18 1  
     8    8   18 1  
     9   15   17 1  
    10   14   16 2  
    11   14    8 1  
    12   13   15 1  
    13   13   14 1  
    14   12   13 2  
    15   10   12 1  
    16    9   11 1  
    17    6    7 1  
    18    5   11 1  
    19    5   10 2  
    20    4    9 1  
    21    1   19 1  
    22    2   20 1  
    23    3   21 1  
    24    3   22 1  
    25    4   23 1  
    26    4   24 1  
    27    6   25 1  
    28    6   26 1  
    29    7   27 1  
    30    7   28 1  
    31    8   29 1  
    32    8   30 1  
    33    9   31 1  
    34    9   32 1  
    35   10   33 1  
    36   11   34 1  
    37   11   35 1  
    38   12   36 1  
    39   15   37 1  
    40   15   38 1  
    41   16   39 1  
    42   16   40 1  
    43   17   41 1  
    44   17   42 1  
    45   18   43 1  
    46   18   44 1  
# Name:          frag5-526-300/138278
# Creation time: Sat Jun  5 12:53:41 2010


@<TRIPOS>MOLECULE
frag5-526-300/138278
   44    46     1     1     1
SMALL
USER_CHARGES


@<TRIPOS>ATOM
      1 C1         -0.5303    2.3173    0.0992 C.3        1 <1>        0.000
      2 C2         -0.6979    1.2515   -1.0190 C.3        1 <1>        0.000
      3 C3          0.9625    2.4164    0.3846 C.3        1 <1>        0.000
      4 C4         -1.3889    2.1773    1.3379 C.3        1 <1>        0.000
      5 C6         -1.7949    0.2280   -0.7613 C.2        1 <1>        0.000
      6 C7          0.7176    0.7667   -1.3305 C.3        1 <1>        0.000
      7 C8          1.5958    1.1866   -0.1890 C.3        1 <1>        0.000
      8 C22        -1.8450   -5.0675    1.1796 C.3        1 <1>        0.000
      9 C10        -2.7334    1.5119    1.2101 C.3        1 <1>        0.000
     10 C11        -1.7544   -1.0442   -1.2055 C.2        1 <1>        0.000
     11 C12        -3.0149    0.6492    0.0060 C.3        1 <1>        0.000
     12 C15        -2.6242   -2.1786   -1.1631 C.2        1 <1>        0.000
     13 C17        -2.7627   -3.2481   -0.3510 C.2        1 <1>        0.000
     14 C19        -1.9981   -3.6068    0.8357 C.2        1 <1>        0.000
     15 C20        -3.8194   -4.2567   -0.7594 C.3        1 <1>        0.000
     16 C23        -1.4178   -2.7346    1.6633 C.2        1 <1>        0.000
     17 C24        -3.2705   -5.6633   -0.8804 C.3        1 <1>        0.000
     18 C27        -2.1231   -6.0158    0.0341 C.3        1 <1>        0.000
     19 H          -0.9324    3.2576   -0.2779 H.spc      1 <1>        0.000
     20 H          -1.1185    1.6590   -1.9383 H.spc      1 <1>        0.000
     21 H           1.3841    3.3151   -0.0656 H.spc      1 <1>        0.000
     22 H           1.1483    2.4837    1.4565 H.spc      1 <1>        0.000
     23 H          -1.6055    3.1987    1.6508 H.spc      1 <1>        0.000
     24 H          -0.8172    1.5368    2.0095 H.spc      1 <1>        0.000
     25 H           1.0729    1.1995   -2.2657 H.spc      1 <1>        0.000
     26 H           0.7337   -0.3169   -1.4469 H.spc      1 <1>        0.000
     27 H           1.6771    0.3977    0.5588 H.spc      1 <1>        0.000
     28 H           2.6135    1.3854   -0.5249 H.spc      1 <1>        0.000
     29 H          -0.8061   -5.2184    1.4729 H.spc      1 <1>        0.000
     30 H          -2.5729   -5.2889    1.9601 H.spc      1 <1>        0.000
     31 H          -2.7907    0.8322    2.0603 H.spc      1 <1>        0.000
     32 H          -3.4460    2.3335    1.1379 H.spc      1 <1>        0.000
     33 H          -0.8239   -1.2635   -1.7291 H.spc      1 <1>        0.000
     34 H          -3.6285    1.2415   -0.6728 H.spc      1 <1>        0.000
     35 H          -3.4905   -0.2610    0.3714 H.spc      1 <1>        0.000
     36 H          -3.3462   -2.1800   -1.9797 H.spc      1 <1>        0.000
     37 H          -4.5903   -4.2638    0.0111 H.spc      1 <1>        0.000
     38 H          -4.2028   -3.9622   -1.7363 H.spc      1 <1>        0.000
     39 H          -0.8687   -3.0922    2.5343 H.spc      1 <1>        0.000
     40 H          -1.4932   -1.6649    1.4680 H.spc      1 <1>        0.000
     41 H          -4.0884   -6.3319   -0.6118 H.spc      1 <1>        0.000
     42 H          -2.8864   -5.7523   -1.8966 H.spc      1 <1>        0.000
     43 H          -1.2291   -6.0012   -0.5893 H.spc      1 <1>        0.000
     44 H          -2.3887   -6.9683    0.4928 H.spc      1 <1>        0.000
@<TRIPOS>BOND
     1    2    6 1  
     2    1    2 1  
     3    3    7 1  
     4    1    3 1  
     5    1    4 1  
     6    2    5 1  
     7   17   18 1  
     8    8   18 1  
     9   15   17 1  
    10   14   16 2  
    11   14    8 1  
    12   13   15 1  
    13   13   14 1  
    14   12   13 2  
    15   10   12 1  
    16    9   11 1  
    17    6    7 1  
    18    5   11 1  
    19    5   10 2  
    20    4    9 1  
    21    1   19 1  
    22    2   20 1  
    23    3   21 1  
    24    3   22 1  
    25    4   23 1  
    26    4   24 1  
    27    6   25 1  
    28    6   26 1  
    29    7   27 1  
    30    7   28 1  
    31    8   29 1  
    32    8   30 1  
    33    9   31 1  
    34    9   32 1  
    35   10   33 1  
    36   11   34 1  
    37   11   35 1  
    38   12   36 1  
    39   15   37 1  
    40   15   38 1  
    41   16   39 1  
    42   16   40 1  
    43   17   41 1  
    44   17   42 1  
    45   18   43 1  
    46   18   44 1  
# Name:          frag5-526-300/138278
# Creation time: Sat Jun  5 12:53:41 2010


@<TRIPOS>MOLECULE
frag5-526-300/138278
   44    46     1     1     1
SMALL
USER_CHARGES


@<TRIPOS>ATOM
      1 C1         -0.6308    2.1891   -0.5256 C.3        1 <1>        0.000
      2 C2          0.0587    0.9492    0.1269 C.3        1 <1>        0.000
      3 C3         -0.2248    3.3967    0.2976 C.3        1 <1>        0.000
      4 C4         -2.1061    2.1472   -0.8055 C.3        1 <1>        0.000
      5 C6         -0.7598   -0.3376    0.0791 C.2        1 <1>        0.000
      6 C7          0.6813    1.4953    1.4088 C.3        1 <1>        0.000
      7 C8          0.9308    2.9599    1.1416 C.3        1 <1>        0.000
      8 C22        -3.9901   -4.0288   -1.0773 C.3        1 <1>        0.000
      9 C10        -2.6428    0.8364   -1.2566 C.3        1 <1>        0.000
     10 C11        -0.5323   -1.4593    0.7947 C.2        1 <1>        0.000
     11 C12        -1.8789   -0.3970   -0.8948 C.3        1 <1>        0.000
     12 C15        -1.0563   -2.7992    0.9676 C.2        1 <1>        0.000
     13 C17        -1.8470   -3.6777    0.3003 C.2        1 <1>        0.000
     14 C19        -2.5343   -3.6101   -0.9992 C.2        1 <1>        0.000
     15 C20        -2.1526   -4.9800    1.0402 C.3        1 <1>        0.000
     16 C23        -1.9431   -3.2723   -2.1535 C.2        1 <1>        0.000
     17 C24        -3.6177   -5.3888    1.0067 C.3        1 <1>        0.000
     18 C27        -4.2536   -5.3337   -0.3593 C.3        1 <1>        0.000
     19 H          -0.2686    2.2233   -1.5531 H.spc      1 <1>        0.000
     20 H           0.8797    0.5049   -0.4359 H.spc      1 <1>        0.000
     21 H           0.0522    4.2334   -0.3438 H.spc      1 <1>        0.000
     22 H          -1.0519    3.7460    0.9157 H.spc      1 <1>        0.000
     23 H          -2.2847    2.8493   -1.6199 H.spc      1 <1>        0.000
     24 H          -2.6045    2.3758    0.1366 H.spc      1 <1>        0.000
     25 H           1.6037    0.9717    1.6602 H.spc      1 <1>        0.000
     26 H           0.0235    1.3514    2.2659 H.spc      1 <1>        0.000
     27 H           0.9991    3.5350    2.0650 H.spc      1 <1>        0.000
     28 H           1.8845    3.1242    0.6401 H.spc      1 <1>        0.000
     29 H          -4.5901   -3.2540   -0.6001 H.spc      1 <1>        0.000
     30 H          -4.2464   -4.1641   -2.1281 H.spc      1 <1>        0.000
     31 H          -3.6087    0.7338   -0.7620 H.spc      1 <1>        0.000
     32 H          -2.6273    0.8770   -2.3457 H.spc      1 <1>        0.000
     33 H           0.3210   -1.3085    1.4559 H.spc      1 <1>        0.000
     34 H          -1.4043   -0.7001   -1.8281 H.spc      1 <1>        0.000
     35 H          -2.6182   -1.0367   -0.4127 H.spc      1 <1>        0.000
     36 H          -0.7154   -3.2273    1.9103 H.spc      1 <1>        0.000
     37 H          -1.5873   -5.7703    0.5462 H.spc      1 <1>        0.000
     38 H          -1.8861   -4.8254    2.0858 H.spc      1 <1>        0.000
     39 H          -2.5074   -3.3070   -3.0854 H.spc      1 <1>        0.000
     40 H          -0.8980   -2.9628   -2.1604 H.spc      1 <1>        0.000
     41 H          -3.6663   -6.4259    1.3386 H.spc      1 <1>        0.000
     42 H          -4.1591   -4.6844    1.6383 H.spc      1 <1>        0.000
     43 H          -5.3315   -5.4312   -0.2296 H.spc      1 <1>        0.000
     44 H          -3.8253   -6.1368   -0.9591 H.spc      1 <1>        0.000
@<TRIPOS>BOND
     1    2    6 1  
     2    1    2 1  
     3    3    7 1  
     4    1    3 1  
     5    1    4 1  
     6    2    5 1  
     7   17   18 1  
     8    8   18 1  
     9   15   17 1  
    10   14   16 2  
    11   14    8 1  
    12   13   15 1  
    13   13   14 1  
    14   12   13 2  
    15   10   12 1  
    16    9   11 1  
    17    6    7 1  
    18    5   11 1  
    19    5   10 2  
    20    4    9 1  
    21    1   19 1  
    22    2   20 1  
    23    3   21 1  
    24    3   22 1  
    25    4   23 1  
    26    4   24 1  
    27    6   25 1  
    28    6   26 1  
    29    7   27 1  
    30    7   28 1  
    31    8   29 1  
    32    8   30 1  
    33    9   31 1  
    34    9   32 1  
    35   10   33 1  
    36   11   34 1  
    37   11   35 1  
    38   12   36 1  
    39   15   37 1  
    40   15   38 1  
    41   16   39 1  
    42   16   40 1  
    43   17   41 1  
    44   17   42 1  
    45   18   43 1  
    46   18   44 1  
# Name:          frag5-526-300/138278
# Creation time: Sat Jun  5 12:53:41 2010


@<TRIPOS>MOLECULE
frag5-526-300/138278
   44    46     1     1     1
SMALL
USER_CHARGES


@<TRIPOS>ATOM
      1 C1         -0.5306    1.9532   -0.7341 C.3        1 <1>        0.000
      2 C2          0.0061    0.6890   -0.0189 C.3        1 <1>        0.000
      3 C3          0.0210    3.1255    0.0628 C.3        1 <1>        0.000
      4 C4         -2.0095    2.0576   -1.0462 C.3        1 <1>        0.000
      5 C6         -1.0138   -0.4183    0.1342 C.2        1 <1>        0.000
      6 C7          0.8212    1.1837    1.1777 C.3        1 <1>        0.000
      7 C8          0.4356    2.6103    1.4084 C.3        1 <1>        0.000
      8 C22        -3.0706   -4.1515   -1.6136 C.3        1 <1>        0.000
      9 C10        -2.7998    0.8071   -1.2708 C.3        1 <1>        0.000
     10 C11        -0.8584   -1.3959    1.0501 C.2        1 <1>        0.000
     11 C12        -2.1945   -0.4802   -0.7939 C.3        1 <1>        0.000
     12 C15        -1.5625   -2.5833    1.4242 C.2        1 <1>        0.000
     13 C17        -1.9896   -3.5774    0.6216 C.2        1 <1>        0.000
     14 C19        -1.8805   -3.6614   -0.8330 C.2        1 <1>        0.000
     15 C20        -2.7025   -4.7597    1.2162 C.3        1 <1>        0.000
     16 C23        -0.7952   -3.2723   -1.5251 C.2        1 <1>        0.000
     17 C24        -4.0772   -4.9714    0.6194 C.3        1 <1>        0.000
     18 C27        -4.2987   -4.4658   -0.7875 C.3        1 <1>        0.000
     19 H          -0.1778    1.9225   -1.7650 H.spc      1 <1>        0.000
     20 H           0.7031    0.1061   -0.6209 H.spc      1 <1>        0.000
     21 H           0.8742    3.5658   -0.4532 H.spc      1 <1>        0.000
     22 H          -0.7384    3.8998    0.1716 H.spc      1 <1>        0.000
     23 H          -2.0569    2.5913   -1.9954 H.spc      1 <1>        0.000
     24 H          -2.4504    2.5100   -0.1579 H.spc      1 <1>        0.000
     25 H           1.8895    1.1000    0.9782 H.spc      1 <1>        0.000
     26 H           0.6146    0.5802    2.0615 H.spc      1 <1>        0.000
     27 H          -0.3690    2.6972    2.1386 H.spc      1 <1>        0.000
     28 H           1.2606    3.1885    1.8246 H.spc      1 <1>        0.000
     29 H          -3.3496   -3.3483   -2.2956 H.spc      1 <1>        0.000
     30 H          -2.7687   -5.0832   -2.0920 H.spc      1 <1>        0.000
     31 H          -3.7198    0.9314   -0.6997 H.spc      1 <1>        0.000
     32 H          -2.8952    0.7070   -2.3520 H.spc      1 <1>        0.000
     33 H           0.0308   -1.2418    1.6613 H.spc      1 <1>        0.000
     34 H          -1.8237   -0.9709   -1.6938 H.spc      1 <1>        0.000
     35 H          -2.9818   -0.9696   -0.2206 H.spc      1 <1>        0.000
     36 H          -1.7796   -2.6976    2.4862 H.spc      1 <1>        0.000
     37 H          -2.1068   -5.6489    1.0099 H.spc      1 <1>        0.000
     38 H          -2.8251   -4.5753    2.2835 H.spc      1 <1>        0.000
     39 H          -0.7979   -3.3182   -2.6141 H.spc      1 <1>        0.000
     40 H           0.0873   -2.9110   -0.9971 H.spc      1 <1>        0.000
     41 H          -4.2191   -6.0512    0.5737 H.spc      1 <1>        0.000
     42 H          -4.7656   -4.4088    1.2500 H.spc      1 <1>        0.000
     43 H          -4.8322   -3.5213   -0.6809 H.spc      1 <1>        0.000
     44 H          -4.8097   -5.2721   -1.3137 H.spc      1 <1>        0.000
@<TRIPOS>BOND
     1    2    6 1  
     2    1    2 1  
     3    3    7 1  
     4    1    3 1  
     5    1    4 1  
     6    2    5 1  
     7   17   18 1  
     8    8   18 1  
     9   15   17 1  
    10   14   16 2  
    11   14    8 1  
    12   13   15 1  
    13   13   14 1  
    14   12   13 2  
    15   10   12 1  
    16    9   11 1  
    17    6    7 1  
    18    5   11 1  
    19    5   10 2  
    20    4    9 1  
    21    1   19 1  
    22    2   20 1  
    23    3   21 1  
    24    3   22 1  
    25    4   23 1  
    26    4   24 1  
    27    6   25 1  
    28    6   26 1  
    29    7   27 1  
    30    7   28 1  
    31    8   29 1  
    32    8   30 1  
    33    9   31 1  
    34    9   32 1  
    35   10   33 1  
    36   11   34 1  
    37   11   35 1  
    38   12   36 1  
    39   15   37 1  
    40   15   38 1  
    41   16   39 1  
    42   16   40 1  
    43   17   41 1  
    44   17   42 1  
    45   18   43 1  
    46   18   44 1  
# Name:          frag5-526-300/138278
# Creation time: Sat Jun  5 12:53:41 2010


@<TRIPOS>MOLECULE
frag5-526-300/138278
   44    46     1     1     1
SMALL
USER_CHARGES


@<TRIPOS>ATOM
      1 C1         -0.4670    2.2679   -0.5127 C.3        1 <1>        0.000
      2 C2         -0.3513    0.7620   -0.2038 C.3        1 <1>        0.000
      3 C3          0.7023    2.9097    0.2243 C.3        1 <1>        0.000
      4 C4         -1.8420    2.8635   -0.3859 C.3        1 <1>        0.000
      5 C6         -1.6161   -0.0341   -0.0642 C.2        1 <1>        0.000
      6 C7          0.7618    0.6308    0.8126 C.3        1 <1>        0.000
      7 C8          1.6614    1.7884    0.5087 C.3        1 <1>        0.000
      8 C22        -1.8683   -5.1296   -1.2119 C.3        1 <1>        0.000
      9 C10        -3.0030    1.9626   -0.7464 C.3        1 <1>        0.000
     10 C11        -1.6992   -1.1270    0.7122 C.2        1 <1>        0.000
     11 C12        -2.8403    0.4513   -0.7731 C.3        1 <1>        0.000
     12 C15        -2.7201   -2.0835    0.9629 C.2        1 <1>        0.000
     13 C17        -2.6733   -3.3361    0.4500 C.2        1 <1>        0.000
     14 C19        -1.5894   -3.9179   -0.3739 C.2        1 <1>        0.000
     15 C20        -3.9533   -4.1521    0.6170 C.3        1 <1>        0.000
     16 C23        -0.3042   -3.5269   -0.4387 C.2        1 <1>        0.000
     17 C24        -4.0074   -5.5245   -0.0444 C.3        1 <1>        0.000
     18 C27        -2.6904   -6.1152   -0.4411 C.3        1 <1>        0.000
     19 H          -0.3674    2.4887   -1.5754 H.spc      1 <1>        0.000
     20 H          -0.0653    0.1967   -1.0907 H.spc      1 <1>        0.000
     21 H           1.1693    3.6931   -0.3727 H.spc      1 <1>        0.000
     22 H           0.3760    3.3988    1.1422 H.spc      1 <1>        0.000
     23 H          -1.8764    3.6963   -1.0883 H.spc      1 <1>        0.000
     24 H          -1.9679    3.1114    0.6681 H.spc      1 <1>        0.000
     25 H           1.2785   -0.3263    0.7409 H.spc      1 <1>        0.000
     26 H           0.3921    0.6506    1.8378 H.spc      1 <1>        0.000
     27 H           2.3412    2.0170    1.3295 H.spc      1 <1>        0.000
     28 H           2.3322    1.5892   -0.3270 H.spc      1 <1>        0.000
     29 H          -2.4178   -4.8274   -2.1034 H.spc      1 <1>        0.000
     30 H          -0.9230   -5.5951   -1.4908 H.spc      1 <1>        0.000
     31 H          -3.7298    2.1368    0.0470 H.spc      1 <1>        0.000
     32 H          -3.2292    2.2230   -1.7804 H.spc      1 <1>        0.000
     33 H          -0.7846   -1.3230    1.2718 H.spc      1 <1>        0.000
     34 H          -2.7528    0.1513   -1.8173 H.spc      1 <1>        0.000
     35 H          -3.7034    0.0215   -0.2647 H.spc      1 <1>        0.000
     36 H          -3.5672   -1.8001    1.5875 H.spc      1 <1>        0.000
     37 H          -4.0433   -4.3394    1.6870 H.spc      1 <1>        0.000
     38 H          -4.7383   -3.5660    0.1391 H.spc      1 <1>        0.000
     39 H           0.4034   -4.0805   -1.0558 H.spc      1 <1>        0.000
     40 H           0.0297   -2.6564    0.1259 H.spc      1 <1>        0.000
     41 H          -4.4369   -6.2026    0.6931 H.spc      1 <1>        0.000
     42 H          -4.5756   -5.3976   -0.9659 H.spc      1 <1>        0.000
     43 H          -2.8739   -6.9852   -1.0716 H.spc      1 <1>        0.000
     44 H          -2.1464   -6.3929    0.4617 H.spc      1 <1>        0.000
@<TRIPOS>BOND
     1    2    6 1  
     2    1    2 1  
     3    3    7 1  
     4    1    3 1  
     5    1    4 1  
     6    2    5 1  
     7   17   18 1  
     8    8   18 1  
     9   15   17 1  
    10   14   16 2  
    11   14    8 1  
    12   13   15 1  
    13   13   14 1  
    14   12   13 2  
    15   10   12 1  
    16    9   11 1  
    17    6    7 1  
    18    5   11 1  
    19    5   10 2  
    20    4    9 1  
    21    1   19 1  
    22    2   20 1  
    23    3   21 1  
    24    3   22 1  
    25    4   23 1  
    26    4   24 1  
    27    6   25 1  
    28    6   26 1  
    29    7   27 1  
    30    7   28 1  
    31    8   29 1  
    32    8   30 1  
    33    9   31 1  
    34    9   32 1  
    35   10   33 1  
    36   11   34 1  
    37   11   35 1  
    38   12   36 1  
    39   15   37 1  
    40   15   38 1  
    41   16   39 1  
    42   16   40 1  
    43   17   41 1  
    44   17   42 1  
    45   18   43 1  
    46   18   44 1  
# Name:          frag5-526-300/138278 -- energy: -6.501564
# Creation time: Sat Jun  5 12:53:41 2010


@<TRIPOS>MOLECULE
frag5-526-300/138278 -- energy: -6.501564
   44    46     1     1     1
SMALL
USER_CHARGES


@<TRIPOS>ATOM
      1 C1         -0.5098    2.5247   -0.3079 C.3        1 <1>        0.000
      2 C2         -0.4404    1.0021   -0.5739 C.3        1 <1>        0.000
      3 C3          0.8096    2.8951    0.3628 C.3        1 <1>        0.000
      4 C4         -1.7496    3.0646    0.3783 C.3        1 <1>        0.000
      5 C6         -1.7646    0.2761   -0.4212 C.2        1 <1>        0.000
      6 C7          0.7825    0.5201    0.2145 C.3        1 <1>        0.000
      7 C8          1.7161    1.6965    0.3042 C.3        1 <1>        0.000
      8 C22        -1.5759   -5.6671   -0.6390 C.3        1 <1>        0.000
      9 C10        -3.0659    2.4609   -0.0262 C.3        1 <1>        0.000
     10 C11        -1.7762   -1.0566   -0.2357 C.2        1 <1>        0.000
     11 C12        -3.0487    1.0538   -0.5886 C.3        1 <1>        0.000
     12 C15        -2.7256   -2.1082   -0.0241 C.2        1 <1>        0.000
     13 C17        -2.6501   -3.4605    0.0726 C.2        1 <1>        0.000
     14 C19        -1.4537   -4.3032   -0.0102 C.2        1 <1>        0.000
     15 C20        -3.9909   -4.1779    0.2921 C.3        1 <1>        0.000
     16 C23        -0.2541   -3.9689    0.4952 C.2        1 <1>        0.000
     17 C24        -4.0465   -5.6424   -0.1286 C.3        1 <1>        0.000
     18 C27        -2.7556   -6.4197   -0.0727 C.3        1 <1>        0.000
     19 H          -0.6318    3.0356   -1.2630 H.spc      1 <1>        0.000
     20 H          -0.2814    0.7473   -1.6217 H.spc      1 <1>        0.000
     21 H           1.2688    3.7390   -0.1520 H.spc      1 <1>        0.000
     22 H           0.6360    3.1845    1.3992 H.spc      1 <1>        0.000
     23 H          -1.8074    4.1184    0.1058 H.spc      1 <1>        0.000
     24 H          -1.6287    2.8365    1.4373 H.spc      1 <1>        0.000
     25 H           1.2614   -0.3241   -0.2815 H.spc      1 <1>        0.000
     26 H           0.4968    0.1693    1.2062 H.spc      1 <1>        0.000
     27 H           2.3676    1.6347    1.1759 H.spc      1 <1>        0.000
     28 H           2.3980    1.7418   -0.5450 H.spc      1 <1>        0.000
     29 H          -1.7210   -5.5457   -1.7125 H.spc      1 <1>        0.000
     30 H          -0.6674   -6.2317   -0.4293 H.spc      1 <1>        0.000
     31 H          -3.6552    2.4033    0.8890 H.spc      1 <1>        0.000
     32 H          -3.4432    3.0930   -0.8301 H.spc      1 <1>        0.000
     33 H          -0.7614   -1.4542   -0.2510 H.spc      1 <1>        0.000
     34 H          -3.2013    1.1565   -1.6630 H.spc      1 <1>        0.000
     35 H          -3.8104    0.5002   -0.0395 H.spc      1 <1>        0.000
     36 H          -3.7446   -1.7368    0.0844 H.spc      1 <1>        0.000
     37 H          -4.1724   -4.1625    1.3668 H.spc      1 <1>        0.000
     38 H          -4.7209   -3.6553   -0.3261 H.spc      1 <1>        0.000
     39 H           0.5763   -4.6727    0.4390 H.spc      1 <1>        0.000
     40 H          -0.1116   -2.9939    0.9613 H.spc      1 <1>        0.000
     41 H          -4.7184   -6.1298    0.5779 H.spc      1 <1>        0.000
     42 H          -4.3475   -5.6400   -1.1762 H.spc      1 <1>        0.000
     43 H          -2.8887   -7.3202   -0.6723 H.spc      1 <1>        0.000
     44 H          -2.5412   -6.6245    0.9762 H.spc      1 <1>        0.000
@<TRIPOS>BOND
     1    2    6 1  
     2    1    2 1  
     3    3    7 1  
     4    1    3 1  
     5    1    4 1  
     6    2    5 1  
     7   17   18 1  
     8    8   18 1  
     9   15   17 1  
    10   14   16 2  
    11   14    8 1  
    12   13   15 1  
    13   13   14 1  
    14   12   13 2  
    15   10   12 1  
    16    9   11 1  
    17    6    7 1  
    18    5   11 1  
    19    5   10 2  
    20    4    9 1  
    21    1   19 1  
    22    2   20 1  
    23    3   21 1  
    24    3   22 1  
    25    4   23 1  
    26    4   24 1  
    27    6   25 1  
    28    6   26 1  
    29    7   27 1  
    30    7   28 1  
    31    8   29 1  
    32    8   30 1  
    33    9   31 1  
    34    9   32 1  
    35   10   33 1  
    36   11   34 1  
    37   11   35 1  
    38   12   36 1  
    39   15   37 1  
    40   15   38 1  
    41   16   39 1  
    42   16   40 1  
    43   17   41 1  
    44   17   42 1  
    45   18   43 1  
    46   18   44 1  
# Name:          frag5-526-300/138278 -- energy: -7.328011
# Creation time: Sat Jun  5 12:53:41 2010


@<TRIPOS>MOLECULE
frag5-526-300/138278 -- energy: -7.328011
   44    46     1     1     1
SMALL
USER_CHARGES


@<TRIPOS>ATOM
      1 C1         -0.5586    1.9895   -0.6954 C.3        1 <1>        0.000
      2 C2         -0.1968    0.6689    0.0098 C.3        1 <1>        0.000
      3 C3          0.3175    3.0428   -0.0297 C.3        1 <1>        0.000
      4 C4         -2.0293    2.2955   -0.8765 C.3        1 <1>        0.000
      5 C6         -1.3193   -0.3215    0.1404 C.2        1 <1>        0.000
      6 C7          0.6931    1.0409    1.1845 C.3        1 <1>        0.000
      7 C8          1.3665    2.3097    0.7587 C.3        1 <1>        0.000
      8 C22        -2.2640   -4.6819   -1.5006 C.3        1 <1>        0.000
      9 C10        -2.9527    1.1291   -1.1421 C.3        1 <1>        0.000
     10 C11        -1.3335   -1.2407    1.1225 C.2        1 <1>        0.000
     11 C12        -2.4503   -0.2704   -0.8479 C.3        1 <1>        0.000
     12 C15        -2.2007   -2.3210    1.4666 C.2        1 <1>        0.000
     13 C17        -2.3162   -3.4606    0.7518 C.2        1 <1>        0.000
     14 C19        -1.5974   -3.8126   -0.4761 C.2        1 <1>        0.000
     15 C20        -3.3008   -4.5100    1.2013 C.3        1 <1>        0.000
     16 C23        -0.3471   -3.4061   -0.7593 C.2        1 <1>        0.000
     17 C24        -4.2527   -4.9403    0.1029 C.3        1 <1>        0.000
     18 C27        -3.7573   -4.8220   -1.3194 C.3        1 <1>        0.000
     19 H          -0.3360    1.9396   -1.7613 H.spc      1 <1>        0.000
     20 H           0.4053   -0.0041   -0.6006 H.spc      1 <1>        0.000
     21 H           0.7786    3.6885   -0.7770 H.spc      1 <1>        0.000
     22 H          -0.2774    3.6824    0.6223 H.spc      1 <1>        0.000
     23 H          -2.0920    2.9287   -1.7615 H.spc      1 <1>        0.000
     24 H          -2.3601    2.7240    0.0696 H.spc      1 <1>        0.000
     25 H           1.4120    0.2553    1.4170 H.spc      1 <1>        0.000
     26 H           0.1225    1.1702    2.1042 H.spc      1 <1>        0.000
     27 H           1.7201    2.8914    1.6100 H.spc      1 <1>        0.000
     28 H           2.2635    2.1195    0.1693 H.spc      1 <1>        0.000
     29 H          -2.1010   -4.2156   -2.4722 H.spc      1 <1>        0.000
     30 H          -1.8341   -5.6789   -1.4042 H.spc      1 <1>        0.000
     31 H          -3.7986    1.2759   -0.4706 H.spc      1 <1>        0.000
     32 H          -3.1341    1.1474   -2.2167 H.spc      1 <1>        0.000
     33 H          -0.4941   -1.1373    1.8101 H.spc      1 <1>        0.000
     34 H          -2.0780   -0.6830   -1.7856 H.spc      1 <1>        0.000
     35 H          -3.2817   -0.8271   -0.4155 H.spc      1 <1>        0.000
     36 H          -2.8094   -2.2193    2.3651 H.spc      1 <1>        0.000
     37 H          -2.7324   -5.3874    1.5100 H.spc      1 <1>        0.000
     38 H          -3.8966   -4.0820    2.0075 H.spc      1 <1>        0.000
     39 H           0.1267   -3.7105   -1.6925 H.spc      1 <1>        0.000
     40 H           0.1924   -2.7722   -0.0556 H.spc      1 <1>        0.000
     41 H          -4.4357   -6.0022    0.2669 H.spc      1 <1>        0.000
     42 H          -5.1116   -4.2731    0.1753 H.spc      1 <1>        0.000
     43 H          -4.1978   -3.9084   -1.7185 H.spc      1 <1>        0.000
     44 H          -4.0367   -5.7514   -1.8157 H.spc      1 <1>        0.000
@<TRIPOS>BOND
     1    2    6 1  
     2    1    2 1  
     3    3    7 1  
     4    1    3 1  
     5    1    4 1  
     6    2    5 1  
     7   17   18 1  
     8    8   18 1  
     9   15   17 1  
    10   14   16 2  
    11   14    8 1  
    12   13   15 1  
    13   13   14 1  
    14   12   13 2  
    15   10   12 1  
    16    9   11 1  
    17    6    7 1  
    18    5   11 1  
    19    5   10 2  
    20    4    9 1  
    21    1   19 1  
    22    2   20 1  
    23    3   21 1  
    24    3   22 1  
    25    4   23 1  
    26    4   24 1  
    27    6   25 1  
    28    6   26 1  
    29    7   27 1  
    30    7   28 1  
    31    8   29 1  
    32    8   30 1  
    33    9   31 1  
    34    9   32 1  
    35   10   33 1  
    36   11   34 1  
    37   11   35 1  
    38   12   36 1  
    39   15   37 1  
    40   15   38 1  
    41   16   39 1  
    42   16   40 1  
    43   17   41 1  
    44   17   42 1  
    45   18   43 1  
    46   18   44 1  
# Name:          frag5-526-300/138278 -- energy: -6.386846
# Creation time: Sat Jun  5 12:53:41 2010


@<TRIPOS>MOLECULE
frag5-526-300/138278 -- energy: -6.386846
   44    46     1     1     1
SMALL
USER_CHARGES


@<TRIPOS>ATOM
      1 C1         -0.5923    2.4504    0.1285 C.3        1 <1>        0.000
      2 C2         -0.5385    1.1968   -0.7757 C.3        1 <1>        0.000
      3 C3          0.8457    2.6430    0.6010 C.3        1 <1>        0.000
      4 C4         -1.7140    2.5013    1.1550 C.3        1 <1>        0.000
      5 C6         -1.7323    0.2798   -0.6805 C.2        1 <1>        0.000
      6 C7          0.8793    0.6479   -0.6411 C.3        1 <1>        0.000
      7 C8          1.7223    1.8473   -0.3313 C.3        1 <1>        0.000
      8 C22        -1.5708   -5.6010    0.3918 C.3        1 <1>        0.000
      9 C10        -3.0409    1.8868    0.7932 C.3        1 <1>        0.000
     10 C11        -1.6000   -1.0472   -0.8982 C.2        1 <1>        0.000
     11 C12        -3.0623    0.8524   -0.3225 C.3        1 <1>        0.000
     12 C15        -2.5162   -2.1530   -0.9376 C.2        1 <1>        0.000
     13 C17        -2.5386   -3.4035   -0.4515 C.2        1 <1>        0.000
     14 C19        -1.5690   -4.0887    0.3877 C.2        1 <1>        0.000
     15 C20        -3.6949   -4.2575   -0.9671 C.3        1 <1>        0.000
     16 C23        -0.7313   -3.4463    1.2067 C.2        1 <1>        0.000
     17 C24        -4.0915   -5.4109   -0.0757 C.3        1 <1>        0.000
     18 C27        -2.9543   -6.2084    0.5089 C.3        1 <1>        0.000
     19 H          -0.9189    3.3365   -0.4158 H.spc      1 <1>        0.000
     20 H          -0.6859    1.4222   -1.8319 H.spc      1 <1>        0.000
     21 H           1.1204    3.6977    0.5846 H.spc      1 <1>        0.000
     22 H           0.9642    2.3015    1.6293 H.spc      1 <1>        0.000
     23 H          -1.9197    3.5615    1.3028 H.spc      1 <1>        0.000
     24 H          -1.3519    1.9222    2.0045 H.spc      1 <1>        0.000
     25 H           1.2082    0.1427   -1.5492 H.spc      1 <1>        0.000
     26 H           0.9497   -0.1114    0.1378 H.spc      1 <1>        0.000
     27 H           2.6836    1.5862    0.1112 H.spc      1 <1>        0.000
     28 H           2.0083    2.4054   -1.2228 H.spc      1 <1>        0.000
     29 H          -1.1499   -5.9299   -0.5583 H.spc      1 <1>        0.000
     30 H          -0.9980   -5.9252    1.2606 H.spc      1 <1>        0.000
     31 H          -3.3701    1.3574    1.6874 H.spc      1 <1>        0.000
     32 H          -3.6565    2.7125    0.4365 H.spc      1 <1>        0.000
     33 H          -0.5683   -1.3449   -1.0857 H.spc      1 <1>        0.000
     34 H          -3.4357    1.3587   -1.2126 H.spc      1 <1>        0.000
     35 H          -3.6761    0.0235    0.0300 H.spc      1 <1>        0.000
     36 H          -3.4177   -1.9176   -1.5032 H.spc      1 <1>        0.000
     37 H          -4.5627   -3.6013   -1.0337 H.spc      1 <1>        0.000
     38 H          -3.3663   -4.6911   -1.9116 H.spc      1 <1>        0.000
     39 H          -0.0672   -4.0120    1.8602 H.spc      1 <1>        0.000
     40 H          -0.7120   -2.3566    1.2214 H.spc      1 <1>        0.000
     41 H          -4.6294   -4.9777    0.7676 H.spc      1 <1>        0.000
     42 H          -4.6623   -6.0995   -0.6987 H.spc      1 <1>        0.000
     43 H          -2.9218   -7.1427   -0.0516 H.spc      1 <1>        0.000
     44 H          -3.1593   -6.2878    1.5765 H.spc      1 <1>        0.000
@<TRIPOS>BOND
     1    2    6 1  
     2    1    2 1  
     3    3    7 1  
     4    1    3 1  
     5    1    4 1  
     6    2    5 1  
     7   17   18 1  
     8    8   18 1  
     9   15   17 1  
    10   14   16 2  
    11   14    8 1  
    12   13   15 1  
    13   13   14 1  
    14   12   13 2  
    15   10   12 1  
    16    9   11 1  
    17    6    7 1  
    18    5   11 1  
    19    5   10 2  
    20    4    9 1  
    21    1   19 1  
    22    2   20 1  
    23    3   21 1  
    24    3   22 1  
    25    4   23 1  
    26    4   24 1  
    27    6   25 1  
    28    6   26 1  
    29    7   27 1  
    30    7   28 1  
    31    8   29 1  
    32    8   30 1  
    33    9   31 1  
    34    9   32 1  
    35   10   33 1  
    36   11   34 1  
    37   11   35 1  
    38   12   36 1  
    39   15   37 1  
    40   15   38 1  
    41   16   39 1  
    42   16   40 1  
    43   17   41 1  
    44   17   42 1  
    45   18   43 1  
    46   18   44 1  
# Name:          frag5-526-300/138278 -- energy: -6.954030
# Creation time: Sat Jun  5 12:53:41 2010


@<TRIPOS>MOLECULE
frag5-526-300/138278 -- energy: -6.954030
   44    46     1     1     1
SMALL
USER_CHARGES


@<TRIPOS>ATOM
      1 C1         -0.6178    2.3035    0.2949 C.3        1 <1>        0.000
      2 C2         -0.6145    1.2488   -0.8416 C.3        1 <1>        0.000
      3 C3          0.8586    2.6065    0.5491 C.3        1 <1>        0.000
      4 C4         -1.5124    2.0158    1.4869 C.3        1 <1>        0.000
      5 C6         -1.6566    0.1629   -0.7248 C.2        1 <1>        0.000
      6 C7          0.8511    0.8987   -1.0682 C.3        1 <1>        0.000
      7 C8          1.6053    2.1312   -0.6655 C.3        1 <1>        0.000
      8 C22        -1.9726   -5.1998    1.1039 C.3        1 <1>        0.000
      9 C10        -2.8161    1.2915    1.2342 C.3        1 <1>        0.000
     10 C11        -1.4732   -1.0629   -1.2381 C.2        1 <1>        0.000
     11 C12        -2.9473    0.4755   -0.0330 C.3        1 <1>        0.000
     12 C15        -2.2215   -2.2691   -1.3457 C.2        1 <1>        0.000
     13 C17        -2.4274   -3.3916   -0.6344 C.2        1 <1>        0.000
     14 C19        -1.8730   -3.7588    0.6620 C.2        1 <1>        0.000
     15 C20        -3.3563   -4.3881   -1.3454 C.3        1 <1>        0.000
     16 C23        -1.3545   -2.8781    1.5295 C.2        1 <1>        0.000
     17 C24        -3.6352   -5.7220   -0.6713 C.3        1 <1>        0.000
     18 C27        -3.3363   -5.7748    0.7989 C.3        1 <1>        0.000
     19 H          -1.1329    3.2169   -0.0025 H.spc      1 <1>        0.000
     20 H          -0.9991    1.6327   -1.7864 H.spc      1 <1>        0.000
     21 H           1.0163    3.6726    0.7125 H.spc      1 <1>        0.000
     22 H           1.2122    2.1012    1.4479 H.spc      1 <1>        0.000
     23 H          -1.7945    2.9924    1.8804 H.spc      1 <1>        0.000
     24 H          -0.9333    1.3546    2.1315 H.spc      1 <1>        0.000
     25 H           1.0472    0.6230   -2.1044 H.spc      1 <1>        0.000
     26 H           1.1553    0.0284   -0.4868 H.spc      1 <1>        0.000
     27 H           2.6578    1.9335   -0.4624 H.spc      1 <1>        0.000
     28 H           1.6424    2.8798   -1.4569 H.spc      1 <1>        0.000
     29 H          -1.2231   -5.7802    0.5659 H.spc      1 <1>        0.000
     30 H          -1.8102   -5.2444    2.1808 H.spc      1 <1>        0.000
     31 H          -2.9084    0.5735    2.0491 H.spc      1 <1>        0.000
     32 H          -3.5687    2.0755    1.1502 H.spc      1 <1>        0.000
     33 H          -0.4883   -1.1616   -1.6946 H.spc      1 <1>        0.000
     34 H          -3.5399    1.0698   -0.7286 H.spc      1 <1>        0.000
     35 H          -3.3888   -0.4791    0.2532 H.spc      1 <1>        0.000
     36 H          -2.7933   -2.2884   -2.2735 H.spc      1 <1>        0.000
     37 H          -4.3232   -3.8881   -1.4017 H.spc      1 <1>        0.000
     38 H          -2.8483   -4.6386   -2.2767 H.spc      1 <1>        0.000
     39 H          -1.0232   -3.2121    2.5128 H.spc      1 <1>        0.000
     40 H          -1.2642   -1.8280    1.2516 H.spc      1 <1>        0.000
     41 H          -4.7039   -5.9078   -0.7787 H.spc      1 <1>        0.000
     42 H          -2.9835   -6.4542   -1.1481 H.spc      1 <1>        0.000
     43 H          -3.3526   -6.8167    1.1187 H.spc      1 <1>        0.000
     44 H          -4.0867   -5.1860    1.3265 H.spc      1 <1>        0.000
@<TRIPOS>BOND
     1    2    6 1  
     2    1    2 1  
     3    3    7 1  
     4    1    3 1  
     5    1    4 1  
     6    2    5 1  
     7   17   18 1  
     8    8   18 1  
     9   15   17 1  
    10   14   16 2  
    11   14    8 1  
    12   13   15 1  
    13   13   14 1  
    14   12   13 2  
    15   10   12 1  
    16    9   11 1  
    17    6    7 1  
    18    5   11 1  
    19    5   10 2  
    20    4    9 1  
    21    1   19 1  
    22    2   20 1  
    23    3   21 1  
    24    3   22 1  
    25    4   23 1  
    26    4   24 1  
    27    6   25 1  
    28    6   26 1  
    29    7   27 1  
    30    7   28 1  
    31    8   29 1  
    32    8   30 1  
    33    9   31 1  
    34    9   32 1  
    35   10   33 1  
    36   11   34 1  
    37   11   35 1  
    38   12   36 1  
    39   15   37 1  
    40   15   38 1  
    41   16   39 1  
    42   16   40 1  
    43   17   41 1  
    44   17   42 1  
    45   18   43 1  
    46   18   44 1  
# Name:          frag5-526-300/138278 -- energy: -6.873429
# Creation time: Sat Jun  5 12:53:41 2010


@<TRIPOS>MOLECULE
frag5-526-300/138278 -- energy: -6.873429
   44    46     1     1     1
SMALL
USER_CHARGES


@<TRIPOS>ATOM
      1 C1         -0.4212    2.0607   -0.6144 C.3        1 <1>        0.000
      2 C2         -0.2295    0.6773    0.0246 C.3        1 <1>        0.000
      3 C3          0.5290    2.9681    0.1563 C.3        1 <1>        0.000
      4 C4         -1.8439    2.4936   -0.8503 C.3        1 <1>        0.000
      5 C6         -1.4255   -0.2147    0.1138 C.2        1 <1>        0.000
      6 C7          0.6813    0.8734    1.2166 C.3        1 <1>        0.000
      7 C8          1.5137    2.0543    0.8309 C.3        1 <1>        0.000
      8 C22        -2.4742   -4.5995   -1.6077 C.3        1 <1>        0.000
      9 C10        -2.8413    1.4130   -1.2105 C.3        1 <1>        0.000
     10 C11        -1.5483   -1.1440    1.0767 C.2        1 <1>        0.000
     11 C12        -2.5337   -0.0363   -0.8791 C.3        1 <1>        0.000
     12 C15        -2.5239   -2.1436    1.3401 C.2        1 <1>        0.000
     13 C17        -2.6566   -3.2459    0.5608 C.2        1 <1>        0.000
     14 C19        -1.8925   -3.5992   -0.6545 C.2        1 <1>        0.000
     15 C20        -3.7095   -4.2420    0.9926 C.3        1 <1>        0.000
     16 C23        -0.6787   -3.1488   -1.0171 C.2        1 <1>        0.000
     17 C24        -3.4270   -5.6550    0.5271 C.3        1 <1>        0.000
     18 C27        -3.0178   -5.8219   -0.9143 C.3        1 <1>        0.000
     19 H          -0.1505    2.0849   -1.6700 H.spc      1 <1>        0.000
     20 H           0.2794   -0.0059   -0.6554 H.spc      1 <1>        0.000
     21 H           1.0319    3.6706   -0.5083 H.spc      1 <1>        0.000
     22 H          -0.0079    3.5775    0.8833 H.spc      1 <1>        0.000
     23 H          -1.8117    3.1662   -1.7075 H.spc      1 <1>        0.000
     24 H          -2.1879    2.9124    0.0954 H.spc      1 <1>        0.000
     25 H           1.2835   -0.0094    1.4314 H.spc      1 <1>        0.000
     26 H           0.1286    1.0367    2.1418 H.spc      1 <1>        0.000
     27 H           2.0004    2.5215    1.6870 H.spc      1 <1>        0.000
     28 H           2.3478    1.7853    0.1828 H.spc      1 <1>        0.000
     29 H          -3.3002   -4.1189   -2.1320 H.spc      1 <1>        0.000
     30 H          -1.6779   -4.9231   -2.2780 H.spc      1 <1>        0.000
     31 H          -3.7264    1.6481   -0.6194 H.spc      1 <1>        0.000
     32 H          -2.8951    1.4405   -2.2988 H.spc      1 <1>        0.000
     33 H          -0.7353   -1.1280    1.8026 H.spc      1 <1>        0.000
     34 H          -2.2187   -0.5189   -1.8043 H.spc      1 <1>        0.000
     35 H          -3.4339   -0.4645   -0.4382 H.spc      1 <1>        0.000
     36 H          -3.1871   -2.0203    2.1963 H.spc      1 <1>        0.000
     37 H          -3.7252   -4.2520    2.0824 H.spc      1 <1>        0.000
     38 H          -4.6560   -3.9329    0.5490 H.spc      1 <1>        0.000
     39 H          -0.2122   -3.5152   -1.9316 H.spc      1 <1>        0.000
     40 H          -0.1611   -2.4172   -0.3966 H.spc      1 <1>        0.000
     41 H          -2.5832   -6.0048    1.1219 H.spc      1 <1>        0.000
     42 H          -4.3633   -6.2017    0.6393 H.spc      1 <1>        0.000
     43 H          -3.9240   -6.0961   -1.4544 H.spc      1 <1>        0.000
     44 H          -2.2090   -6.5526   -0.9147 H.spc      1 <1>        0.000
@<TRIPOS>BOND
     1    2    6 1  
     2    1    2 1  
     3    3    7 1  
     4    1    3 1  
     5    1    4 1  
     6    2    5 1  
     7   17   18 1  
     8    8   18 1  
     9   15   17 1  
    10   14   16 2  
    11   14    8 1  
    12   13   15 1  
    13   13   14 1  
    14   12   13 2  
    15   10   12 1  
    16    9   11 1  
    17    6    7 1  
    18    5   11 1  
    19    5   10 2  
    20    4    9 1  
    21    1   19 1  
    22    2   20 1  
    23    3   21 1  
    24    3   22 1  
    25    4   23 1  
    26    4   24 1  
    27    6   25 1  
    28    6   26 1  
    29    7   27 1  
    30    7   28 1  
    31    8   29 1  
    32    8   30 1  
    33    9   31 1  
    34    9   32 1  
    35   10   33 1  
    36   11   34 1  
    37   11   35 1  
    38   12   36 1  
    39   15   37 1  
    40   15   38 1  
    41   16   39 1  
    42   16   40 1  
    43   17   41 1  
    44   17   42 1  
    45   18   43 1  
    46   18   44 1  
# Name:          frag5-526-300/138278 -- energy: -6.174828
# Creation time: Sat Jun  5 12:53:41 2010


@<TRIPOS>MOLECULE
frag5-526-300/138278 -- energy: -6.174828
   44    46     1     1     1
SMALL
USER_CHARGES


@<TRIPOS>ATOM
      1 C1         -0.5303    2.3173    0.0992 C.3        1 <1>        0.000
      2 C2         -0.6979    1.2515   -1.0190 C.3        1 <1>        0.000
      3 C3          0.9625    2.4164    0.3846 C.3        1 <1>        0.000
      4 C4         -1.3889    2.1773    1.3379 C.3        1 <1>        0.000
      5 C6         -1.7949    0.2280   -0.7613 C.2        1 <1>        0.000
      6 C7          0.7176    0.7667   -1.3305 C.3        1 <1>        0.000
      7 C8          1.5958    1.1866   -0.1890 C.3        1 <1>        0.000
      8 C22        -1.8450   -5.0675    1.1796 C.3        1 <1>        0.000
      9 C10        -2.7334    1.5119    1.2101 C.3        1 <1>        0.000
     10 C11        -1.7544   -1.0442   -1.2055 C.2        1 <1>        0.000
     11 C12        -3.0149    0.6492    0.0060 C.3        1 <1>        0.000
     12 C15        -2.6242   -2.1786   -1.1631 C.2        1 <1>        0.000
     13 C17        -2.7627   -3.2481   -0.3510 C.2        1 <1>        0.000
     14 C19        -1.9981   -3.6068    0.8357 C.2        1 <1>        0.000
     15 C20        -3.8194   -4.2567   -0.7594 C.3        1 <1>        0.000
     16 C23        -1.4178   -2.7346    1.6633 C.2        1 <1>        0.000
     17 C24        -3.2705   -5.6633   -0.8804 C.3        1 <1>        0.000
     18 C27        -2.1231   -6.0158    0.0341 C.3        1 <1>        0.000
     19 H          -0.9324    3.2576   -0.2779 H.spc      1 <1>        0.000
     20 H          -1.1185    1.6590   -1.9383 H.spc      1 <1>        0.000
     21 H           1.3841    3.3151   -0.0656 H.spc      1 <1>        0.000
     22 H           1.1483    2.4837    1.4565 H.spc      1 <1>        0.000
     23 H          -1.6055    3.1987    1.6508 H.spc      1 <1>        0.000
     24 H          -0.8172    1.5368    2.0095 H.spc      1 <1>        0.000
     25 H           1.0729    1.1995   -2.2657 H.spc      1 <1>        0.000
     26 H           0.7337   -0.3169   -1.4469 H.spc      1 <1>        0.000
     27 H           1.6771    0.3977    0.5588 H.spc      1 <1>        0.000
     28 H           2.6135    1.3854   -0.5249 H.spc      1 <1>        0.000
     29 H          -0.8061   -5.2184    1.4729 H.spc      1 <1>        0.000
     30 H          -2.5729   -5.2889    1.9601 H.spc      1 <1>        0.000
     31 H          -2.7907    0.8322    2.0603 H.spc      1 <1>        0.000
     32 H          -3.4460    2.3335    1.1379 H.spc      1 <1>        0.000
     33 H          -0.8239   -1.2635   -1.7291 H.spc      1 <1>        0.000
     34 H          -3.6285    1.2415   -0.6728 H.spc      1 <1>        0.000
     35 H          -3.4905   -0.2610    0.3714 H.spc      1 <1>        0.000
     36 H          -3.3462   -2.1800   -1.9797 H.spc      1 <1>        0.000
     37 H          -4.5903   -4.2638    0.0111 H.spc      1 <1>        0.000
     38 H          -4.2028   -3.9622   -1.7363 H.spc      1 <1>        0.000
     39 H          -0.8687   -3.0922    2.5343 H.spc      1 <1>        0.000
     40 H          -1.4932   -1.6649    1.4680 H.spc      1 <1>        0.000
     41 H          -4.0884   -6.3319   -0.6118 H.spc      1 <1>        0.000
     42 H          -2.8864   -5.7523   -1.8966 H.spc      1 <1>        0.000
     43 H          -1.2291   -6.0012   -0.5893 H.spc      1 <1>        0.000
     44 H          -2.3887   -6.9683    0.4928 H.spc      1 <1>        0.000
@<TRIPOS>BOND
     1    2    6 1  
     2    1    2 1  
     3    3    7 1  
     4    1    3 1  
     5    1    4 1  
     6    2    5 1  
     7   17   18 1  
     8    8   18 1  
     9   15   17 1  
    10   14   16 2  
    11   14    8 1  
    12   13   15 1  
    13   13   14 1  
    14   12   13 2  
    15   10   12 1  
    16    9   11 1  
    17    6    7 1  
    18    5   11 1  
    19    5   10 2  
    20    4    9 1  
    21    1   19 1  
    22    2   20 1  
    23    3   21 1  
    24    3   22 1  
    25    4   23 1  
    26    4   24 1  
    27    6   25 1  
    28    6   26 1  
    29    7   27 1  
    30    7   28 1  
    31    8   29 1  
    32    8   30 1  
    33    9   31 1  
    34    9   32 1  
    35   10   33 1  
    36   11   34 1  
    37   11   35 1  
    38   12   36 1  
    39   15   37 1  
    40   15   38 1  
    41   16   39 1  
    42   16   40 1  
    43   17   41 1  
    44   17   42 1  
    45   18   43 1  
    46   18   44 1  
# Name:          frag5-526-300/138278 -- energy: -7.147605
# Creation time: Sat Jun  5 12:53:41 2010


@<TRIPOS>MOLECULE
frag5-526-300/138278 -- energy: -7.147605
   44    46     1     1     1
SMALL
USER_CHARGES


@<TRIPOS>ATOM
      1 C1         -0.6308    2.1891   -0.5256 C.3        1 <1>        0.000
      2 C2          0.0587    0.9492    0.1269 C.3        1 <1>        0.000
      3 C3         -0.2248    3.3967    0.2976 C.3        1 <1>        0.000
      4 C4         -2.1061    2.1472   -0.8055 C.3        1 <1>        0.000
      5 C6         -0.7598   -0.3376    0.0791 C.2        1 <1>        0.000
      6 C7          0.6813    1.4953    1.4088 C.3        1 <1>        0.000
      7 C8          0.9308    2.9599    1.1416 C.3        1 <1>        0.000
      8 C22        -3.9901   -4.0288   -1.0773 C.3        1 <1>        0.000
      9 C10        -2.6428    0.8364   -1.2566 C.3        1 <1>        0.000
     10 C11        -0.5323   -1.4593    0.7947 C.2        1 <1>        0.000
     11 C12        -1.8789   -0.3970   -0.8948 C.3        1 <1>        0.000
     12 C15        -1.0563   -2.7992    0.9676 C.2        1 <1>        0.000
     13 C17        -1.8470   -3.6777    0.3003 C.2        1 <1>        0.000
     14 C19        -2.5343   -3.6101   -0.9992 C.2        1 <1>        0.000
     15 C20        -2.1526   -4.9800    1.0402 C.3        1 <1>        0.000
     16 C23        -1.9431   -3.2723   -2.1535 C.2        1 <1>        0.000
     17 C24        -3.6177   -5.3888    1.0067 C.3        1 <1>        0.000
     18 C27        -4.2536   -5.3337   -0.3593 C.3        1 <1>        0.000
     19 H          -0.2686    2.2233   -1.5531 H.spc      1 <1>        0.000
     20 H           0.8797    0.5049   -0.4359 H.spc      1 <1>        0.000
     21 H           0.0522    4.2334   -0.3438 H.spc      1 <1>        0.000
     22 H          -1.0519    3.7460    0.9157 H.spc      1 <1>        0.000
     23 H          -2.2847    2.8493   -1.6199 H.spc      1 <1>        0.000
     24 H          -2.6045    2.3758    0.1366 H.spc      1 <1>        0.000
     25 H           1.6037    0.9717    1.6602 H.spc      1 <1>        0.000
     26 H           0.0235    1.3514    2.2659 H.spc      1 <1>        0.000
     27 H           0.9991    3.5350    2.0650 H.spc      1 <1>        0.000
     28 H           1.8845    3.1242    0.6401 H.spc      1 <1>        0.000
     29 H          -4.5901   -3.2540   -0.6001 H.spc      1 <1>        0.000
     30 H          -4.2464   -4.1641   -2.1281 H.spc      1 <1>        0.000
     31 H          -3.6087    0.7338   -0.7620 H.spc      1 <1>        0.000
     32 H          -2.6273    0.8770   -2.3457 H.spc      1 <1>        0.000
     33 H           0.3210   -1.3085    1.4559 H.spc      1 <1>        0.000
     34 H          -1.4043   -0.7001   -1.8281 H.spc      1 <1>        0.000
     35 H          -2.6182   -1.0367   -0.4127 H.spc      1 <1>        0.000
     36 H          -0.7154   -3.2273    1.9103 H.spc      1 <1>        0.000
     37 H          -1.5873   -5.7703    0.5462 H.spc      1 <1>        0.000
     38 H          -1.8861   -4.8254    2.0858 H.spc      1 <1>        0.000
     39 H          -2.5074   -3.3070   -3.0854 H.spc      1 <1>        0.000
     40 H          -0.8980   -2.9628   -2.1604 H.spc      1 <1>        0.000
     41 H          -3.6663   -6.4259    1.3386 H.spc      1 <1>        0.000
     42 H          -4.1591   -4.6844    1.6383 H.spc      1 <1>        0.000
     43 H          -5.3315   -5.4312   -0.2296 H.spc      1 <1>        0.000
     44 H          -3.8253   -6.1368   -0.9591 H.spc      1 <1>        0.000
@<TRIPOS>BOND
     1    2    6 1  
     2    1    2 1  
     3    3    7 1  
     4    1    3 1  
     5    1    4 1  
     6    2    5 1  
     7   17   18 1  
     8    8   18 1  
     9   15   17 1  
    10   14   16 2  
    11   14    8 1  
    12   13   15 1  
    13   13   14 1  
    14   12   13 2  
    15   10   12 1  
    16    9   11 1  
    17    6    7 1  
    18    5   11 1  
    19    5   10 2  
    20    4    9 1  
    21    1   19 1  
    22    2   20 1  
    23    3   21 1  
    24    3   22 1  
    25    4   23 1  
    26    4   24 1  
    27    6   25 1  
    28    6   26 1  
    29    7   27 1  
    30    7   28 1  
    31    8   29 1  
    32    8   30 1  
    33    9   31 1  
    34    9   32 1  
    35   10   33 1  
    36   11   34 1  
    37   11   35 1  
    38   12   36 1  
    39   15   37 1  
    40   15   38 1  
    41   16   39 1  
    42   16   40 1  
    43   17   41 1  
    44   17   42 1  
    45   18   43 1  
    46   18   44 1  
# Name:          frag5-526-300/138278 -- energy: -7.497937
# Creation time: Sat Jun  5 12:53:41 2010


@<TRIPOS>MOLECULE
frag5-526-300/138278 -- energy: -7.497937
   44    46     1     1     1
SMALL
USER_CHARGES


@<TRIPOS>ATOM
      1 C1         -0.5306    1.9532   -0.7341 C.3        1 <1>        0.000
      2 C2          0.0061    0.6890   -0.0189 C.3        1 <1>        0.000
      3 C3          0.0210    3.1255    0.0628 C.3        1 <1>        0.000
      4 C4         -2.0095    2.0576   -1.0462 C.3        1 <1>        0.000
      5 C6         -1.0138   -0.4183    0.1342 C.2        1 <1>        0.000
      6 C7          0.8212    1.1837    1.1777 C.3        1 <1>        0.000
      7 C8          0.4356    2.6103    1.4084 C.3        1 <1>        0.000
      8 C22        -3.0706   -4.1515   -1.6136 C.3        1 <1>        0.000
      9 C10        -2.7998    0.8071   -1.2708 C.3        1 <1>        0.000
     10 C11        -0.8584   -1.3959    1.0501 C.2        1 <1>        0.000
     11 C12        -2.1945   -0.4802   -0.7939 C.3        1 <1>        0.000
     12 C15        -1.5625   -2.5833    1.4242 C.2        1 <1>        0.000
     13 C17        -1.9896   -3.5774    0.6216 C.2        1 <1>        0.000
     14 C19        -1.8805   -3.6614   -0.8330 C.2        1 <1>        0.000
     15 C20        -2.7025   -4.7597    1.2162 C.3        1 <1>        0.000
     16 C23        -0.7952   -3.2723   -1.5251 C.2        1 <1>        0.000
     17 C24        -4.0772   -4.9714    0.6194 C.3        1 <1>        0.000
     18 C27        -4.2987   -4.4658   -0.7875 C.3        1 <1>        0.000
     19 H          -0.1778    1.9225   -1.7650 H.spc      1 <1>        0.000
     20 H           0.7031    0.1061   -0.6209 H.spc      1 <1>        0.000
     21 H           0.8742    3.5658   -0.4532 H.spc      1 <1>        0.000
     22 H          -0.7384    3.8998    0.1716 H.spc      1 <1>        0.000
     23 H          -2.0569    2.5913   -1.9954 H.spc      1 <1>        0.000
     24 H          -2.4504    2.5100   -0.1579 H.spc      1 <1>        0.000
     25 H           1.8895    1.1000    0.9782 H.spc      1 <1>        0.000
     26 H           0.6146    0.5802    2.0615 H.spc      1 <1>        0.000
     27 H          -0.3690    2.6972    2.1386 H.spc      1 <1>        0.000
     28 H           1.2606    3.1885    1.8246 H.spc      1 <1>        0.000
     29 H          -3.3496   -3.3483   -2.2956 H.spc      1 <1>        0.000
     30 H          -2.7687   -5.0832   -2.0920 H.spc      1 <1>        0.000
     31 H          -3.7198    0.9314   -0.6997 H.spc      1 <1>        0.000
     32 H          -2.8952    0.7070   -2.3520 H.spc      1 <1>        0.000
     33 H           0.0308   -1.2418    1.6613 H.spc      1 <1>        0.000
     34 H          -1.8237   -0.9709   -1.6938 H.spc      1 <1>        0.000
     35 H          -2.9818   -0.9696   -0.2206 H.spc      1 <1>        0.000
     36 H          -1.7796   -2.6976    2.4862 H.spc      1 <1>        0.000
     37 H          -2.1068   -5.6489    1.0099 H.spc      1 <1>        0.000
     38 H          -2.8251   -4.5753    2.2835 H.spc      1 <1>        0.000
     39 H          -0.7979   -3.3182   -2.6141 H.spc      1 <1>        0.000
     40 H           0.0873   -2.9110   -0.9971 H.spc      1 <1>        0.000
     41 H          -4.2191   -6.0512    0.5737 H.spc      1 <1>        0.000
     42 H          -4.7656   -4.4088    1.2500 H.spc      1 <1>        0.000
     43 H          -4.8322   -3.5213   -0.6809 H.spc      1 <1>        0.000
     44 H          -4.8097   -5.2721   -1.3137 H.spc      1 <1>        0.000
@<TRIPOS>BOND
     1    2    6 1  
     2    1    2 1  
     3    3    7 1  
     4    1    3 1  
     5    1    4 1  
     6    2    5 1  
     7   17   18 1  
     8    8   18 1  
     9   15   17 1  
    10   14   16 2  
    11   14    8 1  
    12   13   15 1  
    13   13   14 1  
    14   12   13 2  
    15   10   12 1  
    16    9   11 1  
    17    6    7 1  
    18    5   11 1  
    19    5   10 2  
    20    4    9 1  
    21    1   19 1  
    22    2   20 1  
    23    3   21 1  
    24    3   22 1  
    25    4   23 1  
    26    4   24 1  
    27    6   25 1  
    28    6   26 1  
    29    7   27 1  
    30    7   28 1  
    31    8   29 1  
    32    8   30 1  
    33    9   31 1  
    34    9   32 1  
    35   10   33 1  
    36   11   34 1  
    37   11   35 1  
    38   12   36 1  
    39   15   37 1  
    40   15   38 1  
    41   16   39 1  
    42   16   40 1  
    43   17   41 1  
    44   17   42 1  
    45   18   43 1  
    46   18   44 1  
# Name:          frag5-526-300/138278 -- energy: -6.153064
# Creation time: Sat Jun  5 12:53:41 2010


@<TRIPOS>MOLECULE
frag5-526-300/138278 -- energy: -6.153064
   44    46     1     1     1
SMALL
USER_CHARGES


@<TRIPOS>ATOM
      1 C1         -0.4670    2.2679   -0.5127 C.3        1 <1>        0.000
      2 C2         -0.3513    0.7620   -0.2038 C.3        1 <1>        0.000
      3 C3          0.7023    2.9097    0.2243 C.3        1 <1>        0.000
      4 C4         -1.8420    2.8635   -0.3859 C.3        1 <1>        0.000
      5 C6         -1.6161   -0.0341   -0.0642 C.2        1 <1>        0.000
      6 C7          0.7618    0.6308    0.8126 C.3        1 <1>        0.000
      7 C8          1.6614    1.7884    0.5087 C.3        1 <1>        0.000
      8 C22        -1.8683   -5.1296   -1.2119 C.3        1 <1>        0.000
      9 C10        -3.0030    1.9626   -0.7464 C.3        1 <1>        0.000
     10 C11        -1.6992   -1.1270    0.7122 C.2        1 <1>        0.000
     11 C12        -2.8403    0.4513   -0.7731 C.3        1 <1>        0.000
     12 C15        -2.7201   -2.0835    0.9629 C.2        1 <1>        0.000
     13 C17        -2.6733   -3.3361    0.4500 C.2        1 <1>        0.000
     14 C19        -1.5894   -3.9179   -0.3739 C.2        1 <1>        0.000
     15 C20        -3.9533   -4.1521    0.6170 C.3        1 <1>        0.000
     16 C23        -0.3042   -3.5269   -0.4387 C.2        1 <1>        0.000
     17 C24        -4.0074   -5.5245   -0.0444 C.3        1 <1>        0.000
     18 C27        -2.6904   -6.1152   -0.4411 C.3        1 <1>        0.000
     19 H          -0.3674    2.4887   -1.5754 H.spc      1 <1>        0.000
     20 H          -0.0653    0.1967   -1.0907 H.spc      1 <1>        0.000
     21 H           1.1693    3.6931   -0.3727 H.spc      1 <1>        0.000
     22 H           0.3760    3.3988    1.1422 H.spc      1 <1>        0.000
     23 H          -1.8764    3.6963   -1.0883 H.spc      1 <1>        0.000
     24 H          -1.9679    3.1114    0.6681 H.spc      1 <1>        0.000
     25 H           1.2785   -0.3263    0.7409 H.spc      1 <1>        0.000
     26 H           0.3921    0.6506    1.8378 H.spc      1 <1>        0.000
     27 H           2.3412    2.0170    1.3295 H.spc      1 <1>        0.000
     28 H           2.3322    1.5892   -0.3270 H.spc      1 <1>        0.000
     29 H          -2.4178   -4.8274   -2.1034 H.spc      1 <1>        0.000
     30 H          -0.9230   -5.5951   -1.4908 H.spc      1 <1>        0.000
     31 H          -3.7298    2.1368    0.0470 H.spc      1 <1>        0.000
     32 H          -3.2292    2.2230   -1.7804 H.spc      1 <1>        0.000
     33 H          -0.7846   -1.3230    1.2718 H.spc      1 <1>        0.000
     34 H          -2.7528    0.1513   -1.8173 H.spc      1 <1>        0.000
     35 H          -3.7034    0.0215   -0.2647 H.spc      1 <1>        0.000
     36 H          -3.5672   -1.8001    1.5875 H.spc      1 <1>        0.000
     37 H          -4.0433   -4.3394    1.6870 H.spc      1 <1>        0.000
     38 H          -4.7383   -3.5660    0.1391 H.spc      1 <1>        0.000
     39 H           0.4034   -4.0805   -1.0558 H.spc      1 <1>        0.000
     40 H           0.0297   -2.6564    0.1259 H.spc      1 <1>        0.000
     41 H          -4.4369   -6.2026    0.6931 H.spc      1 <1>        0.000
     42 H          -4.5756   -5.3976   -0.9659 H.spc      1 <1>        0.000
     43 H          -2.8739   -6.9852   -1.0716 H.spc      1 <1>        0.000
     44 H          -2.1464   -6.3929    0.4617 H.spc      1 <1>        0.000
@<TRIPOS>BOND
     1    2    6 1  
     2    1    2 1  
     3    3    7 1  
     4    1    3 1  
     5    1    4 1  
     6    2    5 1  
     7   17   18 1  
     8    8   18 1  
     9   15   17 1  
    10   14   16 2  
    11   14    8 1  
    12   13   15 1  
    13   13   14 1  
    14   12   13 2  
    15   10   12 1  
    16    9   11 1  
    17    6    7 1  
    18    5   11 1  
    19    5   10 2  
    20    4    9 1  
    21    1   19 1  
    22    2   20 1  
    23    3   21 1  
    24    3   22 1  
    25    4   23 1  
    26    4   24 1  
    27    6   25 1  
    28    6   26 1  
    29    7   27 1  
    30    7   28 1  
    31    8   29 1  
    32    8   30 1  
    33    9   31 1  
    34    9   32 1  
    35   10   33 1  
    36   11   34 1  
    37   11   35 1  
    38   12   36 1  
    39   15   37 1  
    40   15   38 1  
    41   16   39 1  
    42   16   40 1  
    43   17   41 1  
    44   17   42 1  
    45   18   43 1  
    46   18   44 1  
