#      Rotatable Fragment
#      Build by yxyuan
#
# Name:          frag5-502-240/41815
# Creation time: Sat Jun  5 12:52:50 2010


@<TRIPOS>MOLECULE
frag5-502-240/41815
   14    14     1     1     1
SMALL
USER_CHARGES


@<TRIPOS>ATOM
      1 N1         -2.3302   -0.1136    0.0838 N.pl3      1 <1>        0.000
      2 C18        -0.9215   -0.0435    0.0330 C.ar       1 <1>        0.000
      3 C19        -0.1276   -1.2004   -0.1395 C.ar       1 <1>        0.000
      4 C20         1.2510   -1.1365   -0.1886 C.ar       1 <1>        0.000
      5 C21         1.8953    0.0908   -0.0678 C.ar       1 <1>        0.000
      6 C22         1.1483    1.2549    0.1020 C.ar       1 <1>        0.000
      7 C23        -0.2332    1.1857    0.1528 C.ar       1 <1>        0.000
      8 H          -2.7995   -1.0149   -0.0048 H.spc      1 <1>        0.000
      9 H          -2.8790    0.7370    0.2092 H.spc      1 <1>        0.000
     10 H          -0.6171   -2.1695   -0.2364 H.spc      1 <1>        0.000
     11 H           1.8344   -2.0475   -0.3220 H.spc      1 <1>        0.000
     12 H           2.9834    0.1417   -0.1059 H.spc      1 <1>        0.000
     13 H           1.6508    2.2177    0.1946 H.spc      1 <1>        0.000
     14 H          -0.8057    2.1032    0.2888 H.spc      1 <1>        0.000
@<TRIPOS>BOND
     1    1    2 1  
     2    2    3 ar 
     3    2    7 ar 
     4    3    4 ar 
     5    4    5 ar 
     6    5    6 ar 
     7    6    7 ar 
     8    1    8 1  
     9    1    9 1  
    10    3   10 1  
    11    4   11 1  
    12    5   12 1  
    13    6   13 1  
    14    7   14 1  
# Name:          frag5-502-240/41815 -- energy: -0.171772
# Creation time: Sat Jun  5 12:52:50 2010


@<TRIPOS>MOLECULE
frag5-502-240/41815 -- energy: -0.171772
   14    14     1     1     1
SMALL
USER_CHARGES


@<TRIPOS>ATOM
      1 N1         -2.3302   -0.1136    0.0838 N.pl3      1 <1>        0.000
      2 C18        -0.9215   -0.0435    0.0330 C.ar       1 <1>        0.000
      3 C19        -0.1276   -1.2004   -0.1395 C.ar       1 <1>        0.000
      4 C20         1.2510   -1.1365   -0.1886 C.ar       1 <1>        0.000
      5 C21         1.8953    0.0908   -0.0678 C.ar       1 <1>        0.000
      6 C22         1.1483    1.2549    0.1020 C.ar       1 <1>        0.000
      7 C23        -0.2332    1.1857    0.1528 C.ar       1 <1>        0.000
      8 H          -2.7995   -1.0149   -0.0048 H.spc      1 <1>        0.000
      9 H          -2.8790    0.7370    0.2092 H.spc      1 <1>        0.000
     10 H          -0.6171   -2.1695   -0.2364 H.spc      1 <1>        0.000
     11 H           1.8344   -2.0475   -0.3220 H.spc      1 <1>        0.000
     12 H           2.9834    0.1417   -0.1059 H.spc      1 <1>        0.000
     13 H           1.6508    2.2177    0.1946 H.spc      1 <1>        0.000
     14 H          -0.8057    2.1032    0.2888 H.spc      1 <1>        0.000
@<TRIPOS>BOND
     1    1    2 1  
     2    2    3 ar 
     3    2    7 ar 
     4    3    4 ar 
     5    4    5 ar 
     6    5    6 ar 
     7    6    7 ar 
     8    1    8 1  
     9    1    9 1  
    10    3   10 1  
    11    4   11 1  
    12    5   12 1  
    13    6   13 1  
    14    7   14 1  
