#      Rotatable Fragment
#      Build by yxyuan
#
# Name:          frag5-496-867/138278
# Creation time: Sat Jun  5 12:53:39 2010


@<TRIPOS>MOLECULE
frag5-496-867/138278
   16    16     1     1     1
SMALL
USER_CHARGES


@<TRIPOS>ATOM
      1 N1         -0.6958    1.2691    0.2890 N.am       1 <1>        0.000
      2 C1         -0.7066   -0.1266    0.2112 C.ar       1 <1>        0.000
      3 C3         -1.7831    2.0328    0.5427 C.2        1 <1>        0.000
      4 C4         -1.9081   -0.7959   -0.0778 C.ar       1 <1>        0.000
      5 C5          0.4429   -0.8970    0.4360 C.ar       1 <1>        0.000
      6 O1         -1.7649    3.2455    0.6350 O.2        1 <1>        0.000
      7 C8         -1.9530   -2.1851   -0.1831 C.ar       1 <1>        0.000
      8 C9          0.4121   -2.2863    0.2964 C.ar       1 <1>        0.000
      9 C13        -0.7869   -2.9325   -0.0104 C.ar       1 <1>        0.000
     10 H           0.1946    1.7451    0.1443 H.spc      1 <1>        0.000
     11 H          -2.7400    1.5274    0.6732 H.spc      1 <1>        0.000
     12 H          -2.8212   -0.2184   -0.2222 H.spc      1 <1>        0.000
     13 H           1.3724   -0.4055    0.7234 H.spc      1 <1>        0.000
     14 H          -2.8963   -2.6865   -0.3997 H.spc      1 <1>        0.000
     15 H           1.3253   -2.8668    0.4271 H.spc      1 <1>        0.000
     16 H          -0.8123   -4.0172   -0.1147 H.spc      1 <1>        0.000
@<TRIPOS>BOND
     1    7    9 ar 
     2    8    9 ar 
     3    1    2 1  
     4    2    4 ar 
     5    1    3 am 
     6    2    5 ar 
     7    3    6 2  
     8    4    7 ar 
     9    5    8 ar 
    10    1   10 1  
    11    3   11 1  
    12    4   12 1  
    13    5   13 1  
    14    7   14 1  
    15    8   15 1  
    16    9   16 1  
# Name:          frag5-496-867/138278
# Creation time: Sat Jun  5 12:53:39 2010


@<TRIPOS>MOLECULE
frag5-496-867/138278
   16    16     1     1     1
SMALL
USER_CHARGES


@<TRIPOS>ATOM
      1 N1         -0.3571    1.3813    0.0604 N.am       1 <1>        0.000
      2 C1         -0.5480   -0.0058    0.0877 C.ar       1 <1>        0.000
      3 C3         -1.3422    2.2759    0.3431 C.2        1 <1>        0.000
      4 C4          0.4810   -0.8885    0.3661 C.ar       1 <1>        0.000
      5 C5         -1.8021   -0.5597   -0.1979 C.ar       1 <1>        0.000
      6 O1         -2.3856    2.1046    0.9521 O.2        1 <1>        0.000
      7 C8          0.2676   -2.2733    0.4238 C.ar       1 <1>        0.000
      8 C9         -2.0529   -1.9308   -0.1000 C.ar       1 <1>        0.000
      9 C13        -1.0040   -2.7799    0.2037 C.ar       1 <1>        0.000
     10 H           0.5666    1.7386   -0.1836 H.spc      1 <1>        0.000
     11 H          -1.1761    3.2879   -0.0263 H.spc      1 <1>        0.000
     12 H           1.4826   -0.4974    0.5450 H.spc      1 <1>        0.000
     13 H          -2.6110    0.1020   -0.5075 H.spc      1 <1>        0.000
     14 H           1.0964   -2.9473    0.6404 H.spc      1 <1>        0.000
     15 H          -3.0568   -2.3241   -0.2600 H.spc      1 <1>        0.000
     16 H          -1.1783   -3.8538    0.2704 H.spc      1 <1>        0.000
@<TRIPOS>BOND
     1    7    9 ar 
     2    8    9 ar 
     3    1    2 1  
     4    2    4 ar 
     5    1    3 am 
     6    2    5 ar 
     7    3    6 2  
     8    4    7 ar 
     9    5    8 ar 
    10    1   10 1  
    11    3   11 1  
    12    4   12 1  
    13    5   13 1  
    14    7   14 1  
    15    8   15 1  
    16    9   16 1  
# Name:          frag5-496-867/138278
# Creation time: Sat Jun  5 12:53:39 2010


@<TRIPOS>MOLECULE
frag5-496-867/138278
   16    16     1     1     1
SMALL
USER_CHARGES


@<TRIPOS>ATOM
      1 N1         -0.5430    1.2533    1.0129 N.am       1 <1>        0.000
      2 C1         -0.6237   -0.0710    0.5878 C.ar       1 <1>        0.000
      3 C3         -1.4395    2.2226    0.6722 C.2        1 <1>        0.000
      4 C4         -1.8768   -0.6232    0.2904 C.ar       1 <1>        0.000
      5 C5          0.4778   -0.9119    0.4580 C.ar       1 <1>        0.000
      6 O1         -2.1348    2.3064   -0.3192 O.2        1 <1>        0.000
      7 C8         -2.0378   -1.9343   -0.1411 C.ar       1 <1>        0.000
      8 C9          0.3485   -2.2024   -0.0720 C.ar       1 <1>        0.000
      9 C13        -0.9140   -2.7157   -0.3499 C.ar       1 <1>        0.000
     10 H           0.2361    1.5143    1.6173 H.spc      1 <1>        0.000
     11 H          -1.5467    3.0356    1.3903 H.spc      1 <1>        0.000
     12 H          -2.7626    0.0020    0.4022 H.spc      1 <1>        0.000
     13 H           1.4596   -0.5598    0.7747 H.spc      1 <1>        0.000
     14 H          -3.0342   -2.3416   -0.3127 H.spc      1 <1>        0.000
     15 H           1.2366   -2.8037   -0.2664 H.spc      1 <1>        0.000
     16 H          -1.0185   -3.7314   -0.7314 H.spc      1 <1>        0.000
@<TRIPOS>BOND
     1    7    9 ar 
     2    8    9 ar 
     3    1    2 1  
     4    2    4 ar 
     5    1    3 am 
     6    2    5 ar 
     7    3    6 2  
     8    4    7 ar 
     9    5    8 ar 
    10    1   10 1  
    11    3   11 1  
    12    4   12 1  
    13    5   13 1  
    14    7   14 1  
    15    8   15 1  
    16    9   16 1  
# Name:          frag5-496-867/138278 -- energy: -0.227885
# Creation time: Sat Jun  5 12:53:39 2010


@<TRIPOS>MOLECULE
frag5-496-867/138278 -- energy: -0.227885
   16    16     1     1     1
SMALL
USER_CHARGES


@<TRIPOS>ATOM
      1 N1         -0.6958    1.2691    0.2890 N.am       1 <1>        0.000
      2 C1         -0.7066   -0.1266    0.2112 C.ar       1 <1>        0.000
      3 C3         -1.7831    2.0328    0.5427 C.2        1 <1>        0.000
      4 C4         -1.9081   -0.7959   -0.0778 C.ar       1 <1>        0.000
      5 C5          0.4429   -0.8970    0.4360 C.ar       1 <1>        0.000
      6 O1         -1.7649    3.2455    0.6350 O.2        1 <1>        0.000
      7 C8         -1.9530   -2.1851   -0.1831 C.ar       1 <1>        0.000
      8 C9          0.4121   -2.2863    0.2964 C.ar       1 <1>        0.000
      9 C13        -0.7869   -2.9325   -0.0104 C.ar       1 <1>        0.000
     10 H           0.1946    1.7451    0.1443 H.spc      1 <1>        0.000
     11 H          -2.7400    1.5274    0.6732 H.spc      1 <1>        0.000
     12 H          -2.8212   -0.2184   -0.2222 H.spc      1 <1>        0.000
     13 H           1.3724   -0.4055    0.7234 H.spc      1 <1>        0.000
     14 H          -2.8963   -2.6865   -0.3997 H.spc      1 <1>        0.000
     15 H           1.3253   -2.8668    0.4271 H.spc      1 <1>        0.000
     16 H          -0.8123   -4.0172   -0.1147 H.spc      1 <1>        0.000
@<TRIPOS>BOND
     1    7    9 ar 
     2    8    9 ar 
     3    1    2 1  
     4    2    4 ar 
     5    1    3 am 
     6    2    5 ar 
     7    3    6 2  
     8    4    7 ar 
     9    5    8 ar 
    10    1   10 1  
    11    3   11 1  
    12    4   12 1  
    13    5   13 1  
    14    7   14 1  
    15    8   15 1  
    16    9   16 1  
# Name:          frag5-496-867/138278 -- energy: -0.501069
# Creation time: Sat Jun  5 12:53:39 2010


@<TRIPOS>MOLECULE
frag5-496-867/138278 -- energy: -0.501069
   16    16     1     1     1
SMALL
USER_CHARGES


@<TRIPOS>ATOM
      1 N1         -0.3571    1.3813    0.0604 N.am       1 <1>        0.000
      2 C1         -0.5480   -0.0058    0.0877 C.ar       1 <1>        0.000
      3 C3         -1.3422    2.2759    0.3431 C.2        1 <1>        0.000
      4 C4          0.4810   -0.8885    0.3661 C.ar       1 <1>        0.000
      5 C5         -1.8021   -0.5597   -0.1979 C.ar       1 <1>        0.000
      6 O1         -2.3856    2.1046    0.9521 O.2        1 <1>        0.000
      7 C8          0.2676   -2.2733    0.4238 C.ar       1 <1>        0.000
      8 C9         -2.0529   -1.9308   -0.1000 C.ar       1 <1>        0.000
      9 C13        -1.0040   -2.7799    0.2037 C.ar       1 <1>        0.000
     10 H           0.5666    1.7386   -0.1836 H.spc      1 <1>        0.000
     11 H          -1.1761    3.2879   -0.0263 H.spc      1 <1>        0.000
     12 H           1.4826   -0.4974    0.5450 H.spc      1 <1>        0.000
     13 H          -2.6110    0.1020   -0.5075 H.spc      1 <1>        0.000
     14 H           1.0964   -2.9473    0.6404 H.spc      1 <1>        0.000
     15 H          -3.0568   -2.3241   -0.2600 H.spc      1 <1>        0.000
     16 H          -1.1783   -3.8538    0.2704 H.spc      1 <1>        0.000
@<TRIPOS>BOND
     1    7    9 ar 
     2    8    9 ar 
     3    1    2 1  
     4    2    4 ar 
     5    1    3 am 
     6    2    5 ar 
     7    3    6 2  
     8    4    7 ar 
     9    5    8 ar 
    10    1   10 1  
    11    3   11 1  
    12    4   12 1  
    13    5   13 1  
    14    7   14 1  
    15    8   15 1  
    16    9   16 1  
# Name:          frag5-496-867/138278 -- energy: -0.488426
# Creation time: Sat Jun  5 12:53:39 2010


@<TRIPOS>MOLECULE
frag5-496-867/138278 -- energy: -0.488426
   16    16     1     1     1
SMALL
USER_CHARGES


@<TRIPOS>ATOM
      1 N1         -0.5430    1.2533    1.0129 N.am       1 <1>        0.000
      2 C1         -0.6237   -0.0710    0.5878 C.ar       1 <1>        0.000
      3 C3         -1.4395    2.2226    0.6722 C.2        1 <1>        0.000
      4 C4         -1.8768   -0.6232    0.2904 C.ar       1 <1>        0.000
      5 C5          0.4778   -0.9119    0.4580 C.ar       1 <1>        0.000
      6 O1         -2.1348    2.3064   -0.3192 O.2        1 <1>        0.000
      7 C8         -2.0378   -1.9343   -0.1411 C.ar       1 <1>        0.000
      8 C9          0.3485   -2.2024   -0.0720 C.ar       1 <1>        0.000
      9 C13        -0.9140   -2.7157   -0.3499 C.ar       1 <1>        0.000
     10 H           0.2361    1.5143    1.6173 H.spc      1 <1>        0.000
     11 H          -1.5467    3.0356    1.3903 H.spc      1 <1>        0.000
     12 H          -2.7626    0.0020    0.4022 H.spc      1 <1>        0.000
     13 H           1.4596   -0.5598    0.7747 H.spc      1 <1>        0.000
     14 H          -3.0342   -2.3416   -0.3127 H.spc      1 <1>        0.000
     15 H           1.2366   -2.8037   -0.2664 H.spc      1 <1>        0.000
     16 H          -1.0185   -3.7314   -0.7314 H.spc      1 <1>        0.000
@<TRIPOS>BOND
     1    7    9 ar 
     2    8    9 ar 
     3    1    2 1  
     4    2    4 ar 
     5    1    3 am 
     6    2    5 ar 
     7    3    6 2  
     8    4    7 ar 
     9    5    8 ar 
    10    1   10 1  
    11    3   11 1  
    12    4   12 1  
    13    5   13 1  
    14    7   14 1  
    15    8   15 1  
    16    9   16 1  
