#      Rotatable Fragment
#      Build by yxyuan
#
# Name:          frag2-040-294/319335
# Creation time: Sat Jun  5 12:53:34 2010


@<TRIPOS>MOLECULE
frag2-040-294/319335
   10    10     1     1     1
SMALL
USER_CHARGES


@<TRIPOS>ATOM
      1 C20         1.1849    0.6516   -0.0333 C.ar       1 <1>        0.000
      2 N4          0.0381    1.3750   -0.0260 N.ar       1 <1>        0.000
      3 C21         1.1497   -0.7147   -0.0069 C.ar       1 <1>        0.000
      4 C22        -1.1487    0.7130    0.0087 C.ar       1 <1>        0.000
      5 N5         -0.0367   -1.3762    0.0196 N.ar       1 <1>        0.000
      6 C23        -1.1861   -0.6494    0.0291 C.ar       1 <1>        0.000
      7 H           2.1458    1.1654   -0.0605 H.spc      1 <1>        0.000
      8 H           2.0824   -1.2788   -0.0071 H.spc      1 <1>        0.000
      9 H          -2.0808    1.2780    0.0203 H.spc      1 <1>        0.000
     10 H          -2.1478   -1.1619    0.0533 H.spc      1 <1>        0.000
@<TRIPOS>BOND
     1    1    2 ar 
     2    1    3 ar 
     3    2    4 ar 
     4    3    5 ar 
     5    4    6 ar 
     6    5    6 ar 
     7    1    7 1  
     8    3    8 1  
     9    4    9 1  
    10    6   10 1  
# Name:          frag2-040-294/319335 -- energy: 0.518446
# Creation time: Sat Jun  5 12:53:34 2010


@<TRIPOS>MOLECULE
frag2-040-294/319335 -- energy: 0.518446
   10    10     1     1     1
SMALL
USER_CHARGES


@<TRIPOS>ATOM
      1 C20         1.1849    0.6516   -0.0333 C.ar       1 <1>        0.000
      2 N4          0.0381    1.3750   -0.0260 N.ar       1 <1>        0.000
      3 C21         1.1497   -0.7147   -0.0069 C.ar       1 <1>        0.000
      4 C22        -1.1487    0.7130    0.0087 C.ar       1 <1>        0.000
      5 N5         -0.0367   -1.3762    0.0196 N.ar       1 <1>        0.000
      6 C23        -1.1861   -0.6494    0.0291 C.ar       1 <1>        0.000
      7 H           2.1458    1.1654   -0.0605 H.spc      1 <1>        0.000
      8 H           2.0824   -1.2788   -0.0071 H.spc      1 <1>        0.000
      9 H          -2.0808    1.2780    0.0203 H.spc      1 <1>        0.000
     10 H          -2.1478   -1.1619    0.0533 H.spc      1 <1>        0.000
@<TRIPOS>BOND
     1    1    2 ar 
     2    1    3 ar 
     3    2    4 ar 
     4    3    5 ar 
     5    4    6 ar 
     6    5    6 ar 
     7    1    7 1  
     8    3    8 1  
     9    4    9 1  
    10    6   10 1  
