#      Rotatable Fragment
#      Build by yxyuan
#
# Name:          frag3-124-54/96164
# Creation time: Sat Jun  5 12:52:54 2010


@<TRIPOS>MOLECULE
frag3-124-54/96164
    8     7     1     1     1
SMALL
USER_CHARGES


@<TRIPOS>ATOM
      1 C17         2.5175   -2.1633   -0.2653 C.2        1 <1>        0.000
      2 N3          3.7791   -1.7991    0.0848 N.am       1 <1>        0.000
      3 O3          2.1755   -3.2450   -0.7282 O.2        1 <1>        0.000
      4 N4          4.1690   -0.5691    0.3988 N.3        1 <1>        0.000
      5 H           1.7331   -1.4205   -0.1201 H.spc      1 <1>        0.000
      6 H           4.4869   -2.5331    0.1084 H.spc      1 <1>        0.000
      7 H           5.1645   -0.5756    0.6209 H.spc      1 <1>        0.000
      8 H           4.0000    0.0522   -0.3923 H.spc      1 <1>        0.000
@<TRIPOS>BOND
     1    1    2 am 
     2    1    3 2  
     3    2    4 1  
     4    1    5 1  
     5    2    6 1  
     6    4    7 1  
     7    4    8 1  
# Name:          frag3-124-54/96164 -- energy: -0.228650
# Creation time: Sat Jun  5 12:52:54 2010


@<TRIPOS>MOLECULE
frag3-124-54/96164 -- energy: -0.228650
    8     7     1     1     1
SMALL
USER_CHARGES


@<TRIPOS>ATOM
      1 C17         2.5175   -2.1633   -0.2653 C.2        1 <1>        0.000
      2 N3          3.7791   -1.7991    0.0848 N.am       1 <1>        0.000
      3 O3          2.1755   -3.2450   -0.7282 O.2        1 <1>        0.000
      4 N4          4.1690   -0.5691    0.3988 N.3        1 <1>        0.000
      5 H           1.7331   -1.4205   -0.1201 H.spc      1 <1>        0.000
      6 H           4.4869   -2.5331    0.1084 H.spc      1 <1>        0.000
      7 H           5.1645   -0.5756    0.6209 H.spc      1 <1>        0.000
      8 H           4.0000    0.0522   -0.3923 H.spc      1 <1>        0.000
@<TRIPOS>BOND
     1    1    2 am 
     2    1    3 2  
     3    2    4 1  
     4    1    5 1  
     5    2    6 1  
     6    4    7 1  
     7    4    8 1  
