#      Rotatable Fragment
#      Build by yxyuan
#
# Name:          frag4-308-409/48856
# Creation time: Sat Jun  5 12:52:47 2010


@<TRIPOS>MOLECULE
frag4-308-409/48856
   11    11     1     1     1
SMALL
USER_CHARGES


@<TRIPOS>ATOM
      1 O1          4.9570    1.6673    1.6544 O.3        1 <1>        0.000
      2 C1          5.2875    0.3944    1.0623 C.3        1 <1>        0.000
      3 C2          4.0884    0.0437    0.2167 C.2        1 <1>        0.000
      4 C3          3.1532    0.9892    0.2933 C.2        1 <1>        0.000
      5 C4          3.7456    1.9705    1.1973 C.3        1 <1>        0.000
      6 H           5.4895   -0.3655    1.8172 H.spc      1 <1>        0.000
      7 H           6.2017    0.4457    0.4709 H.spc      1 <1>        0.000
      8 H           3.9990   -0.8647   -0.3791 H.spc      1 <1>        0.000
      9 H           2.1815    1.0222   -0.1994 H.spc      1 <1>        0.000
     10 H           3.8501    2.8943    0.6283 H.spc      1 <1>        0.000
     11 H           3.0905    2.0279    2.0666 H.spc      1 <1>        0.000
@<TRIPOS>BOND
     1    1    2 1  
     2    1    5 1  
     3    2    3 1  
     4    3    4 2  
     5    4    5 1  
     6    2    6 1  
     7    2    7 1  
     8    3    8 1  
     9    4    9 1  
    10    5   10 1  
    11    5   11 1  
# Name:          frag4-308-409/48856 -- energy: -0.464273
# Creation time: Sat Jun  5 12:52:47 2010


@<TRIPOS>MOLECULE
frag4-308-409/48856 -- energy: -0.464273
   11    11     1     1     1
SMALL
USER_CHARGES


@<TRIPOS>ATOM
      1 O1          4.9570    1.6673    1.6544 O.3        1 <1>        0.000
      2 C1          5.2875    0.3944    1.0623 C.3        1 <1>        0.000
      3 C2          4.0884    0.0437    0.2167 C.2        1 <1>        0.000
      4 C3          3.1532    0.9892    0.2933 C.2        1 <1>        0.000
      5 C4          3.7456    1.9705    1.1973 C.3        1 <1>        0.000
      6 H           5.4895   -0.3655    1.8172 H.spc      1 <1>        0.000
      7 H           6.2017    0.4457    0.4709 H.spc      1 <1>        0.000
      8 H           3.9990   -0.8647   -0.3791 H.spc      1 <1>        0.000
      9 H           2.1815    1.0222   -0.1994 H.spc      1 <1>        0.000
     10 H           3.8501    2.8943    0.6283 H.spc      1 <1>        0.000
     11 H           3.0905    2.0279    2.0666 H.spc      1 <1>        0.000
@<TRIPOS>BOND
     1    1    2 1  
     2    1    5 1  
     3    2    3 1  
     4    3    4 2  
     5    4    5 1  
     6    2    6 1  
     7    2    7 1  
     8    3    8 1  
     9    4    9 1  
    10    5   10 1  
    11    5   11 1  
