#      Rotatable Fragment
#      Build by yxyuan
#
# Name:          frag3-143-30/96164
# Creation time: Sat Jun  5 12:53:05 2010


@<TRIPOS>MOLECULE
frag3-143-30/96164
   14    13     1     1     1
SMALL
USER_CHARGES


@<TRIPOS>ATOM
      1 N3          0.0339    0.6928    0.0534 N.am       1 <1>        0.000
      2 C10        -1.0820   -0.0529   -0.0493 C.2        1 <1>        0.000
      3 C11        -1.0085   -1.4555   -0.5051 C.2        1 <1>        0.000
      4 O3         -2.1784    0.4119    0.2319 O.2        1 <1>        0.000
      5 C12         0.1385   -2.0943   -0.7838 C.2        1 <1>        0.000
      6 C13         0.2384   -3.4828   -1.2401 C.2        1 <1>        0.000
      7 C14         1.3530   -4.0145   -1.7494 C.2        1 <1>        0.000
      8 H          -0.0268    1.6607    0.3696 H.spc      1 <1>        0.000
      9 H           0.9402    0.2900   -0.1850 H.spc      1 <1>        0.000
     10 H          -1.9423   -2.0054   -0.6223 H.spc      1 <1>        0.000
     11 H           1.0672   -1.5371   -0.6612 H.spc      1 <1>        0.000
     12 H          -0.6448   -4.1165   -1.1597 H.spc      1 <1>        0.000
     13 H           2.2531   -3.4070   -1.8431 H.spc      1 <1>        0.000
     14 H           1.3623   -5.0559   -2.0712 H.spc      1 <1>        0.000
@<TRIPOS>BOND
     1    1    2 am 
     2    2    3 1  
     3    2    4 2  
     4    3    5 2  
     5    5    6 1  
     6    6    7 2  
     7    1    8 1  
     8    1    9 1  
     9    3   10 1  
    10    5   11 1  
    11    6   12 1  
    12    7   13 1  
    13    7   14 1  
# Name:          frag3-143-30/96164
# Creation time: Sat Jun  5 12:53:05 2010


@<TRIPOS>MOLECULE
frag3-143-30/96164
   14    13     1     1     1
SMALL
USER_CHARGES


@<TRIPOS>ATOM
      1 N3         -0.4987    1.2341    0.2108 N.am       1 <1>        0.000
      2 C10        -0.9608    0.0008   -0.0692 C.2        1 <1>        0.000
      3 C11        -0.1593   -0.9155   -0.9000 C.2        1 <1>        0.000
      4 O3         -2.0428   -0.3780    0.3529 O.2        1 <1>        0.000
      5 C12        -0.1011   -2.2461   -0.7119 C.2        1 <1>        0.000
      6 C13         0.6750   -3.1817   -1.5126 C.2        1 <1>        0.000
      7 C14         0.5825   -4.5089   -1.4126 C.2        1 <1>        0.000
      8 H          -1.0544    1.8690    0.7839 H.spc      1 <1>        0.000
      9 H           0.4071    1.5335   -0.1502 H.spc      1 <1>        0.000
     10 H           0.4221   -0.4886   -1.7172 H.spc      1 <1>        0.000
     11 H          -0.6851   -2.6591    0.1106 H.spc      1 <1>        0.000
     12 H           1.3760   -2.7721   -2.2398 H.spc      1 <1>        0.000
     13 H          -0.1078   -4.9547   -0.6964 H.spc      1 <1>        0.000
     14 H           1.1972   -5.1474   -2.0471 H.spc      1 <1>        0.000
@<TRIPOS>BOND
     1    1    2 am 
     2    2    3 1  
     3    2    4 2  
     4    3    5 2  
     5    5    6 1  
     6    6    7 2  
     7    1    8 1  
     8    1    9 1  
     9    3   10 1  
    10    5   11 1  
    11    6   12 1  
    12    7   13 1  
    13    7   14 1  
# Name:          frag3-143-30/96164
# Creation time: Sat Jun  5 12:53:05 2010


@<TRIPOS>MOLECULE
frag3-143-30/96164
   14    13     1     1     1
SMALL
USER_CHARGES


@<TRIPOS>ATOM
      1 N3         -0.2630    1.0974    0.2835 N.am       1 <1>        0.000
      2 C10        -0.8709   -0.0275   -0.1384 C.2        1 <1>        0.000
      3 C11        -0.0693   -1.1716   -0.6037 C.2        1 <1>        0.000
      4 O3         -2.0898   -0.1182   -0.1459 O.2        1 <1>        0.000
      5 C12        -0.4304   -2.4607   -0.4380 C.2        1 <1>        0.000
      6 C13         0.3388   -3.6119   -0.8894 C.2        1 <1>        0.000
      7 C14         0.8795   -3.7027   -2.1106 C.2        1 <1>        0.000
      8 H          -0.8207    1.8894    0.6029 H.spc      1 <1>        0.000
      9 H           0.7552    1.1575    0.2837 H.spc      1 <1>        0.000
     10 H           0.8722   -0.9645   -1.1125 H.spc      1 <1>        0.000
     11 H          -1.3725   -2.6561    0.0743 H.spc      1 <1>        0.000
     12 H           0.4816   -4.4420   -0.1976 H.spc      1 <1>        0.000
     13 H           0.7537   -2.8885   -2.8243 H.spc      1 <1>        0.000
     14 H           1.4456   -4.5909   -2.3913 H.spc      1 <1>        0.000
@<TRIPOS>BOND
     1    1    2 am 
     2    2    3 1  
     3    2    4 2  
     4    3    5 2  
     5    5    6 1  
     6    6    7 2  
     7    1    8 1  
     8    1    9 1  
     9    3   10 1  
    10    5   11 1  
    11    6   12 1  
    12    7   13 1  
    13    7   14 1  
# Name:          frag3-143-30/96164
# Creation time: Sat Jun  5 12:53:05 2010


@<TRIPOS>MOLECULE
frag3-143-30/96164
   14    13     1     1     1
SMALL
USER_CHARGES


@<TRIPOS>ATOM
      1 N3         -0.0870    0.7783    0.0463 N.am       1 <1>        0.000
      2 C10        -1.0652   -0.1437   -0.0043 C.2        1 <1>        0.000
      3 C11        -0.8060   -1.4811   -0.5708 C.2        1 <1>        0.000
      4 O3         -2.1872    0.1035    0.4179 O.2        1 <1>        0.000
      5 C12         0.3416   -1.8328   -1.1762 C.2        1 <1>        0.000
      6 C13         0.6209   -3.1505   -1.7438 C.2        1 <1>        0.000
      7 C14         0.6778   -4.2690   -1.0116 C.2        1 <1>        0.000
      8 H          -0.2748    1.6999    0.4410 H.spc      1 <1>        0.000
      9 H           0.8425    0.5558   -0.3100 H.spc      1 <1>        0.000
     10 H          -1.5938   -2.2304   -0.4937 H.spc      1 <1>        0.000
     11 H           1.1239   -1.0773   -1.2494 H.spc      1 <1>        0.000
     12 H           0.7914   -3.2258   -2.8177 H.spc      1 <1>        0.000
     13 H           0.5115   -4.2248    0.0647 H.spc      1 <1>        0.000
     14 H           0.8904   -5.2243   -1.4915 H.spc      1 <1>        0.000
@<TRIPOS>BOND
     1    1    2 am 
     2    2    3 1  
     3    2    4 2  
     4    3    5 2  
     5    5    6 1  
     6    6    7 2  
     7    1    8 1  
     8    1    9 1  
     9    3   10 1  
    10    5   11 1  
    11    6   12 1  
    12    7   13 1  
    13    7   14 1  
# Name:          frag3-143-30/96164
# Creation time: Sat Jun  5 12:53:05 2010


@<TRIPOS>MOLECULE
frag3-143-30/96164
   14    13     1     1     1
SMALL
USER_CHARGES


@<TRIPOS>ATOM
      1 N3         -0.2522    1.1023    0.1329 N.am       1 <1>        0.000
      2 C10        -0.8620   -0.0916    0.0188 C.2        1 <1>        0.000
      3 C11        -0.0916   -1.2727   -0.3960 C.2        1 <1>        0.000
      4 O3         -2.0535   -0.2158    0.2609 O.2        1 <1>        0.000
      5 C12        -0.4903   -2.1432   -1.3458 C.2        1 <1>        0.000
      6 C13         0.2422   -3.3216   -1.7691 C.2        1 <1>        0.000
      7 C14         1.0023   -4.0527   -0.9442 C.2        1 <1>        0.000
      8 H          -0.7852    1.9213    0.4253 H.spc      1 <1>        0.000
      9 H           0.7431    1.1884   -0.0731 H.spc      1 <1>        0.000
     10 H           0.8636   -1.4569    0.0958 H.spc      1 <1>        0.000
     11 H          -1.4430   -1.9446   -1.8367 H.spc      1 <1>        0.000
     12 H           0.1701   -3.6277   -2.8127 H.spc      1 <1>        0.000
     13 H           1.0941   -3.7716    0.1049 H.spc      1 <1>        0.000
     14 H           1.5293   -4.9289   -1.3218 H.spc      1 <1>        0.000
@<TRIPOS>BOND
     1    1    2 am 
     2    2    3 1  
     3    2    4 2  
     4    3    5 2  
     5    5    6 1  
     6    6    7 2  
     7    1    8 1  
     8    1    9 1  
     9    3   10 1  
    10    5   11 1  
    11    6   12 1  
    12    7   13 1  
    13    7   14 1  
# Name:          frag3-143-30/96164 -- energy: -0.453794
# Creation time: Sat Jun  5 12:53:05 2010


@<TRIPOS>MOLECULE
frag3-143-30/96164 -- energy: -0.453794
   14    13     1     1     1
SMALL
USER_CHARGES


@<TRIPOS>ATOM
      1 N3          0.0339    0.6928    0.0534 N.am       1 <1>        0.000
      2 C10        -1.0820   -0.0529   -0.0493 C.2        1 <1>        0.000
      3 C11        -1.0085   -1.4555   -0.5051 C.2        1 <1>        0.000
      4 O3         -2.1784    0.4119    0.2319 O.2        1 <1>        0.000
      5 C12         0.1385   -2.0943   -0.7838 C.2        1 <1>        0.000
      6 C13         0.2384   -3.4828   -1.2401 C.2        1 <1>        0.000
      7 C14         1.3530   -4.0145   -1.7494 C.2        1 <1>        0.000
      8 H          -0.0268    1.6607    0.3696 H.spc      1 <1>        0.000
      9 H           0.9402    0.2900   -0.1850 H.spc      1 <1>        0.000
     10 H          -1.9423   -2.0054   -0.6223 H.spc      1 <1>        0.000
     11 H           1.0672   -1.5371   -0.6612 H.spc      1 <1>        0.000
     12 H          -0.6448   -4.1165   -1.1597 H.spc      1 <1>        0.000
     13 H           2.2531   -3.4070   -1.8431 H.spc      1 <1>        0.000
     14 H           1.3623   -5.0559   -2.0712 H.spc      1 <1>        0.000
@<TRIPOS>BOND
     1    1    2 am 
     2    2    3 1  
     3    2    4 2  
     4    3    5 2  
     5    5    6 1  
     6    6    7 2  
     7    1    8 1  
     8    1    9 1  
     9    3   10 1  
    10    5   11 1  
    11    6   12 1  
    12    7   13 1  
    13    7   14 1  
# Name:          frag3-143-30/96164 -- energy: -0.877459
# Creation time: Sat Jun  5 12:53:05 2010


@<TRIPOS>MOLECULE
frag3-143-30/96164 -- energy: -0.877459
   14    13     1     1     1
SMALL
USER_CHARGES


@<TRIPOS>ATOM
      1 N3         -0.4987    1.2341    0.2108 N.am       1 <1>        0.000
      2 C10        -0.9608    0.0008   -0.0692 C.2        1 <1>        0.000
      3 C11        -0.1593   -0.9155   -0.9000 C.2        1 <1>        0.000
      4 O3         -2.0428   -0.3780    0.3529 O.2        1 <1>        0.000
      5 C12        -0.1011   -2.2461   -0.7119 C.2        1 <1>        0.000
      6 C13         0.6750   -3.1817   -1.5126 C.2        1 <1>        0.000
      7 C14         0.5825   -4.5089   -1.4126 C.2        1 <1>        0.000
      8 H          -1.0544    1.8690    0.7839 H.spc      1 <1>        0.000
      9 H           0.4071    1.5335   -0.1502 H.spc      1 <1>        0.000
     10 H           0.4221   -0.4886   -1.7172 H.spc      1 <1>        0.000
     11 H          -0.6851   -2.6591    0.1106 H.spc      1 <1>        0.000
     12 H           1.3760   -2.7721   -2.2398 H.spc      1 <1>        0.000
     13 H          -0.1078   -4.9547   -0.6964 H.spc      1 <1>        0.000
     14 H           1.1972   -5.1474   -2.0471 H.spc      1 <1>        0.000
@<TRIPOS>BOND
     1    1    2 am 
     2    2    3 1  
     3    2    4 2  
     4    3    5 2  
     5    5    6 1  
     6    6    7 2  
     7    1    8 1  
     8    1    9 1  
     9    3   10 1  
    10    5   11 1  
    11    6   12 1  
    12    7   13 1  
    13    7   14 1  
# Name:          frag3-143-30/96164 -- energy: -0.954384
# Creation time: Sat Jun  5 12:53:05 2010


@<TRIPOS>MOLECULE
frag3-143-30/96164 -- energy: -0.954384
   14    13     1     1     1
SMALL
USER_CHARGES


@<TRIPOS>ATOM
      1 N3         -0.2630    1.0974    0.2835 N.am       1 <1>        0.000
      2 C10        -0.8709   -0.0275   -0.1384 C.2        1 <1>        0.000
      3 C11        -0.0693   -1.1716   -0.6037 C.2        1 <1>        0.000
      4 O3         -2.0898   -0.1182   -0.1459 O.2        1 <1>        0.000
      5 C12        -0.4304   -2.4607   -0.4380 C.2        1 <1>        0.000
      6 C13         0.3388   -3.6119   -0.8894 C.2        1 <1>        0.000
      7 C14         0.8795   -3.7027   -2.1106 C.2        1 <1>        0.000
      8 H          -0.8207    1.8894    0.6029 H.spc      1 <1>        0.000
      9 H           0.7552    1.1575    0.2837 H.spc      1 <1>        0.000
     10 H           0.8722   -0.9645   -1.1125 H.spc      1 <1>        0.000
     11 H          -1.3725   -2.6561    0.0743 H.spc      1 <1>        0.000
     12 H           0.4816   -4.4420   -0.1976 H.spc      1 <1>        0.000
     13 H           0.7537   -2.8885   -2.8243 H.spc      1 <1>        0.000
     14 H           1.4456   -4.5909   -2.3913 H.spc      1 <1>        0.000
@<TRIPOS>BOND
     1    1    2 am 
     2    2    3 1  
     3    2    4 2  
     4    3    5 2  
     5    5    6 1  
     6    6    7 2  
     7    1    8 1  
     8    1    9 1  
     9    3   10 1  
    10    5   11 1  
    11    6   12 1  
    12    7   13 1  
    13    7   14 1  
# Name:          frag3-143-30/96164 -- energy: -0.562771
# Creation time: Sat Jun  5 12:53:05 2010


@<TRIPOS>MOLECULE
frag3-143-30/96164 -- energy: -0.562771
   14    13     1     1     1
SMALL
USER_CHARGES


@<TRIPOS>ATOM
      1 N3         -0.0870    0.7783    0.0463 N.am       1 <1>        0.000
      2 C10        -1.0652   -0.1437   -0.0043 C.2        1 <1>        0.000
      3 C11        -0.8060   -1.4811   -0.5708 C.2        1 <1>        0.000
      4 O3         -2.1872    0.1035    0.4179 O.2        1 <1>        0.000
      5 C12         0.3416   -1.8328   -1.1762 C.2        1 <1>        0.000
      6 C13         0.6209   -3.1505   -1.7438 C.2        1 <1>        0.000
      7 C14         0.6778   -4.2690   -1.0116 C.2        1 <1>        0.000
      8 H          -0.2748    1.6999    0.4410 H.spc      1 <1>        0.000
      9 H           0.8425    0.5558   -0.3100 H.spc      1 <1>        0.000
     10 H          -1.5938   -2.2304   -0.4937 H.spc      1 <1>        0.000
     11 H           1.1239   -1.0773   -1.2494 H.spc      1 <1>        0.000
     12 H           0.7914   -3.2258   -2.8177 H.spc      1 <1>        0.000
     13 H           0.5115   -4.2248    0.0647 H.spc      1 <1>        0.000
     14 H           0.8904   -5.2243   -1.4915 H.spc      1 <1>        0.000
@<TRIPOS>BOND
     1    1    2 am 
     2    2    3 1  
     3    2    4 2  
     4    3    5 2  
     5    5    6 1  
     6    6    7 2  
     7    1    8 1  
     8    1    9 1  
     9    3   10 1  
    10    5   11 1  
    11    6   12 1  
    12    7   13 1  
    13    7   14 1  
# Name:          frag3-143-30/96164 -- energy: -0.963755
# Creation time: Sat Jun  5 12:53:05 2010


@<TRIPOS>MOLECULE
frag3-143-30/96164 -- energy: -0.963755
   14    13     1     1     1
SMALL
USER_CHARGES


@<TRIPOS>ATOM
      1 N3         -0.2522    1.1023    0.1329 N.am       1 <1>        0.000
      2 C10        -0.8620   -0.0916    0.0188 C.2        1 <1>        0.000
      3 C11        -0.0916   -1.2727   -0.3960 C.2        1 <1>        0.000
      4 O3         -2.0535   -0.2158    0.2609 O.2        1 <1>        0.000
      5 C12        -0.4903   -2.1432   -1.3458 C.2        1 <1>        0.000
      6 C13         0.2422   -3.3216   -1.7691 C.2        1 <1>        0.000
      7 C14         1.0023   -4.0527   -0.9442 C.2        1 <1>        0.000
      8 H          -0.7852    1.9213    0.4253 H.spc      1 <1>        0.000
      9 H           0.7431    1.1884   -0.0731 H.spc      1 <1>        0.000
     10 H           0.8636   -1.4569    0.0958 H.spc      1 <1>        0.000
     11 H          -1.4430   -1.9446   -1.8367 H.spc      1 <1>        0.000
     12 H           0.1701   -3.6277   -2.8127 H.spc      1 <1>        0.000
     13 H           1.0941   -3.7716    0.1049 H.spc      1 <1>        0.000
     14 H           1.5293   -4.9289   -1.3218 H.spc      1 <1>        0.000
@<TRIPOS>BOND
     1    1    2 am 
     2    2    3 1  
     3    2    4 2  
     4    3    5 2  
     5    5    6 1  
     6    6    7 2  
     7    1    8 1  
     8    1    9 1  
     9    3   10 1  
    10    5   11 1  
    11    6   12 1  
    12    7   13 1  
    13    7   14 1  
