#      Rotatable Fragment
#      Build by yxyuan
#
# Name:          frag2-059-25/319335
# Creation time: Sat Jun  5 12:53:46 2010


@<TRIPOS>MOLECULE
frag2-059-25/319335
   16    17     1     1     1
SMALL
USER_CHARGES


@<TRIPOS>ATOM
      1 C26         2.0867   -1.1420   -0.0620 C.ar       1 <1>        0.000
      2 N2          0.8122   -1.5847   -0.0750 N.ar       1 <1>        0.000
      3 C27         2.3499    0.2193   -0.0031 C.ar       1 <1>        0.000
      4 C28        -0.2463   -0.7382   -0.0314 C.ar       1 <1>        0.000
      5 C29         1.2922    1.1185    0.0411 C.ar       1 <1>        0.000
      6 C30        -0.0248    0.6491    0.0281 C.ar       1 <1>        0.000
      7 C31        -1.5519   -1.2113   -0.0444 C.ar       1 <1>        0.000
      8 C32        -1.1328    1.5013    0.0723 C.ar       1 <1>        0.000
      9 C33        -2.6142   -0.3283    0.0009 C.ar       1 <1>        0.000
     10 N3         -2.3865    1.0013    0.0579 N.ar       1 <1>        0.000
     11 H           2.9107   -1.8546   -0.0978 H.spc      1 <1>        0.000
     12 H           3.3784    0.5800    0.0084 H.spc      1 <1>        0.000
     13 H           1.4888    2.1897    0.0859 H.spc      1 <1>        0.000
     14 H          -1.7397   -2.2840   -0.0905 H.spc      1 <1>        0.000
     15 H          -0.9825    2.5799    0.1188 H.spc      1 <1>        0.000
     16 H          -3.6367   -0.7057   -0.0094 H.spc      1 <1>        0.000
@<TRIPOS>BOND
     1    9   10 ar 
     2    8   10 ar 
     3    7    9 ar 
     4    1    2 ar 
     5    2    4 ar 
     6    1    3 ar 
     7    3    5 ar 
     8    4    6 ar 
     9    4    7 ar 
    10    5    6 ar 
    11    6    8 ar 
    12    1   11 1  
    13    3   12 1  
    14    5   13 1  
    15    7   14 1  
    16    8   15 1  
    17    9   16 1  
# Name:          frag2-059-25/319335 -- energy: 0.064179
# Creation time: Sat Jun  5 12:53:46 2010


@<TRIPOS>MOLECULE
frag2-059-25/319335 -- energy: 0.064179
   16    17     1     1     1
SMALL
USER_CHARGES


@<TRIPOS>ATOM
      1 C26         2.0867   -1.1420   -0.0620 C.ar       1 <1>        0.000
      2 N2          0.8122   -1.5847   -0.0750 N.ar       1 <1>        0.000
      3 C27         2.3499    0.2193   -0.0031 C.ar       1 <1>        0.000
      4 C28        -0.2463   -0.7382   -0.0314 C.ar       1 <1>        0.000
      5 C29         1.2922    1.1185    0.0411 C.ar       1 <1>        0.000
      6 C30        -0.0248    0.6491    0.0281 C.ar       1 <1>        0.000
      7 C31        -1.5519   -1.2113   -0.0444 C.ar       1 <1>        0.000
      8 C32        -1.1328    1.5013    0.0723 C.ar       1 <1>        0.000
      9 C33        -2.6142   -0.3283    0.0009 C.ar       1 <1>        0.000
     10 N3         -2.3865    1.0013    0.0579 N.ar       1 <1>        0.000
     11 H           2.9107   -1.8546   -0.0978 H.spc      1 <1>        0.000
     12 H           3.3784    0.5800    0.0084 H.spc      1 <1>        0.000
     13 H           1.4888    2.1897    0.0859 H.spc      1 <1>        0.000
     14 H          -1.7397   -2.2840   -0.0905 H.spc      1 <1>        0.000
     15 H          -0.9825    2.5799    0.1188 H.spc      1 <1>        0.000
     16 H          -3.6367   -0.7057   -0.0094 H.spc      1 <1>        0.000
@<TRIPOS>BOND
     1    9   10 ar 
     2    8   10 ar 
     3    7    9 ar 
     4    1    2 ar 
     5    2    4 ar 
     6    1    3 ar 
     7    3    5 ar 
     8    4    6 ar 
     9    4    7 ar 
    10    5    6 ar 
    11    6    8 ar 
    12    1   11 1  
    13    3   12 1  
    14    5   13 1  
    15    7   14 1  
    16    8   15 1  
    17    9   16 1  
