#      Rotatable Fragment
#      Build by yxyuan
#
# Name:          frag4-412-172/150395
# Creation time: Sat Jun  5 12:53:34 2010


@<TRIPOS>MOLECULE
frag4-412-172/150395
   18    19     1     1     1
SMALL
USER_CHARGES


@<TRIPOS>ATOM
      1 C1         -3.3856   -0.5814    0.0894 C.ar       1 <1>        0.000
      2 C2         -3.3988    0.8050   -0.1293 C.ar       1 <1>        0.000
      3 C3         -1.9409   -1.0461    0.1523 C.3        1 <1>        0.000
      4 C4         -4.5751   -1.2889    0.2089 C.ar       1 <1>        0.000
      5 N1         -2.1474    1.2969   -0.1856 N.pl3      1 <1>        0.000
      6 C5         -4.6004    1.4936   -0.2562 C.ar       1 <1>        0.000
      7 C6         -1.1386    0.2858    0.0592 C.3        1 <1>        0.000
      8 C7         -5.7813   -0.5972    0.0950 C.ar       1 <1>        0.000
      9 C8         -5.7931    0.7872   -0.1374 C.ar       1 <1>        0.000
     10 H          -1.6882   -1.7473   -0.6430 H.spc      1 <1>        0.000
     11 H          -1.7182   -1.6104    1.0579 H.spc      1 <1>        0.000
     12 H          -4.5662   -2.3640    0.3882 H.spc      1 <1>        0.000
     13 H          -1.9324    2.2750   -0.3795 H.spc      1 <1>        0.000
     14 H          -4.6076    2.5671   -0.4453 H.spc      1 <1>        0.000
     15 H          -0.5698    0.4859    0.9672 H.spc      1 <1>        0.000
     16 H          -0.3872    0.2572   -0.7299 H.spc      1 <1>        0.000
     17 H          -6.7238   -1.1370    0.1874 H.spc      1 <1>        0.000
     18 H          -6.7440    1.3127   -0.2254 H.spc      1 <1>        0.000
@<TRIPOS>BOND
     1    6    9 ar 
     2    4    8 ar 
     3    8    9 ar 
     4    5    7 1  
     5    1    2 ar 
     6    1    3 1  
     7    1    4 ar 
     8    2    5 1  
     9    2    6 ar 
    10    3    7 1  
    11    3   10 1  
    12    3   11 1  
    13    4   12 1  
    14    5   13 1  
    15    6   14 1  
    16    7   15 1  
    17    7   16 1  
    18    8   17 1  
    19    9   18 1  
# Name:          frag4-412-172/150395 -- energy: -0.850349
# Creation time: Sat Jun  5 12:53:34 2010


@<TRIPOS>MOLECULE
frag4-412-172/150395 -- energy: -0.850349
   18    19     1     1     1
SMALL
USER_CHARGES


@<TRIPOS>ATOM
      1 C1         -3.3856   -0.5814    0.0894 C.ar       1 <1>        0.000
      2 C2         -3.3988    0.8050   -0.1293 C.ar       1 <1>        0.000
      3 C3         -1.9409   -1.0461    0.1523 C.3        1 <1>        0.000
      4 C4         -4.5751   -1.2889    0.2089 C.ar       1 <1>        0.000
      5 N1         -2.1474    1.2969   -0.1856 N.pl3      1 <1>        0.000
      6 C5         -4.6004    1.4936   -0.2562 C.ar       1 <1>        0.000
      7 C6         -1.1386    0.2858    0.0592 C.3        1 <1>        0.000
      8 C7         -5.7813   -0.5972    0.0950 C.ar       1 <1>        0.000
      9 C8         -5.7931    0.7872   -0.1374 C.ar       1 <1>        0.000
     10 H          -1.6882   -1.7473   -0.6430 H.spc      1 <1>        0.000
     11 H          -1.7182   -1.6104    1.0579 H.spc      1 <1>        0.000
     12 H          -4.5662   -2.3640    0.3882 H.spc      1 <1>        0.000
     13 H          -1.9324    2.2750   -0.3795 H.spc      1 <1>        0.000
     14 H          -4.6076    2.5671   -0.4453 H.spc      1 <1>        0.000
     15 H          -0.5698    0.4859    0.9672 H.spc      1 <1>        0.000
     16 H          -0.3872    0.2572   -0.7299 H.spc      1 <1>        0.000
     17 H          -6.7238   -1.1370    0.1874 H.spc      1 <1>        0.000
     18 H          -6.7440    1.3127   -0.2254 H.spc      1 <1>        0.000
@<TRIPOS>BOND
     1    6    9 ar 
     2    4    8 ar 
     3    8    9 ar 
     4    5    7 1  
     5    1    2 ar 
     6    1    3 1  
     7    1    4 ar 
     8    2    5 1  
     9    2    6 ar 
    10    3    7 1  
    11    3   10 1  
    12    3   11 1  
    13    4   12 1  
    14    5   13 1  
    15    6   14 1  
    16    7   15 1  
    17    7   16 1  
    18    8   17 1  
    19    9   18 1  
