#      Rotatable Fragment
#      Build by yxyuan
#
# Name:          frag5-646-76/138278
# Creation time: Sat Jun  5 12:53:50 2010


@<TRIPOS>MOLECULE
frag5-646-76/138278
   18    19     1     1     1
SMALL
USER_CHARGES


@<TRIPOS>ATOM
      1 C1          1.1999    2.2840   -0.1288 C.ar       1 <1>        0.000
      2 C2          0.0402    1.5101   -0.0437 C.ar       1 <1>        0.000
      3 C3          1.1175    3.6821   -0.2044 C.ar       1 <1>        0.000
      4 N1          2.4005    1.6694   -0.1370 N.ar       1 <1>        0.000
      5 O1          0.1579    0.1173    0.0481 O.3        1 <1>        0.000
      6 C4         -1.2125    2.1344   -0.0525 C.ar       1 <1>        0.000
      7 C5         -0.1371    4.3002   -0.2042 C.ar       1 <1>        0.000
      8 C6          2.3013    4.4232   -0.2779 C.ar       1 <1>        0.000
      9 C7          3.5526    2.3650   -0.2229 C.ar       1 <1>        0.000
     10 C9         -1.2988    3.5275   -0.1333 C.ar       1 <1>        0.000
     11 C10         3.5303    3.7603   -0.2888 C.ar       1 <1>        0.000
     12 H          -0.7172   -0.2740    0.0992 H.spc      1 <1>        0.000
     13 H          -2.1208    1.5345    0.0036 H.spc      1 <1>        0.000
     14 H          -0.2086    5.3864   -0.2594 H.spc      1 <1>        0.000
     15 H           2.2648    5.5115   -0.3264 H.spc      1 <1>        0.000
     16 H           4.5056    1.8362   -0.2410 H.spc      1 <1>        0.000
     17 H          -2.2752    4.0120   -0.1410 H.spc      1 <1>        0.000
     18 H           4.4609    4.3247   -0.3480 H.spc      1 <1>        0.000
@<TRIPOS>BOND
     1    7   10 ar 
     2    9   11 ar 
     3    8   11 ar 
     4    6   10 ar 
     5    1    2 ar 
     6    1    3 ar 
     7    1    4 ar 
     8    2    5 1  
     9    2    6 ar 
    10    3    7 ar 
    11    3    8 ar 
    12    4    9 ar 
    13    5   12 1  
    14    6   13 1  
    15    7   14 1  
    16    8   15 1  
    17    9   16 1  
    18   10   17 1  
    19   11   18 1  
# Name:          frag5-646-76/138278 -- energy: -0.282379
# Creation time: Sat Jun  5 12:53:50 2010


@<TRIPOS>MOLECULE
frag5-646-76/138278 -- energy: -0.282379
   18    19     1     1     1
SMALL
USER_CHARGES


@<TRIPOS>ATOM
      1 C1          1.1999    2.2840   -0.1288 C.ar       1 <1>        0.000
      2 C2          0.0402    1.5101   -0.0437 C.ar       1 <1>        0.000
      3 C3          1.1175    3.6821   -0.2044 C.ar       1 <1>        0.000
      4 N1          2.4005    1.6694   -0.1370 N.ar       1 <1>        0.000
      5 O1          0.1579    0.1173    0.0481 O.3        1 <1>        0.000
      6 C4         -1.2125    2.1344   -0.0525 C.ar       1 <1>        0.000
      7 C5         -0.1371    4.3002   -0.2042 C.ar       1 <1>        0.000
      8 C6          2.3013    4.4232   -0.2779 C.ar       1 <1>        0.000
      9 C7          3.5526    2.3650   -0.2229 C.ar       1 <1>        0.000
     10 C9         -1.2988    3.5275   -0.1333 C.ar       1 <1>        0.000
     11 C10         3.5303    3.7603   -0.2888 C.ar       1 <1>        0.000
     12 H          -0.7172   -0.2740    0.0992 H.spc      1 <1>        0.000
     13 H          -2.1208    1.5345    0.0036 H.spc      1 <1>        0.000
     14 H          -0.2086    5.3864   -0.2594 H.spc      1 <1>        0.000
     15 H           2.2648    5.5115   -0.3264 H.spc      1 <1>        0.000
     16 H           4.5056    1.8362   -0.2410 H.spc      1 <1>        0.000
     17 H          -2.2752    4.0120   -0.1410 H.spc      1 <1>        0.000
     18 H           4.4609    4.3247   -0.3480 H.spc      1 <1>        0.000
@<TRIPOS>BOND
     1    7   10 ar 
     2    9   11 ar 
     3    8   11 ar 
     4    6   10 ar 
     5    1    2 ar 
     6    1    3 ar 
     7    1    4 ar 
     8    2    5 1  
     9    2    6 ar 
    10    3    7 ar 
    11    3    8 ar 
    12    4    9 ar 
    13    5   12 1  
    14    6   13 1  
    15    7   14 1  
    16    8   15 1  
    17    9   16 1  
    18   10   17 1  
    19   11   18 1  
