#      Rotatable Fragment
#      Build by yxyuan
#
# Name:          frag5-599-36/41815
# Creation time: Sat Jun  5 12:52:57 2010


@<TRIPOS>MOLECULE
frag5-599-36/41815
   13    13     1     1     1
SMALL
USER_CHARGES


@<TRIPOS>ATOM
      1 C15        -1.6289   -0.4912    0.1052 C.ar       1 <1>        0.000
      2 C16        -1.2914    0.8441    0.2643 C.ar       1 <1>        0.000
      3 C17         0.0375    1.2685    0.1680 C.ar       1 <1>        0.000
      4 C18         1.0550    0.3312   -0.0959 C.ar       1 <1>        0.000
      5 C19         0.7069   -1.0154   -0.2538 C.ar       1 <1>        0.000
      6 C20        -0.6266   -1.4253   -0.1555 C.ar       1 <1>        0.000
      7 O4          2.3663    0.7521   -0.1935 O.3        1 <1>        0.000
      8 Br2         0.4717    3.0964    0.3907 Br         1 <1>        0.000
      9 H          -2.6688   -0.8083    0.1832 H.spc      1 <1>        0.000
     10 H          -2.0744    1.5747    0.4677 H.spc      1 <1>        0.000
     11 H           1.4839   -1.7528   -0.4556 H.spc      1 <1>        0.000
     12 H          -0.8831   -2.4770   -0.2829 H.spc      1 <1>        0.000
     13 H           2.9309   -0.0029   -0.3749 H.spc      1 <1>        0.000
@<TRIPOS>BOND
     1    1    2 ar 
     2    1    6 ar 
     3    2    3 ar 
     4    3    4 ar 
     5    3    8 1  
     6    4    5 ar 
     7    4    7 1  
     8    5    6 ar 
     9    1    9 1  
    10    2   10 1  
    11    5   11 1  
    12    6   12 1  
    13    7   13 1  
# Name:          frag5-599-36/41815 -- energy: -0.272620
# Creation time: Sat Jun  5 12:52:57 2010


@<TRIPOS>MOLECULE
frag5-599-36/41815 -- energy: -0.272620
   13    13     1     1     1
SMALL
USER_CHARGES


@<TRIPOS>ATOM
      1 C15        -1.6289   -0.4912    0.1052 C.ar       1 <1>        0.000
      2 C16        -1.2914    0.8441    0.2643 C.ar       1 <1>        0.000
      3 C17         0.0375    1.2685    0.1680 C.ar       1 <1>        0.000
      4 C18         1.0550    0.3312   -0.0959 C.ar       1 <1>        0.000
      5 C19         0.7069   -1.0154   -0.2538 C.ar       1 <1>        0.000
      6 C20        -0.6266   -1.4253   -0.1555 C.ar       1 <1>        0.000
      7 O4          2.3663    0.7521   -0.1935 O.3        1 <1>        0.000
      8 Br2         0.4717    3.0964    0.3907 Br         1 <1>        0.000
      9 H          -2.6688   -0.8083    0.1832 H.spc      1 <1>        0.000
     10 H          -2.0744    1.5747    0.4677 H.spc      1 <1>        0.000
     11 H           1.4839   -1.7528   -0.4556 H.spc      1 <1>        0.000
     12 H          -0.8831   -2.4770   -0.2829 H.spc      1 <1>        0.000
     13 H           2.9309   -0.0029   -0.3749 H.spc      1 <1>        0.000
@<TRIPOS>BOND
     1    1    2 ar 
     2    1    6 ar 
     3    2    3 ar 
     4    3    4 ar 
     5    3    8 1  
     6    4    5 ar 
     7    4    7 1  
     8    5    6 ar 
     9    1    9 1  
    10    2   10 1  
    11    5   11 1  
    12    6   12 1  
    13    7   13 1  
