#      Rotatable Fragment
#      Build by yxyuan
#
# Name:          frag3-256-4/96164
# Creation time: Sat Jun  5 12:53:21 2010


@<TRIPOS>MOLECULE
frag3-256-4/96164
   10     9     1     1     1
SMALL
USER_CHARGES


@<TRIPOS>ATOM
      1 O4          0.0645    1.2746    0.5471 O.3        1 <1>        0.000
      2 S1          0.5483    2.4337   -0.4078 S.o2       1 <1>        0.000
      3 N1         -0.4684    3.4989   -0.0266 N.2        1 <1>        0.000
      4 O7          0.1527    1.9596   -1.7159 O.2        1 <1>        0.000
      5 O8          1.8532    2.9014   -0.0292 O.2        1 <1>        0.000
      6 C13        -1.0257    4.3763   -0.7347 C.2        1 <1>        0.000
      7 O9         -0.6986    4.4270   -1.9923 O.3        1 <1>        0.000
      8 H           0.2842    1.4967    1.4549 H.spc      1 <1>        0.000
      9 H          -1.7544    5.0672   -0.3108 H.spc      1 <1>        0.000
     10 H          -1.1884    5.1326   -2.4210 H.spc      1 <1>        0.000
@<TRIPOS>BOND
     1    1    2 1  
     2    2    3 1  
     3    2    4 2  
     4    2    5 2  
     5    3    6 2  
     6    6    7 1  
     7    1    8 1  
     8    6    9 1  
     9    7   10 1  
# Name:          frag3-256-4/96164
# Creation time: Sat Jun  5 12:53:21 2010


@<TRIPOS>MOLECULE
frag3-256-4/96164
   10     9     1     1     1
SMALL
USER_CHARGES


@<TRIPOS>ATOM
      1 O4         -0.1721    2.0206    0.7091 O.3        1 <1>        0.000
      2 S1          0.5133    2.2932   -0.6946 S.o2       1 <1>        0.000
      3 N1         -0.6412    3.0937   -1.2742 N.2        1 <1>        0.000
      4 O7          0.5638    1.0093   -1.3433 O.2        1 <1>        0.000
      5 O8          1.6158    3.2127   -0.5280 O.2        1 <1>        0.000
      6 C13        -1.0444    4.2595   -1.0559 C.2        1 <1>        0.000
      7 O9         -0.4093    4.9825   -0.1726 O.3        1 <1>        0.000
      8 H          -0.2371    2.8445    1.1976 H.spc      1 <1>        0.000
      9 H          -1.9051    4.6612   -1.5906 H.spc      1 <1>        0.000
     10 H          -0.8243    5.8458   -0.1093 H.spc      1 <1>        0.000
@<TRIPOS>BOND
     1    1    2 1  
     2    2    3 1  
     3    2    4 2  
     4    2    5 2  
     5    3    6 2  
     6    6    7 1  
     7    1    8 1  
     8    6    9 1  
     9    7   10 1  
# Name:          frag3-256-4/96164
# Creation time: Sat Jun  5 12:53:21 2010


@<TRIPOS>MOLECULE
frag3-256-4/96164
   10     9     1     1     1
SMALL
USER_CHARGES


@<TRIPOS>ATOM
      1 O4         -0.4427    1.7193    0.2015 O.3        1 <1>        0.000
      2 S1          0.7340    2.5392   -0.4542 S.o2       1 <1>        0.000
      3 N1          0.1406    3.9275   -0.2788 N.2        1 <1>        0.000
      4 O7          0.6593    2.2444   -1.8701 O.2        1 <1>        0.000
      5 O8          1.8812    2.3395    0.3839 O.2        1 <1>        0.000
      6 C13        -0.9002    4.4189   -0.7750 C.2        1 <1>        0.000
      7 O9         -1.6464    3.6827   -1.5668 O.3        1 <1>        0.000
      8 H          -0.4487    1.8724    1.1492 H.spc      1 <1>        0.000
      9 H          -1.1835    5.4475   -0.5516 H.spc      1 <1>        0.000
     10 H          -2.4009    4.1971   -1.8631 H.spc      1 <1>        0.000
@<TRIPOS>BOND
     1    1    2 1  
     2    2    3 1  
     3    2    4 2  
     4    2    5 2  
     5    3    6 2  
     6    6    7 1  
     7    1    8 1  
     8    6    9 1  
     9    7   10 1  
# Name:          frag3-256-4/96164 -- energy: -0.345116
# Creation time: Sat Jun  5 12:53:21 2010


@<TRIPOS>MOLECULE
frag3-256-4/96164 -- energy: -0.345116
   10     9     1     1     1
SMALL
USER_CHARGES


@<TRIPOS>ATOM
      1 O4          0.0645    1.2746    0.5471 O.3        1 <1>        0.000
      2 S1          0.5483    2.4337   -0.4078 S.o2       1 <1>        0.000
      3 N1         -0.4684    3.4989   -0.0266 N.2        1 <1>        0.000
      4 O7          0.1527    1.9596   -1.7159 O.2        1 <1>        0.000
      5 O8          1.8532    2.9014   -0.0292 O.2        1 <1>        0.000
      6 C13        -1.0257    4.3763   -0.7347 C.2        1 <1>        0.000
      7 O9         -0.6986    4.4270   -1.9923 O.3        1 <1>        0.000
      8 H           0.2842    1.4967    1.4549 H.spc      1 <1>        0.000
      9 H          -1.7544    5.0672   -0.3108 H.spc      1 <1>        0.000
     10 H          -1.1884    5.1326   -2.4210 H.spc      1 <1>        0.000
@<TRIPOS>BOND
     1    1    2 1  
     2    2    3 1  
     3    2    4 2  
     4    2    5 2  
     5    3    6 2  
     6    6    7 1  
     7    1    8 1  
     8    6    9 1  
     9    7   10 1  
# Name:          frag3-256-4/96164 -- energy: -0.634232
# Creation time: Sat Jun  5 12:53:21 2010


@<TRIPOS>MOLECULE
frag3-256-4/96164 -- energy: -0.634232
   10     9     1     1     1
SMALL
USER_CHARGES


@<TRIPOS>ATOM
      1 O4         -0.1721    2.0206    0.7091 O.3        1 <1>        0.000
      2 S1          0.5133    2.2932   -0.6946 S.o2       1 <1>        0.000
      3 N1         -0.6412    3.0937   -1.2742 N.2        1 <1>        0.000
      4 O7          0.5638    1.0093   -1.3433 O.2        1 <1>        0.000
      5 O8          1.6158    3.2127   -0.5280 O.2        1 <1>        0.000
      6 C13        -1.0444    4.2595   -1.0559 C.2        1 <1>        0.000
      7 O9         -0.4093    4.9825   -0.1726 O.3        1 <1>        0.000
      8 H          -0.2371    2.8445    1.1976 H.spc      1 <1>        0.000
      9 H          -1.9051    4.6612   -1.5906 H.spc      1 <1>        0.000
     10 H          -0.8243    5.8458   -0.1093 H.spc      1 <1>        0.000
@<TRIPOS>BOND
     1    1    2 1  
     2    2    3 1  
     3    2    4 2  
     4    2    5 2  
     5    3    6 2  
     6    6    7 1  
     7    1    8 1  
     8    6    9 1  
     9    7   10 1  
# Name:          frag3-256-4/96164 -- energy: -0.558000
# Creation time: Sat Jun  5 12:53:21 2010


@<TRIPOS>MOLECULE
frag3-256-4/96164 -- energy: -0.558000
   10     9     1     1     1
SMALL
USER_CHARGES


@<TRIPOS>ATOM
      1 O4         -0.4427    1.7193    0.2015 O.3        1 <1>        0.000
      2 S1          0.7340    2.5392   -0.4542 S.o2       1 <1>        0.000
      3 N1          0.1406    3.9275   -0.2788 N.2        1 <1>        0.000
      4 O7          0.6593    2.2444   -1.8701 O.2        1 <1>        0.000
      5 O8          1.8812    2.3395    0.3839 O.2        1 <1>        0.000
      6 C13        -0.9002    4.4189   -0.7750 C.2        1 <1>        0.000
      7 O9         -1.6464    3.6827   -1.5668 O.3        1 <1>        0.000
      8 H          -0.4487    1.8724    1.1492 H.spc      1 <1>        0.000
      9 H          -1.1835    5.4475   -0.5516 H.spc      1 <1>        0.000
     10 H          -2.4009    4.1971   -1.8631 H.spc      1 <1>        0.000
@<TRIPOS>BOND
     1    1    2 1  
     2    2    3 1  
     3    2    4 2  
     4    2    5 2  
     5    3    6 2  
     6    6    7 1  
     7    1    8 1  
     8    6    9 1  
     9    7   10 1  
