#      Rotatable Fragment
#      Build by yxyuan
#
# Name:          frag3-114-71/31924
# Creation time: Sat Jun  5 12:52:02 2010


@<TRIPOS>MOLECULE
frag3-114-71/31924
    5     4     1     1     1
SMALL
USER_CHARGES


@<TRIPOS>ATOM
      1 N3          1.5159   -1.3243   -2.4074 N.3        1 <1>        0.000
      2 O3          1.0481   -2.6337   -2.7853 O.3        1 <1>        0.000
      3 H           1.0593   -0.6208   -2.9879 H.spc      1 <1>        0.000
      4 H           1.2925   -1.1547   -1.4267 H.spc      1 <1>        0.000
      5 H           1.4778   -3.2958   -2.2389 H.spc      1 <1>        0.000
@<TRIPOS>BOND
     1    1    2 1  
     2    1    3 1  
     3    1    4 1  
     4    2    5 1  
# Name:          frag3-114-71/31924 -- energy: -0.032272
# Creation time: Sat Jun  5 12:52:02 2010


@<TRIPOS>MOLECULE
frag3-114-71/31924 -- energy: -0.032272
    5     4     1     1     1
SMALL
USER_CHARGES


@<TRIPOS>ATOM
      1 N3          1.5159   -1.3243   -2.4074 N.3        1 <1>        0.000
      2 O3          1.0481   -2.6337   -2.7853 O.3        1 <1>        0.000
      3 H           1.0593   -0.6208   -2.9879 H.spc      1 <1>        0.000
      4 H           1.2925   -1.1547   -1.4267 H.spc      1 <1>        0.000
      5 H           1.4778   -3.2958   -2.2389 H.spc      1 <1>        0.000
@<TRIPOS>BOND
     1    1    2 1  
     2    1    3 1  
     3    1    4 1  
     4    2    5 1  
