#      Rotatable Fragment
#      Build by yxyuan
#
# Name:          frag2-033-321/92655
# Creation time: Sat Jun  5 12:51:57 2010


@<TRIPOS>MOLECULE
frag2-033-321/92655
    5     4     1     1     1
SMALL
USER_CHARGES


@<TRIPOS>ATOM
      1 C11         0.4089    0.0717    0.0198 C.2        1 <1>        0.000
      2 N2         -0.6273   -0.6895    0.0029 N.2        1 <1>        0.000
      3 H           0.7193    0.5491    0.9492 H.spc      1 <1>        0.000
      4 H           0.9768    0.2395   -0.8953 H.spc      1 <1>        0.000
      5 H          -1.1588   -0.8466    0.8592 H.spc      1 <1>        0.000
@<TRIPOS>BOND
     1    1    2 2  
     2    1    3 1  
     3    1    4 1  
     4    2    5 1  
# Name:          frag2-033-321/92655 -- energy: -0.030541
# Creation time: Sat Jun  5 12:51:57 2010


@<TRIPOS>MOLECULE
frag2-033-321/92655 -- energy: -0.030541
    5     4     1     1     1
SMALL
USER_CHARGES


@<TRIPOS>ATOM
      1 C11         0.4089    0.0717    0.0198 C.2        1 <1>        0.000
      2 N2         -0.6273   -0.6895    0.0029 N.2        1 <1>        0.000
      3 H           0.7193    0.5491    0.9492 H.spc      1 <1>        0.000
      4 H           0.9768    0.2395   -0.8953 H.spc      1 <1>        0.000
      5 H          -1.1588   -0.8466    0.8592 H.spc      1 <1>        0.000
@<TRIPOS>BOND
     1    1    2 2  
     2    1    3 1  
     3    1    4 1  
     4    2    5 1  
