#      Rotatable Fragment
#      Build by yxyuan
#
# Name:          frag5-641-28/41815
# Creation time: Sat Jun  5 12:53:00 2010


@<TRIPOS>MOLECULE
frag5-641-28/41815
   16    16     1     1     1
SMALL
USER_CHARGES


@<TRIPOS>ATOM
      1 N1         -1.3057    0.3004   -0.3461 N.am       1 <1>        0.000
      2 C12        -1.8913    0.6283   -1.6072 C.3        1 <1>        0.000
      3 C13        -1.0556    1.5491   -2.4455 C.3        1 <1>        0.000
      4 C14        -0.4934    2.6795   -1.6210 C.3        1 <1>        0.000
      5 C15        -0.7330    2.6621   -0.1395 C.3        1 <1>        0.000
      6 C16        -0.7237    1.2656    0.4106 C.2        1 <1>        0.000
      7 O2         -0.2187    1.0256    1.5014 O.2        1 <1>        0.000
      8 H          -1.3250   -0.6634   -0.0127 H.spc      1 <1>        0.000
      9 H          -2.8321    1.1398   -1.4041 H.spc      1 <1>        0.000
     10 H          -2.0047   -0.3023   -2.1633 H.spc      1 <1>        0.000
     11 H          -1.6837    1.9705   -3.2304 H.spc      1 <1>        0.000
     12 H          -0.2265    0.9799   -2.8659 H.spc      1 <1>        0.000
     13 H          -0.9945    3.5771   -1.9833 H.spc      1 <1>        0.000
     14 H           0.5881    2.6116   -1.7387 H.spc      1 <1>        0.000
     15 H           0.0654    3.2257    0.3432 H.spc      1 <1>        0.000
     16 H          -1.7122    3.1000    0.0543 H.spc      1 <1>        0.000
@<TRIPOS>BOND
     1    6    7 2  
     2    5    6 1  
     3    1    2 1  
     4    1    6 am 
     5    2    3 1  
     6    3    4 1  
     7    4    5 1  
     8    1    8 1  
     9    2    9 1  
    10    2   10 1  
    11    3   11 1  
    12    3   12 1  
    13    4   13 1  
    14    4   14 1  
    15    5   15 1  
    16    5   16 1  
# Name:          frag5-641-28/41815 -- energy: -0.959276
# Creation time: Sat Jun  5 12:53:00 2010


@<TRIPOS>MOLECULE
frag5-641-28/41815 -- energy: -0.959276
   16    16     1     1     1
SMALL
USER_CHARGES


@<TRIPOS>ATOM
      1 N1         -1.3057    0.3004   -0.3461 N.am       1 <1>        0.000
      2 C12        -1.8913    0.6283   -1.6072 C.3        1 <1>        0.000
      3 C13        -1.0556    1.5491   -2.4455 C.3        1 <1>        0.000
      4 C14        -0.4934    2.6795   -1.6210 C.3        1 <1>        0.000
      5 C15        -0.7330    2.6621   -0.1395 C.3        1 <1>        0.000
      6 C16        -0.7237    1.2656    0.4106 C.2        1 <1>        0.000
      7 O2         -0.2187    1.0256    1.5014 O.2        1 <1>        0.000
      8 H          -1.3250   -0.6634   -0.0127 H.spc      1 <1>        0.000
      9 H          -2.8321    1.1398   -1.4041 H.spc      1 <1>        0.000
     10 H          -2.0047   -0.3023   -2.1633 H.spc      1 <1>        0.000
     11 H          -1.6837    1.9705   -3.2304 H.spc      1 <1>        0.000
     12 H          -0.2265    0.9799   -2.8659 H.spc      1 <1>        0.000
     13 H          -0.9945    3.5771   -1.9833 H.spc      1 <1>        0.000
     14 H           0.5881    2.6116   -1.7387 H.spc      1 <1>        0.000
     15 H           0.0654    3.2257    0.3432 H.spc      1 <1>        0.000
     16 H          -1.7122    3.1000    0.0543 H.spc      1 <1>        0.000
@<TRIPOS>BOND
     1    6    7 2  
     2    5    6 1  
     3    1    2 1  
     4    1    6 am 
     5    2    3 1  
     6    3    4 1  
     7    4    5 1  
     8    1    8 1  
     9    2    9 1  
    10    2   10 1  
    11    3   11 1  
    12    3   12 1  
    13    4   13 1  
    14    4   14 1  
    15    5   15 1  
    16    5   16 1  
