#      Rotatable Fragment
#      Build by yxyuan
#
# Name:          frag2-048-30/92655
# Creation time: Sat Jun  5 12:51:57 2010


@<TRIPOS>MOLECULE
frag2-048-30/92655
   24    26     1     1     1
SMALL
USER_CHARGES


@<TRIPOS>ATOM
      1 C3         -2.6870    1.2139   -0.1419 C.ar       1 <1>        0.000
      2 C4         -1.2944    1.0198   -0.0805 C.ar       1 <1>        0.000
      3 C5         -0.7465   -0.2891   -0.0201 C.ar       1 <1>        0.000
      4 C6          0.6650   -0.4436    0.0399 C.ar       1 <1>        0.000
      5 C7          1.4864    0.7161    0.0388 C.ar       1 <1>        0.000
      6 C8          2.8883    0.6039    0.0971 C.ar       1 <1>        0.000
      7 C9          3.5007   -0.6371    0.1567 C.ar       1 <1>        0.000
      8 C17        -3.5565    0.1348   -0.1461 C.ar       1 <1>        0.000
      9 C10         2.7181   -1.7793    0.1590 C.ar       1 <1>        0.000
     10 C11         1.3196   -1.6986    0.1031 C.ar       1 <1>        0.000
     11 C13         0.9160    1.9871   -0.0200 C.ar       1 <1>        0.000
     12 C14        -0.4599    2.1376   -0.0794 C.ar       1 <1>        0.000
     13 C15        -1.6594   -1.3727   -0.0244 C.ar       1 <1>        0.000
     14 C16        -3.0417   -1.1495   -0.0923 C.ar       1 <1>        0.000
     15 H          -3.0871    2.2268   -0.1868 H.spc      1 <1>        0.000
     16 H           3.5003    1.5059    0.0953 H.spc      1 <1>        0.000
     17 H           4.5871   -0.7137    0.2013 H.spc      1 <1>        0.000
     18 H          -4.6337    0.2952   -0.1913 H.spc      1 <1>        0.000
     19 H           3.1972   -2.7573    0.2050 H.spc      1 <1>        0.000
     20 H           0.7277   -2.6139    0.1083 H.spc      1 <1>        0.000
     21 H           1.5572    2.8685   -0.0192 H.spc      1 <1>        0.000
     22 H          -0.8935    3.1366   -0.1256 H.spc      1 <1>        0.000
     23 H          -1.2817   -2.3939    0.0258 H.spc      1 <1>        0.000
     24 H          -3.7223   -2.0008   -0.1029 H.spc      1 <1>        0.000
@<TRIPOS>BOND
     1    5    6 ar 
     2    9   10 ar 
     3    7    9 ar 
     4   14    8 ar 
     5    4    5 ar 
     6    3   13 ar 
     7   11   12 ar 
     8    2    3 ar 
     9    4   10 ar 
    10   13   14 ar 
    11    3    4 ar 
    12    1    8 ar 
    13    2   12 ar 
    14    6    7 ar 
    15    1    2 ar 
    16    5   11 ar 
    17    1   15 1  
    18    6   16 1  
    19    7   17 1  
    20    8   18 1  
    21    9   19 1  
    22   10   20 1  
    23   11   21 1  
    24   12   22 1  
    25   13   23 1  
    26   14   24 1  
# Name:          frag2-048-30/92655 -- energy: -0.852057
# Creation time: Sat Jun  5 12:51:57 2010


@<TRIPOS>MOLECULE
frag2-048-30/92655 -- energy: -0.852057
   24    26     1     1     1
SMALL
USER_CHARGES


@<TRIPOS>ATOM
      1 C3         -2.6870    1.2139   -0.1419 C.ar       1 <1>        0.000
      2 C4         -1.2944    1.0198   -0.0805 C.ar       1 <1>        0.000
      3 C5         -0.7465   -0.2891   -0.0201 C.ar       1 <1>        0.000
      4 C6          0.6650   -0.4436    0.0399 C.ar       1 <1>        0.000
      5 C7          1.4864    0.7161    0.0388 C.ar       1 <1>        0.000
      6 C8          2.8883    0.6039    0.0971 C.ar       1 <1>        0.000
      7 C9          3.5007   -0.6371    0.1567 C.ar       1 <1>        0.000
      8 C17        -3.5565    0.1348   -0.1461 C.ar       1 <1>        0.000
      9 C10         2.7181   -1.7793    0.1590 C.ar       1 <1>        0.000
     10 C11         1.3196   -1.6986    0.1031 C.ar       1 <1>        0.000
     11 C13         0.9160    1.9871   -0.0200 C.ar       1 <1>        0.000
     12 C14        -0.4599    2.1376   -0.0794 C.ar       1 <1>        0.000
     13 C15        -1.6594   -1.3727   -0.0244 C.ar       1 <1>        0.000
     14 C16        -3.0417   -1.1495   -0.0923 C.ar       1 <1>        0.000
     15 H          -3.0871    2.2268   -0.1868 H.spc      1 <1>        0.000
     16 H           3.5003    1.5059    0.0953 H.spc      1 <1>        0.000
     17 H           4.5871   -0.7137    0.2013 H.spc      1 <1>        0.000
     18 H          -4.6337    0.2952   -0.1913 H.spc      1 <1>        0.000
     19 H           3.1972   -2.7573    0.2050 H.spc      1 <1>        0.000
     20 H           0.7277   -2.6139    0.1083 H.spc      1 <1>        0.000
     21 H           1.5572    2.8685   -0.0192 H.spc      1 <1>        0.000
     22 H          -0.8935    3.1366   -0.1256 H.spc      1 <1>        0.000
     23 H          -1.2817   -2.3939    0.0258 H.spc      1 <1>        0.000
     24 H          -3.7223   -2.0008   -0.1029 H.spc      1 <1>        0.000
@<TRIPOS>BOND
     1    5    6 ar 
     2    9   10 ar 
     3    7    9 ar 
     4   14    8 ar 
     5    4    5 ar 
     6    3   13 ar 
     7   11   12 ar 
     8    2    3 ar 
     9    4   10 ar 
    10   13   14 ar 
    11    3    4 ar 
    12    1    8 ar 
    13    2   12 ar 
    14    6    7 ar 
    15    1    2 ar 
    16    5   11 ar 
    17    1   15 1  
    18    6   16 1  
    19    7   17 1  
    20    8   18 1  
    21    9   19 1  
    22   10   20 1  
    23   11   21 1  
    24   12   22 1  
    25   13   23 1  
    26   14   24 1  
