#      Rotatable Fragment
#      Build by yxyuan
#
# Name:          frag4-418-148/150395
# Creation time: Sat Jun  5 12:53:35 2010


@<TRIPOS>MOLECULE
frag4-418-148/150395
   18    19     1     1     1
SMALL
USER_CHARGES


@<TRIPOS>ATOM
      1 N1         -0.3584    0.8266    0.1440 N.3        1 <1>        0.000
      2 C1         -1.1005   -0.4352    0.2038 C.3        1 <1>        0.000
      3 C3         -1.0717    1.9107   -0.0004 C.3        1 <1>        0.000
      4 C4         -2.5263    0.0915    0.0582 C.ar       1 <1>        0.000
      5 C7         -2.5107    1.4731   -0.0617 C.ar       1 <1>        0.000
      6 C8         -3.7306   -0.6130    0.0357 C.ar       1 <1>        0.000
      7 C12        -3.6843    2.2127   -0.2081 C.ar       1 <1>        0.000
      8 C13        -4.9181    0.1144   -0.1124 C.ar       1 <1>        0.000
      9 C16        -4.8958    1.5114   -0.2334 C.ar       1 <1>        0.000
     10 H           0.2378    0.7667   -0.6814 H.spc      1 <1>        0.000
     11 H          -0.9253   -1.0194    1.1072 H.spc      1 <1>        0.000
     12 H          -0.8100   -1.1658   -0.5512 H.spc      1 <1>        0.000
     13 H          -0.7883    2.4455   -0.9069 H.spc      1 <1>        0.000
     14 H          -0.9086    2.5977    0.8299 H.spc      1 <1>        0.000
     15 H          -3.7466   -1.6987    0.1307 H.spc      1 <1>        0.000
     16 H          -3.6591    3.2986   -0.2996 H.spc      1 <1>        0.000
     17 H          -5.8722   -0.4122   -0.1339 H.spc      1 <1>        0.000
     18 H          -5.8322    2.0573   -0.3484 H.spc      1 <1>        0.000
@<TRIPOS>BOND
     1    5    7 ar 
     2    6    8 ar 
     3    7    9 ar 
     4    8    9 ar 
     5    1    2 1  
     6    1    3 1  
     7    2    4 1  
     8    3    5 1  
     9    4    6 ar 
    10    4    5 ar 
    11    1   10 1  
    12    2   11 1  
    13    2   12 1  
    14    3   13 1  
    15    3   14 1  
    16    6   15 1  
    17    7   16 1  
    18    8   17 1  
    19    9   18 1  
# Name:          frag4-418-148/150395 -- energy: -0.801416
# Creation time: Sat Jun  5 12:53:35 2010


@<TRIPOS>MOLECULE
frag4-418-148/150395 -- energy: -0.801416
   18    19     1     1     1
SMALL
USER_CHARGES


@<TRIPOS>ATOM
      1 N1         -0.3584    0.8266    0.1440 N.3        1 <1>        0.000
      2 C1         -1.1005   -0.4352    0.2038 C.3        1 <1>        0.000
      3 C3         -1.0717    1.9107   -0.0004 C.3        1 <1>        0.000
      4 C4         -2.5263    0.0915    0.0582 C.ar       1 <1>        0.000
      5 C7         -2.5107    1.4731   -0.0617 C.ar       1 <1>        0.000
      6 C8         -3.7306   -0.6130    0.0357 C.ar       1 <1>        0.000
      7 C12        -3.6843    2.2127   -0.2081 C.ar       1 <1>        0.000
      8 C13        -4.9181    0.1144   -0.1124 C.ar       1 <1>        0.000
      9 C16        -4.8958    1.5114   -0.2334 C.ar       1 <1>        0.000
     10 H           0.2378    0.7667   -0.6814 H.spc      1 <1>        0.000
     11 H          -0.9253   -1.0194    1.1072 H.spc      1 <1>        0.000
     12 H          -0.8100   -1.1658   -0.5512 H.spc      1 <1>        0.000
     13 H          -0.7883    2.4455   -0.9069 H.spc      1 <1>        0.000
     14 H          -0.9086    2.5977    0.8299 H.spc      1 <1>        0.000
     15 H          -3.7466   -1.6987    0.1307 H.spc      1 <1>        0.000
     16 H          -3.6591    3.2986   -0.2996 H.spc      1 <1>        0.000
     17 H          -5.8722   -0.4122   -0.1339 H.spc      1 <1>        0.000
     18 H          -5.8322    2.0573   -0.3484 H.spc      1 <1>        0.000
@<TRIPOS>BOND
     1    5    7 ar 
     2    6    8 ar 
     3    7    9 ar 
     4    8    9 ar 
     5    1    2 1  
     6    1    3 1  
     7    2    4 1  
     8    3    5 1  
     9    4    6 ar 
    10    4    5 ar 
    11    1   10 1  
    12    2   11 1  
    13    2   12 1  
    14    3   13 1  
    15    3   14 1  
    16    6   15 1  
    17    7   16 1  
    18    8   17 1  
    19    9   18 1  
