#      Rotatable Fragment
#      Build by yxyuan
#
# Name:          frag5-497-528/41815
# Creation time: Sat Jun  5 12:52:50 2010


@<TRIPOS>MOLECULE
frag5-497-528/41815
   12    12     1     1     1
SMALL
USER_CHARGES


@<TRIPOS>ATOM
      1 Cl1        -1.5935    2.6228    0.3788 Cl         1 <1>        0.000
      2 C1         -0.6919    1.1391    0.1643 C.ar       1 <1>        0.000
      3 C2          0.6898    1.1783   -0.0270 C.ar       1 <1>        0.000
      4 C3          1.4093   -0.0040   -0.1978 C.ar       1 <1>        0.000
      5 C4          0.7495   -1.2335   -0.1782 C.ar       1 <1>        0.000
      6 C5         -0.6337   -1.2745    0.0135 C.ar       1 <1>        0.000
      7 C6         -1.3513   -0.0881    0.1844 C.ar       1 <1>        0.000
      8 H           1.2087    2.1367   -0.0430 H.spc      1 <1>        0.000
      9 H           2.4885    0.0323   -0.3468 H.spc      1 <1>        0.000
     10 H           1.3111   -2.1581   -0.3119 H.spc      1 <1>        0.000
     11 H          -1.1533   -2.2326    0.0297 H.spc      1 <1>        0.000
     12 H          -2.4304   -0.1226    0.3339 H.spc      1 <1>        0.000
@<TRIPOS>BOND
     1    1    2 1  
     2    2    3 ar 
     3    2    7 ar 
     4    3    4 ar 
     5    4    5 ar 
     6    5    6 ar 
     7    6    7 ar 
     8    3    8 1  
     9    4    9 1  
    10    5   10 1  
    11    6   11 1  
    12    7   12 1  
# Name:          frag5-497-528/41815 -- energy: -0.057886
# Creation time: Sat Jun  5 12:52:50 2010


@<TRIPOS>MOLECULE
frag5-497-528/41815 -- energy: -0.057886
   12    12     1     1     1
SMALL
USER_CHARGES


@<TRIPOS>ATOM
      1 Cl1        -1.5935    2.6228    0.3788 Cl         1 <1>        0.000
      2 C1         -0.6919    1.1391    0.1643 C.ar       1 <1>        0.000
      3 C2          0.6898    1.1783   -0.0270 C.ar       1 <1>        0.000
      4 C3          1.4093   -0.0040   -0.1978 C.ar       1 <1>        0.000
      5 C4          0.7495   -1.2335   -0.1782 C.ar       1 <1>        0.000
      6 C5         -0.6337   -1.2745    0.0135 C.ar       1 <1>        0.000
      7 C6         -1.3513   -0.0881    0.1844 C.ar       1 <1>        0.000
      8 H           1.2087    2.1367   -0.0430 H.spc      1 <1>        0.000
      9 H           2.4885    0.0323   -0.3468 H.spc      1 <1>        0.000
     10 H           1.3111   -2.1581   -0.3119 H.spc      1 <1>        0.000
     11 H          -1.1533   -2.2326    0.0297 H.spc      1 <1>        0.000
     12 H          -2.4304   -0.1226    0.3339 H.spc      1 <1>        0.000
@<TRIPOS>BOND
     1    1    2 1  
     2    2    3 ar 
     3    2    7 ar 
     4    3    4 ar 
     5    4    5 ar 
     6    5    6 ar 
     7    6    7 ar 
     8    3    8 1  
     9    4    9 1  
    10    5   10 1  
    11    6   11 1  
    12    7   12 1  
