#      Rotatable Fragment
#      Build by yxyuan
#
# Name:          frag3-112-144/96164
# Creation time: Sat Jun  5 12:52:47 2010


@<TRIPOS>MOLECULE
frag3-112-144/96164
    8     7     1     1     1
SMALL
USER_CHARGES


@<TRIPOS>ATOM
      1 C1         -0.0568    0.5131   -0.1728 C.2        1 <1>        0.000
      2 C2          1.2202   -0.2476    0.0893 C.2        1 <1>        0.000
      3 O1          0.1367    1.6494   -0.5606 O.2        1 <1>        0.000
      4 O2          1.1691   -1.4039    0.4652 O.2        1 <1>        0.000
      5 N42        -1.2126   -0.1708    0.0552 N.am       1 <1>        0.000
      6 H           2.1853    0.2373   -0.0577 H.spc      1 <1>        0.000
      7 H          -2.1128    0.2816   -0.1043 H.spc      1 <1>        0.000
      8 H          -1.1779   -1.1353    0.3854 H.spc      1 <1>        0.000
@<TRIPOS>BOND
     1    1    2 1  
     2    1    3 2  
     3    1    5 am 
     4    2    4 2  
     5    2    6 1  
     6    5    7 1  
     7    5    8 1  
# Name:          frag3-112-144/96164 -- energy: -0.124064
# Creation time: Sat Jun  5 12:52:47 2010


@<TRIPOS>MOLECULE
frag3-112-144/96164 -- energy: -0.124064
    8     7     1     1     1
SMALL
USER_CHARGES


@<TRIPOS>ATOM
      1 C1         -0.0568    0.5131   -0.1728 C.2        1 <1>        0.000
      2 C2          1.2202   -0.2476    0.0893 C.2        1 <1>        0.000
      3 O1          0.1367    1.6494   -0.5606 O.2        1 <1>        0.000
      4 O2          1.1691   -1.4039    0.4652 O.2        1 <1>        0.000
      5 N42        -1.2126   -0.1708    0.0552 N.am       1 <1>        0.000
      6 H           2.1853    0.2373   -0.0577 H.spc      1 <1>        0.000
      7 H          -2.1128    0.2816   -0.1043 H.spc      1 <1>        0.000
      8 H          -1.1779   -1.1353    0.3854 H.spc      1 <1>        0.000
@<TRIPOS>BOND
     1    1    2 1  
     2    1    3 2  
     3    1    5 am 
     4    2    4 2  
     5    2    6 1  
     6    5    7 1  
     7    5    8 1  
