#      Rotatable Fragment
#      Build by yxyuan
#
# Name:          frag4-408-180/150395
# Creation time: Sat Jun  5 12:53:34 2010


@<TRIPOS>MOLECULE
frag4-408-180/150395
   14    14     1     1     1
SMALL
USER_CHARGES


@<TRIPOS>ATOM
      1 C1          2.0187    0.4515    0.6506 C.3        1 <1>        0.000
      2 C3          1.2635    0.0237   -0.5888 C.3        1 <1>        0.000
      3 C4          1.2045    1.5995    1.2190 C.3        1 <1>        0.000
      4 N1          0.5829    1.2271   -0.9335 N.3        1 <1>        0.000
      5 C8          0.5908    2.2925    0.0208 C.3        1 <1>        0.000
      6 H           3.0411    0.7518    0.4211 H.spc      1 <1>        0.000
      7 H           2.1251   -0.3651    1.3648 H.spc      1 <1>        0.000
      8 H           0.5976   -0.8235   -0.4244 H.spc      1 <1>        0.000
      9 H           1.9060   -0.3579   -1.3823 H.spc      1 <1>        0.000
     10 H           1.8263    2.2811    1.7994 H.spc      1 <1>        0.000
     11 H           0.4398    1.2434    1.9093 H.spc      1 <1>        0.000
     12 H          -0.3969    0.9650   -1.0417 H.spc      1 <1>        0.000
     13 H           1.1389    3.1756   -0.3075 H.spc      1 <1>        0.000
     14 H          -0.3931    2.7201    0.2137 H.spc      1 <1>        0.000
@<TRIPOS>BOND
     1    1    2 1  
     2    1    3 1  
     3    2    4 1  
     4    3    5 1  
     5    4    5 1  
     6    1    6 1  
     7    1    7 1  
     8    2    8 1  
     9    2    9 1  
    10    3   10 1  
    11    3   11 1  
    12    4   12 1  
    13    5   13 1  
    14    5   14 1  
# Name:          frag4-408-180/150395 -- energy: -0.829237
# Creation time: Sat Jun  5 12:53:34 2010


@<TRIPOS>MOLECULE
frag4-408-180/150395 -- energy: -0.829237
   14    14     1     1     1
SMALL
USER_CHARGES


@<TRIPOS>ATOM
      1 C1          2.0187    0.4515    0.6506 C.3        1 <1>        0.000
      2 C3          1.2635    0.0237   -0.5888 C.3        1 <1>        0.000
      3 C4          1.2045    1.5995    1.2190 C.3        1 <1>        0.000
      4 N1          0.5829    1.2271   -0.9335 N.3        1 <1>        0.000
      5 C8          0.5908    2.2925    0.0208 C.3        1 <1>        0.000
      6 H           3.0411    0.7518    0.4211 H.spc      1 <1>        0.000
      7 H           2.1251   -0.3651    1.3648 H.spc      1 <1>        0.000
      8 H           0.5976   -0.8235   -0.4244 H.spc      1 <1>        0.000
      9 H           1.9060   -0.3579   -1.3823 H.spc      1 <1>        0.000
     10 H           1.8263    2.2811    1.7994 H.spc      1 <1>        0.000
     11 H           0.4398    1.2434    1.9093 H.spc      1 <1>        0.000
     12 H          -0.3969    0.9650   -1.0417 H.spc      1 <1>        0.000
     13 H           1.1389    3.1756   -0.3075 H.spc      1 <1>        0.000
     14 H          -0.3931    2.7201    0.2137 H.spc      1 <1>        0.000
@<TRIPOS>BOND
     1    1    2 1  
     2    1    3 1  
     3    2    4 1  
     4    3    5 1  
     5    4    5 1  
     6    1    6 1  
     7    1    7 1  
     8    2    8 1  
     9    2    9 1  
    10    3   10 1  
    11    3   11 1  
    12    4   12 1  
    13    5   13 1  
    14    5   14 1  
