#      Rotatable Fragment
#      Build by yxyuan
#
# Name:          frag4-384-251/150395
# Creation time: Sat Jun  5 12:53:33 2010


@<TRIPOS>MOLECULE
frag4-384-251/150395
   21    22     1     1     1
SMALL
USER_CHARGES


@<TRIPOS>ATOM
      1 N1         -0.4167   -0.8254   -1.0620 N.3        1 <1>        0.000
      2 C1          0.8304   -1.5302   -1.1520 C.3        1 <1>        0.000
      3 C2         -0.5509    0.3063   -0.2042 C.3        1 <1>        0.000
      4 C4          1.9057   -1.1668   -0.1035 C.3        1 <1>        0.000
      5 C6          0.7205    1.0431   -0.0636 C.ar       1 <1>        0.000
      6 C8          1.9543    0.3062   -0.0113 C.ar       1 <1>        0.000
      7 C9          0.7941    2.4324   -0.0361 C.ar       1 <1>        0.000
      8 C11         3.1445    1.0370    0.0394 C.ar       1 <1>        0.000
      9 C13         1.9945    3.1199    0.0123 C.ar       1 <1>        0.000
     10 C16         3.1722    2.4193    0.0533 C.ar       1 <1>        0.000
     11 H          -0.5591   -0.4478   -1.9988 H.spc      1 <1>        0.000
     12 H           1.2546   -1.2699   -2.1217 H.spc      1 <1>        0.000
     13 H           0.5947   -2.5821   -0.9902 H.spc      1 <1>        0.000
     14 H          -1.2901    0.9793   -0.6388 H.spc      1 <1>        0.000
     15 H          -0.8531   -0.0459    0.7821 H.spc      1 <1>        0.000
     16 H           1.6571   -1.6017    0.8646 H.spc      1 <1>        0.000
     17 H           2.8770   -1.5628   -0.4000 H.spc      1 <1>        0.000
     18 H          -0.1338    3.0041   -0.0534 H.spc      1 <1>        0.000
     19 H           4.0897    0.4950    0.0692 H.spc      1 <1>        0.000
     20 H           2.0034    4.2099    0.0178 H.spc      1 <1>        0.000
     21 H           4.1241    2.9485    0.0966 H.spc      1 <1>        0.000
@<TRIPOS>BOND
     1    6    8 ar 
     2    9   10 ar 
     3    5    7 ar 
     4    5    6 ar 
     5    8   10 ar 
     6    4    6 1  
     7    3    5 1  
     8    1    3 1  
     9    1    2 1  
    10    2    4 1  
    11    7    9 ar 
    12    1   11 1  
    13    2   12 1  
    14    2   13 1  
    15    3   14 1  
    16    3   15 1  
    17    4   16 1  
    18    4   17 1  
    19    7   18 1  
    20    8   19 1  
    21    9   20 1  
    22   10   21 1  
# Name:          frag4-384-251/150395
# Creation time: Sat Jun  5 12:53:33 2010


@<TRIPOS>MOLECULE
frag4-384-251/150395
   21    22     1     1     1
SMALL
USER_CHARGES


@<TRIPOS>ATOM
      1 N1         -0.4334   -0.8868   -0.3051 N.3        1 <1>        0.000
      2 C1          0.6488   -1.7930   -0.4833 C.3        1 <1>        0.000
      3 C2         -0.4548    0.4045   -0.8888 C.3        1 <1>        0.000
      4 C4          1.9904   -1.0864   -0.7493 C.3        1 <1>        0.000
      5 C6          0.7760    1.1179   -0.4813 C.ar       1 <1>        0.000
      6 C8          1.9952    0.3650   -0.3966 C.ar       1 <1>        0.000
      7 C9          0.8138    2.4514   -0.0562 C.ar       1 <1>        0.000
      8 C11         3.1309    1.0713    0.0248 C.ar       1 <1>        0.000
      9 C13         1.9561    3.0969    0.3821 C.ar       1 <1>        0.000
     10 C16         3.1255    2.4011    0.4261 C.ar       1 <1>        0.000
     11 H          -1.2141   -1.3619   -0.7582 H.spc      1 <1>        0.000
     12 H           0.4228   -2.4123   -1.3513 H.spc      1 <1>        0.000
     13 H           0.7540   -2.3683    0.4365 H.spc      1 <1>        0.000
     14 H          -0.4983    0.3236   -1.9749 H.spc      1 <1>        0.000
     15 H          -1.3343    0.9531   -0.5518 H.spc      1 <1>        0.000
     16 H           2.7404   -1.5725   -0.1253 H.spc      1 <1>        0.000
     17 H           2.1868   -1.1591   -1.8190 H.spc      1 <1>        0.000
     18 H          -0.1174    3.0177   -0.0716 H.spc      1 <1>        0.000
     19 H           4.0829    0.5406    0.0384 H.spc      1 <1>        0.000
     20 H           1.9206    4.1429    0.6865 H.spc      1 <1>        0.000
     21 H           4.0423    2.8796    0.7705 H.spc      1 <1>        0.000
@<TRIPOS>BOND
     1    6    8 ar 
     2    9   10 ar 
     3    5    7 ar 
     4    5    6 ar 
     5    8   10 ar 
     6    4    6 1  
     7    3    5 1  
     8    1    3 1  
     9    1    2 1  
    10    2    4 1  
    11    7    9 ar 
    12    1   11 1  
    13    2   12 1  
    14    2   13 1  
    15    3   14 1  
    16    3   15 1  
    17    4   16 1  
    18    4   17 1  
    19    7   18 1  
    20    8   19 1  
    21    9   20 1  
    22   10   21 1  
# Name:          frag4-384-251/150395 -- energy: -1.129084
# Creation time: Sat Jun  5 12:53:33 2010


@<TRIPOS>MOLECULE
frag4-384-251/150395 -- energy: -1.129084
   21    22     1     1     1
SMALL
USER_CHARGES


@<TRIPOS>ATOM
      1 N1         -0.4167   -0.8254   -1.0620 N.3        1 <1>        0.000
      2 C1          0.8304   -1.5302   -1.1520 C.3        1 <1>        0.000
      3 C2         -0.5509    0.3063   -0.2042 C.3        1 <1>        0.000
      4 C4          1.9057   -1.1668   -0.1035 C.3        1 <1>        0.000
      5 C6          0.7205    1.0431   -0.0636 C.ar       1 <1>        0.000
      6 C8          1.9543    0.3062   -0.0113 C.ar       1 <1>        0.000
      7 C9          0.7941    2.4324   -0.0361 C.ar       1 <1>        0.000
      8 C11         3.1445    1.0370    0.0394 C.ar       1 <1>        0.000
      9 C13         1.9945    3.1199    0.0123 C.ar       1 <1>        0.000
     10 C16         3.1722    2.4193    0.0533 C.ar       1 <1>        0.000
     11 H          -0.5591   -0.4478   -1.9988 H.spc      1 <1>        0.000
     12 H           1.2546   -1.2699   -2.1217 H.spc      1 <1>        0.000
     13 H           0.5947   -2.5821   -0.9902 H.spc      1 <1>        0.000
     14 H          -1.2901    0.9793   -0.6388 H.spc      1 <1>        0.000
     15 H          -0.8531   -0.0459    0.7821 H.spc      1 <1>        0.000
     16 H           1.6571   -1.6017    0.8646 H.spc      1 <1>        0.000
     17 H           2.8770   -1.5628   -0.4000 H.spc      1 <1>        0.000
     18 H          -0.1338    3.0041   -0.0534 H.spc      1 <1>        0.000
     19 H           4.0897    0.4950    0.0692 H.spc      1 <1>        0.000
     20 H           2.0034    4.2099    0.0178 H.spc      1 <1>        0.000
     21 H           4.1241    2.9485    0.0966 H.spc      1 <1>        0.000
@<TRIPOS>BOND
     1    6    8 ar 
     2    9   10 ar 
     3    5    7 ar 
     4    5    6 ar 
     5    8   10 ar 
     6    4    6 1  
     7    3    5 1  
     8    1    3 1  
     9    1    2 1  
    10    2    4 1  
    11    7    9 ar 
    12    1   11 1  
    13    2   12 1  
    14    2   13 1  
    15    3   14 1  
    16    3   15 1  
    17    4   16 1  
    18    4   17 1  
    19    7   18 1  
    20    8   19 1  
    21    9   20 1  
    22   10   21 1  
# Name:          frag4-384-251/150395 -- energy: -1.079197
# Creation time: Sat Jun  5 12:53:33 2010


@<TRIPOS>MOLECULE
frag4-384-251/150395 -- energy: -1.079197
   21    22     1     1     1
SMALL
USER_CHARGES


@<TRIPOS>ATOM
      1 N1         -0.4334   -0.8868   -0.3051 N.3        1 <1>        0.000
      2 C1          0.6488   -1.7930   -0.4833 C.3        1 <1>        0.000
      3 C2         -0.4548    0.4045   -0.8888 C.3        1 <1>        0.000
      4 C4          1.9904   -1.0864   -0.7493 C.3        1 <1>        0.000
      5 C6          0.7760    1.1179   -0.4813 C.ar       1 <1>        0.000
      6 C8          1.9952    0.3650   -0.3966 C.ar       1 <1>        0.000
      7 C9          0.8138    2.4514   -0.0562 C.ar       1 <1>        0.000
      8 C11         3.1309    1.0713    0.0248 C.ar       1 <1>        0.000
      9 C13         1.9561    3.0969    0.3821 C.ar       1 <1>        0.000
     10 C16         3.1255    2.4011    0.4261 C.ar       1 <1>        0.000
     11 H          -1.2141   -1.3619   -0.7582 H.spc      1 <1>        0.000
     12 H           0.4228   -2.4123   -1.3513 H.spc      1 <1>        0.000
     13 H           0.7540   -2.3683    0.4365 H.spc      1 <1>        0.000
     14 H          -0.4983    0.3236   -1.9749 H.spc      1 <1>        0.000
     15 H          -1.3343    0.9531   -0.5518 H.spc      1 <1>        0.000
     16 H           2.7404   -1.5725   -0.1253 H.spc      1 <1>        0.000
     17 H           2.1868   -1.1591   -1.8190 H.spc      1 <1>        0.000
     18 H          -0.1174    3.0177   -0.0716 H.spc      1 <1>        0.000
     19 H           4.0829    0.5406    0.0384 H.spc      1 <1>        0.000
     20 H           1.9206    4.1429    0.6865 H.spc      1 <1>        0.000
     21 H           4.0423    2.8796    0.7705 H.spc      1 <1>        0.000
@<TRIPOS>BOND
     1    6    8 ar 
     2    9   10 ar 
     3    5    7 ar 
     4    5    6 ar 
     5    8   10 ar 
     6    4    6 1  
     7    3    5 1  
     8    1    3 1  
     9    1    2 1  
    10    2    4 1  
    11    7    9 ar 
    12    1   11 1  
    13    2   12 1  
    14    2   13 1  
    15    3   14 1  
    16    3   15 1  
    17    4   16 1  
    18    4   17 1  
    19    7   18 1  
    20    8   19 1  
    21    9   20 1  
    22   10   21 1  
