#      Rotatable Fragment
#      Build by yxyuan
#
# Name:          frag3-194-6/31924
# Creation time: Sat Jun  5 12:52:11 2010


@<TRIPOS>MOLECULE
frag3-194-6/31924
    7     6     1     1     1
SMALL
USER_CHARGES


@<TRIPOS>ATOM
      1 N1          2.4610    0.6266    0.4323 N.1        1 <1>        0.000
      2 C1          1.3806    0.3285    0.1384 C.1        1 <1>        0.000
      3 C2          0.1512   -0.1720   -0.3319 C.2        1 <1>        0.000
      4 C3         -1.0663   -0.0799    0.1950 C.2        1 <1>        0.000
      5 H           0.2060   -0.7193   -1.2729 H.spc      1 <1>        0.000
      6 H          -1.2143    0.4504    1.1357 H.spc      1 <1>        0.000
      7 H          -1.9162   -0.5347   -0.3139 H.spc      1 <1>        0.000
@<TRIPOS>BOND
     1    1    2 3  
     2    3    4 2  
     3    2    3 1  
     4    3    5 1  
     5    4    6 1  
     6    4    7 1  
# Name:          frag3-194-6/31924 -- energy: -0.165958
# Creation time: Sat Jun  5 12:52:11 2010


@<TRIPOS>MOLECULE
frag3-194-6/31924 -- energy: -0.165958
    7     6     1     1     1
SMALL
USER_CHARGES


@<TRIPOS>ATOM
      1 N1          2.4610    0.6266    0.4323 N.1        1 <1>        0.000
      2 C1          1.3806    0.3285    0.1384 C.1        1 <1>        0.000
      3 C2          0.1512   -0.1720   -0.3319 C.2        1 <1>        0.000
      4 C3         -1.0663   -0.0799    0.1950 C.2        1 <1>        0.000
      5 H           0.2060   -0.7193   -1.2729 H.spc      1 <1>        0.000
      6 H          -1.2143    0.4504    1.1357 H.spc      1 <1>        0.000
      7 H          -1.9162   -0.5347   -0.3139 H.spc      1 <1>        0.000
@<TRIPOS>BOND
     1    1    2 3  
     2    3    4 2  
     3    2    3 1  
     4    3    5 1  
     5    4    6 1  
     6    4    7 1  
