#      Rotatable Fragment
#      Build by yxyuan
#
# Name:          frag5-527-101/41815
# Creation time: Sat Jun  5 12:52:51 2010


@<TRIPOS>MOLECULE
frag5-527-101/41815
   24    25     1     1     1
SMALL
USER_CHARGES


@<TRIPOS>ATOM
      1 N1          8.0806    6.1229   -4.4172 N.4        1 <1>        0.000
      2 C1          8.9855    5.1271   -3.8001 C.3        1 <1>        0.000
      3 C2         10.2838    4.8187   -4.5248 C.ar       1 <1>        0.000
      4 C3         10.4396    5.1381   -5.8990 C.ar       1 <1>        0.000
      5 C4         11.6470    4.8419   -6.5234 C.ar       1 <1>        0.000
      6 C5         12.7123    4.2396   -5.8519 C.ar       1 <1>        0.000
      7 C6         12.5575    3.9174   -4.4826 C.ar       1 <1>        0.000
      8 C7         11.3460    4.2153   -3.8570 C.ar       1 <1>        0.000
      9 O1         13.6046    3.3219   -3.8138 O.3        1 <1>        0.000
     10 O2         13.9087    3.9487   -6.4710 O.3        1 <1>        0.000
     11 C10         9.3188    5.8061   -6.6638 C.3        1 <1>        0.000
     12 C11         8.7119    6.7418   -5.6027 C.3        1 <1>        0.000
     13 H           7.2236    5.6528   -4.7085 H.spc      1 <1>        0.000
     14 H           7.8787    6.8523   -3.7334 H.spc      1 <1>        0.000
     15 H           9.2783    5.5512   -2.8396 H.spc      1 <1>        0.000
     16 H           8.4270    4.1911   -3.7860 H.spc      1 <1>        0.000
     17 H          11.7658    5.0898   -7.5782 H.spc      1 <1>        0.000
     18 H          11.2266    3.9654   -2.8028 H.spc      1 <1>        0.000
     19 H          13.3521    3.1654   -2.9009 H.spc      1 <1>        0.000
     20 H          13.8666    4.2216   -7.3904 H.spc      1 <1>        0.000
     21 H           9.6610    6.3322   -7.5550 H.spc      1 <1>        0.000
     22 H           8.5985    5.0989   -7.0751 H.spc      1 <1>        0.000
     23 H           7.9111    7.2782   -6.1118 H.spc      1 <1>        0.000
     24 H           9.5482    7.3241   -5.2160 H.spc      1 <1>        0.000
@<TRIPOS>BOND
     1   11   12 1  
     2    6    7 ar 
     3    1   12 1  
     4    4    5 ar 
     5    7    8 ar 
     6    7    9 1  
     7    4   11 1  
     8    3    8 ar 
     9    3    4 ar 
    10    6   10 1  
    11    2    3 1  
    12    1    2 1  
    13    5    6 ar 
    14    1   13 1  
    15    1   14 1  
    16    2   15 1  
    17    2   16 1  
    18    5   17 1  
    19    8   18 1  
    20    9   19 1  
    21   10   20 1  
    22   11   21 1  
    23   11   22 1  
    24   12   23 1  
    25   12   24 1  
# Name:          frag5-527-101/41815 -- energy: -1.577411
# Creation time: Sat Jun  5 12:52:51 2010


@<TRIPOS>MOLECULE
frag5-527-101/41815 -- energy: -1.577411
   24    25     1     1     1
SMALL
USER_CHARGES


@<TRIPOS>ATOM
      1 N1          8.0806    6.1229   -4.4172 N.4        1 <1>        0.000
      2 C1          8.9855    5.1271   -3.8001 C.3        1 <1>        0.000
      3 C2         10.2838    4.8187   -4.5248 C.ar       1 <1>        0.000
      4 C3         10.4396    5.1381   -5.8990 C.ar       1 <1>        0.000
      5 C4         11.6470    4.8419   -6.5234 C.ar       1 <1>        0.000
      6 C5         12.7123    4.2396   -5.8519 C.ar       1 <1>        0.000
      7 C6         12.5575    3.9174   -4.4826 C.ar       1 <1>        0.000
      8 C7         11.3460    4.2153   -3.8570 C.ar       1 <1>        0.000
      9 O1         13.6046    3.3219   -3.8138 O.3        1 <1>        0.000
     10 O2         13.9087    3.9487   -6.4710 O.3        1 <1>        0.000
     11 C10         9.3188    5.8061   -6.6638 C.3        1 <1>        0.000
     12 C11         8.7119    6.7418   -5.6027 C.3        1 <1>        0.000
     13 H           7.2236    5.6528   -4.7085 H.spc      1 <1>        0.000
     14 H           7.8787    6.8523   -3.7334 H.spc      1 <1>        0.000
     15 H           9.2783    5.5512   -2.8396 H.spc      1 <1>        0.000
     16 H           8.4270    4.1911   -3.7860 H.spc      1 <1>        0.000
     17 H          11.7658    5.0898   -7.5782 H.spc      1 <1>        0.000
     18 H          11.2266    3.9654   -2.8028 H.spc      1 <1>        0.000
     19 H          13.3521    3.1654   -2.9009 H.spc      1 <1>        0.000
     20 H          13.8666    4.2216   -7.3904 H.spc      1 <1>        0.000
     21 H           9.6610    6.3322   -7.5550 H.spc      1 <1>        0.000
     22 H           8.5985    5.0989   -7.0751 H.spc      1 <1>        0.000
     23 H           7.9111    7.2782   -6.1118 H.spc      1 <1>        0.000
     24 H           9.5482    7.3241   -5.2160 H.spc      1 <1>        0.000
@<TRIPOS>BOND
     1   11   12 1  
     2    6    7 ar 
     3    1   12 1  
     4    4    5 ar 
     5    7    8 ar 
     6    7    9 1  
     7    4   11 1  
     8    3    8 ar 
     9    3    4 ar 
    10    6   10 1  
    11    2    3 1  
    12    1    2 1  
    13    5    6 ar 
    14    1   13 1  
    15    1   14 1  
    16    2   15 1  
    17    2   16 1  
    18    5   17 1  
    19    8   18 1  
    20    9   19 1  
    21   10   20 1  
    22   11   21 1  
    23   11   22 1  
    24   12   23 1  
    25   12   24 1  
