#      Rotatable Fragment
#      Build by yxyuan
#
# Name:          frag3-238-3/31924
# Creation time: Sat Jun  5 12:52:36 2010


@<TRIPOS>MOLECULE
frag3-238-3/31924
    9     8     1     1     1
SMALL
USER_CHARGES


@<TRIPOS>ATOM
      1 C21         1.4547   -0.0414   -0.0839 C.2        1 <1>        0.000
      2 O5          1.5813   -1.2611    0.0257 O.2        1 <1>        0.000
      3 C22         0.2251    0.7299   -0.2865 C.2        1 <1>        0.000
      4 C23        -0.9206    0.0395   -0.4610 C.2        1 <1>        0.000
      5 O6         -1.1266   -1.3051   -0.4720 O.3        1 <1>        0.000
      6 H           2.3751    0.5393   -0.0224 H.spc      1 <1>        0.000
      7 H           0.2359    1.8198   -0.2958 H.spc      1 <1>        0.000
      8 H          -1.8116    0.6480   -0.6158 H.spc      1 <1>        0.000
      9 H          -2.0581   -1.4838   -0.6203 H.spc      1 <1>        0.000
@<TRIPOS>BOND
     1    1    2 2  
     2    1    3 1  
     3    3    4 2  
     4    4    5 1  
     5    1    6 1  
     6    3    7 1  
     7    4    8 1  
     8    5    9 1  
# Name:          frag3-238-3/31924
# Creation time: Sat Jun  5 12:52:36 2010


@<TRIPOS>MOLECULE
frag3-238-3/31924
    9     8     1     1     1
SMALL
USER_CHARGES


@<TRIPOS>ATOM
      1 C21         1.1848   -0.5454    0.2161 C.2        1 <1>        0.000
      2 O5          2.3428   -0.7530   -0.1064 O.2        1 <1>        0.000
      3 C22         0.2781    0.4505   -0.3604 C.2        1 <1>        0.000
      4 C23        -0.9892    0.0920   -0.6221 C.2        1 <1>        0.000
      5 O6         -1.6027   -1.0823   -0.4047 O.3        1 <1>        0.000
      6 H           0.7826   -1.1658    1.0170 H.spc      1 <1>        0.000
      7 H           0.6251    1.4618   -0.5725 H.spc      1 <1>        0.000
      8 H          -1.6088    0.8653   -1.0762 H.spc      1 <1>        0.000
      9 H          -2.5141   -1.0256   -0.7010 H.spc      1 <1>        0.000
@<TRIPOS>BOND
     1    1    2 2  
     2    1    3 1  
     3    3    4 2  
     4    4    5 1  
     5    1    6 1  
     6    3    7 1  
     7    4    8 1  
     8    5    9 1  
# Name:          frag3-238-3/31924 -- energy: -0.272480
# Creation time: Sat Jun  5 12:52:36 2010


@<TRIPOS>MOLECULE
frag3-238-3/31924 -- energy: -0.272480
    9     8     1     1     1
SMALL
USER_CHARGES


@<TRIPOS>ATOM
      1 C21         1.4547   -0.0414   -0.0839 C.2        1 <1>        0.000
      2 O5          1.5813   -1.2611    0.0257 O.2        1 <1>        0.000
      3 C22         0.2251    0.7299   -0.2865 C.2        1 <1>        0.000
      4 C23        -0.9206    0.0395   -0.4610 C.2        1 <1>        0.000
      5 O6         -1.1266   -1.3051   -0.4720 O.3        1 <1>        0.000
      6 H           2.3751    0.5393   -0.0224 H.spc      1 <1>        0.000
      7 H           0.2359    1.8198   -0.2958 H.spc      1 <1>        0.000
      8 H          -1.8116    0.6480   -0.6158 H.spc      1 <1>        0.000
      9 H          -2.0581   -1.4838   -0.6203 H.spc      1 <1>        0.000
@<TRIPOS>BOND
     1    1    2 2  
     2    1    3 1  
     3    3    4 2  
     4    4    5 1  
     5    1    6 1  
     6    3    7 1  
     7    4    8 1  
     8    5    9 1  
# Name:          frag3-238-3/31924 -- energy: -0.375311
# Creation time: Sat Jun  5 12:52:36 2010


@<TRIPOS>MOLECULE
frag3-238-3/31924 -- energy: -0.375311
    9     8     1     1     1
SMALL
USER_CHARGES


@<TRIPOS>ATOM
      1 C21         1.1848   -0.5454    0.2161 C.2        1 <1>        0.000
      2 O5          2.3428   -0.7530   -0.1064 O.2        1 <1>        0.000
      3 C22         0.2781    0.4505   -0.3604 C.2        1 <1>        0.000
      4 C23        -0.9892    0.0920   -0.6221 C.2        1 <1>        0.000
      5 O6         -1.6027   -1.0823   -0.4047 O.3        1 <1>        0.000
      6 H           0.7826   -1.1658    1.0170 H.spc      1 <1>        0.000
      7 H           0.6251    1.4618   -0.5725 H.spc      1 <1>        0.000
      8 H          -1.6088    0.8653   -1.0762 H.spc      1 <1>        0.000
      9 H          -2.5141   -1.0256   -0.7010 H.spc      1 <1>        0.000
@<TRIPOS>BOND
     1    1    2 2  
     2    1    3 1  
     3    3    4 2  
     4    4    5 1  
     5    1    6 1  
     6    3    7 1  
     7    4    8 1  
     8    5    9 1  
