#      Rotatable Fragment
#      Build by yxyuan
#
# Name:          frag5-675-24/41815
# Creation time: Sat Jun  5 12:53:03 2010


@<TRIPOS>MOLECULE
frag5-675-24/41815
   20    20     1     1     1
SMALL
USER_CHARGES


@<TRIPOS>ATOM
      1 N1          4.1428    3.3198    1.2300 N.am       1 <1>        0.000
      2 C1          3.6348    4.6623    1.5205 C.3        1 <1>        0.000
      3 C2          4.6967    5.2025    2.4507 C.3        1 <1>        0.000
      4 C3          5.9802    4.5408    1.9501 C.3        1 <1>        0.000
      5 C4          5.5347    3.1414    1.6065 C.3        1 <1>        0.000
      6 C51         3.4098    2.3506    0.6696 C.2        1 <1>        0.000
      7 O13         2.4690    2.6245   -0.0620 O.2        1 <1>        0.000
      8 C52         3.6950    0.9195    0.9188 C.2        1 <1>        0.000
      9 C53         3.5971   -0.0106   -0.0385 C.2        1 <1>        0.000
     10 H           2.6362    4.6619    1.9575 H.spc      1 <1>        0.000
     11 H           3.4895    5.2723    0.6289 H.spc      1 <1>        0.000
     12 H           4.7534    6.2909    2.4325 H.spc      1 <1>        0.000
     13 H           4.4904    4.9756    3.4967 H.spc      1 <1>        0.000
     14 H           6.4188    5.0632    1.0999 H.spc      1 <1>        0.000
     15 H           6.7790    4.5578    2.6916 H.spc      1 <1>        0.000
     16 H           5.6604    2.4445    2.4351 H.spc      1 <1>        0.000
     17 H           6.1313    2.6931    0.8120 H.spc      1 <1>        0.000
     18 H           3.9962    0.6116    1.9201 H.spc      1 <1>        0.000
     19 H           3.2976    0.2747   -1.0470 H.spc      1 <1>        0.000
     20 H           3.8169   -1.0534    0.1903 H.spc      1 <1>        0.000
@<TRIPOS>BOND
     1    8    9 2  
     2    6    8 1  
     3    4    5 1  
     4    6    7 2  
     5    3    4 1  
     6    1    2 1  
     7    1    5 1  
     8    1    6 am 
     9    2    3 1  
    10    2   10 1  
    11    2   11 1  
    12    3   12 1  
    13    3   13 1  
    14    4   14 1  
    15    4   15 1  
    16    5   16 1  
    17    5   17 1  
    18    8   18 1  
    19    9   19 1  
    20    9   20 1  
# Name:          frag5-675-24/41815
# Creation time: Sat Jun  5 12:53:03 2010


@<TRIPOS>MOLECULE
frag5-675-24/41815
   20    20     1     1     1
SMALL
USER_CHARGES


@<TRIPOS>ATOM
      1 N1          4.0860    3.3005    1.0704 N.am       1 <1>        0.000
      2 C1          3.5756    4.5045    1.7266 C.3        1 <1>        0.000
      3 C2          4.7053    4.8380    2.6778 C.3        1 <1>        0.000
      4 C3          5.9547    4.3757    1.9252 C.3        1 <1>        0.000
      5 C4          5.5091    3.0867    1.2765 C.3        1 <1>        0.000
      6 C51         3.3274    2.4691    0.3489 C.2        1 <1>        0.000
      7 O13         2.3337    2.8801   -0.2370 O.2        1 <1>        0.000
      8 C52         3.6438    1.0290    0.2128 C.2        1 <1>        0.000
      9 C53         4.0245    0.2671    1.2445 C.2        1 <1>        0.000
     10 H           2.6178    4.3549    2.2250 H.spc      1 <1>        0.000
     11 H           3.3398    5.3110    1.0323 H.spc      1 <1>        0.000
     12 H           4.7387    5.8976    2.9314 H.spc      1 <1>        0.000
     13 H           4.5952    4.3479    3.6451 H.spc      1 <1>        0.000
     14 H           6.3061    5.1112    1.2016 H.spc      1 <1>        0.000
     15 H           6.8150    4.2411    2.5809 H.spc      1 <1>        0.000
     16 H           5.7206    2.2101    1.8888 H.spc      1 <1>        0.000
     17 H           6.0430    2.8727    0.3506 H.spc      1 <1>        0.000
     18 H           3.5629    0.5690   -0.7721 H.spc      1 <1>        0.000
     19 H           4.1133    0.7023    2.2399 H.spc      1 <1>        0.000
     20 H           4.2459   -0.7889    1.0897 H.spc      1 <1>        0.000
@<TRIPOS>BOND
     1    8    9 2  
     2    6    8 1  
     3    4    5 1  
     4    6    7 2  
     5    3    4 1  
     6    1    2 1  
     7    1    5 1  
     8    1    6 am 
     9    2    3 1  
    10    2   10 1  
    11    2   11 1  
    12    3   12 1  
    13    3   13 1  
    14    4   14 1  
    15    4   15 1  
    16    5   16 1  
    17    5   17 1  
    18    8   18 1  
    19    9   19 1  
    20    9   20 1  
# Name:          frag5-675-24/41815
# Creation time: Sat Jun  5 12:53:03 2010


@<TRIPOS>MOLECULE
frag5-675-24/41815
   20    20     1     1     1
SMALL
USER_CHARGES


@<TRIPOS>ATOM
      1 N1          4.1825    3.2118    1.0635 N.am       1 <1>        0.000
      2 C1          4.0988    4.6324    0.7659 C.3        1 <1>        0.000
      3 C2          4.7010    5.2647    1.9956 C.3        1 <1>        0.000
      4 C3          5.7034    4.2119    2.4857 C.3        1 <1>        0.000
      5 C4          5.4553    2.9435    1.6974 C.3        1 <1>        0.000
      6 C51         3.1665    2.3521    0.8655 C.2        1 <1>        0.000
      7 O13         1.9998    2.7300    0.9198 O.2        1 <1>        0.000
      8 C52         3.3942    0.9219    0.5656 C.2        1 <1>        0.000
      9 C53         4.4586    0.4823   -0.1135 C.2        1 <1>        0.000
     10 H           3.0797    4.9668    0.5715 H.spc      1 <1>        0.000
     11 H           4.6199    4.9061   -0.1515 H.spc      1 <1>        0.000
     12 H           5.1731    6.2240    1.7834 H.spc      1 <1>        0.000
     13 H           3.9519    5.5104    2.7483 H.spc      1 <1>        0.000
     14 H           6.7253    4.5600    2.3350 H.spc      1 <1>        0.000
     15 H           5.5724    4.0290    3.5522 H.spc      1 <1>        0.000
     16 H           5.4416    2.0494    2.3207 H.spc      1 <1>        0.000
     17 H           6.2491    2.7222    0.9840 H.spc      1 <1>        0.000
     18 H           2.6616    0.1938    0.9138 H.spc      1 <1>        0.000
     19 H           5.2060    1.1896   -0.4728 H.spc      1 <1>        0.000
     20 H           4.5790   -0.5835   -0.3079 H.spc      1 <1>        0.000
@<TRIPOS>BOND
     1    8    9 2  
     2    6    8 1  
     3    4    5 1  
     4    6    7 2  
     5    3    4 1  
     6    1    2 1  
     7    1    5 1  
     8    1    6 am 
     9    2    3 1  
    10    2   10 1  
    11    2   11 1  
    12    3   12 1  
    13    3   13 1  
    14    4   14 1  
    15    4   15 1  
    16    5   16 1  
    17    5   17 1  
    18    8   18 1  
    19    9   19 1  
    20    9   20 1  
# Name:          frag5-675-24/41815
# Creation time: Sat Jun  5 12:53:03 2010


@<TRIPOS>MOLECULE
frag5-675-24/41815
   20    20     1     1     1
SMALL
USER_CHARGES


@<TRIPOS>ATOM
      1 N1          3.8885    3.2839    1.5105 N.am       1 <1>        0.000
      2 C1          5.0111    3.0311    2.3848 C.3        1 <1>        0.000
      3 C2          6.0118    4.0714    1.9442 C.3        1 <1>        0.000
      4 C3          5.1326    5.2309    1.4562 C.3        1 <1>        0.000
      5 C4          3.7051    4.7237    1.3857 C.3        1 <1>        0.000
      6 C51         3.1979    2.3284    0.8619 C.2        1 <1>        0.000
      7 O13         2.0848    2.5595    0.4068 O.2        1 <1>        0.000
      8 C52         3.7250    0.9530    0.6919 C.2        1 <1>        0.000
      9 C53         4.4033    0.5689   -0.3962 C.2        1 <1>        0.000
     10 H           5.3920    2.0129    2.3059 H.spc      1 <1>        0.000
     11 H           4.7542    3.1073    3.4413 H.spc      1 <1>        0.000
     12 H           6.6866    4.3682    2.7471 H.spc      1 <1>        0.000
     13 H           6.6841    3.7025    1.1697 H.spc      1 <1>        0.000
     14 H           5.2030    6.0763    2.1406 H.spc      1 <1>        0.000
     15 H           5.4638    5.5735    0.4759 H.spc      1 <1>        0.000
     16 H           3.1881    5.0153    0.4715 H.spc      1 <1>        0.000
     17 H           3.0589    5.1448    2.1559 H.spc      1 <1>        0.000
     18 H           3.5532    0.2253    1.4850 H.spc      1 <1>        0.000
     19 H           4.5875    1.2789   -1.2025 H.spc      1 <1>        0.000
     20 H           4.7715   -0.4539   -0.4760 H.spc      1 <1>        0.000
@<TRIPOS>BOND
     1    8    9 2  
     2    6    8 1  
     3    4    5 1  
     4    6    7 2  
     5    3    4 1  
     6    1    2 1  
     7    1    5 1  
     8    1    6 am 
     9    2    3 1  
    10    2   10 1  
    11    2   11 1  
    12    3   12 1  
    13    3   13 1  
    14    4   14 1  
    15    4   15 1  
    16    5   16 1  
    17    5   17 1  
    18    8   18 1  
    19    9   19 1  
    20    9   20 1  
# Name:          frag5-675-24/41815
# Creation time: Sat Jun  5 12:53:03 2010


@<TRIPOS>MOLECULE
frag5-675-24/41815
   20    20     1     1     1
SMALL
USER_CHARGES


@<TRIPOS>ATOM
      1 N1          4.3171    3.3416    0.9711 N.am       1 <1>        0.000
      2 C1          5.6499    3.2084    1.5166 C.3        1 <1>        0.000
      3 C2          5.6918    4.2830    2.5732 C.3        1 <1>        0.000
      4 C3          4.4917    5.1995    2.3380 C.3        1 <1>        0.000
      5 C4          3.9393    4.7414    1.0228 C.3        1 <1>        0.000
      6 C51         3.4403    2.3828    0.6162 C.2        1 <1>        0.000
      7 O13         2.2339    2.5483    0.7573 O.2        1 <1>        0.000
      8 C52         3.8979    1.1212    0.0038 C.2        1 <1>        0.000
      9 C53         3.4981   -0.0754    0.4467 C.2        1 <1>        0.000
     10 H           6.4288    3.3258    0.7631 H.spc      1 <1>        0.000
     11 H           5.8452    2.2137    1.9173 H.spc      1 <1>        0.000
     12 H           5.6475    3.8424    3.5692 H.spc      1 <1>        0.000
     13 H           6.6224    4.8469    2.5089 H.spc      1 <1>        0.000
     14 H           3.7572    5.1332    3.1406 H.spc      1 <1>        0.000
     15 H           4.7721    6.2527    2.3244 H.spc      1 <1>        0.000
     16 H           4.3309    5.3130    0.1813 H.spc      1 <1>        0.000
     17 H           2.8620    4.8882    0.9463 H.spc      1 <1>        0.000
     18 H           4.5866    1.1661   -0.8399 H.spc      1 <1>        0.000
     19 H           2.8097   -0.1426    1.2892 H.spc      1 <1>        0.000
     20 H           3.8605   -0.9837   -0.0347 H.spc      1 <1>        0.000
@<TRIPOS>BOND
     1    8    9 2  
     2    6    8 1  
     3    4    5 1  
     4    6    7 2  
     5    3    4 1  
     6    1    2 1  
     7    1    5 1  
     8    1    6 am 
     9    2    3 1  
    10    2   10 1  
    11    2   11 1  
    12    3   12 1  
    13    3   13 1  
    14    4   14 1  
    15    4   15 1  
    16    5   16 1  
    17    5   17 1  
    18    8   18 1  
    19    9   19 1  
    20    9   20 1  
# Name:          frag5-675-24/41815 -- energy: -2.126751
# Creation time: Sat Jun  5 12:53:03 2010


@<TRIPOS>MOLECULE
frag5-675-24/41815 -- energy: -2.126751
   20    20     1     1     1
SMALL
USER_CHARGES


@<TRIPOS>ATOM
      1 N1          4.1428    3.3198    1.2300 N.am       1 <1>        0.000
      2 C1          3.6348    4.6623    1.5205 C.3        1 <1>        0.000
      3 C2          4.6967    5.2025    2.4507 C.3        1 <1>        0.000
      4 C3          5.9802    4.5408    1.9501 C.3        1 <1>        0.000
      5 C4          5.5347    3.1414    1.6065 C.3        1 <1>        0.000
      6 C51         3.4098    2.3506    0.6696 C.2        1 <1>        0.000
      7 O13         2.4690    2.6245   -0.0620 O.2        1 <1>        0.000
      8 C52         3.6950    0.9195    0.9188 C.2        1 <1>        0.000
      9 C53         3.5971   -0.0106   -0.0385 C.2        1 <1>        0.000
     10 H           2.6362    4.6619    1.9575 H.spc      1 <1>        0.000
     11 H           3.4895    5.2723    0.6289 H.spc      1 <1>        0.000
     12 H           4.7534    6.2909    2.4325 H.spc      1 <1>        0.000
     13 H           4.4904    4.9756    3.4967 H.spc      1 <1>        0.000
     14 H           6.4188    5.0632    1.0999 H.spc      1 <1>        0.000
     15 H           6.7790    4.5578    2.6916 H.spc      1 <1>        0.000
     16 H           5.6604    2.4445    2.4351 H.spc      1 <1>        0.000
     17 H           6.1313    2.6931    0.8120 H.spc      1 <1>        0.000
     18 H           3.9962    0.6116    1.9201 H.spc      1 <1>        0.000
     19 H           3.2976    0.2747   -1.0470 H.spc      1 <1>        0.000
     20 H           3.8169   -1.0534    0.1903 H.spc      1 <1>        0.000
@<TRIPOS>BOND
     1    8    9 2  
     2    6    8 1  
     3    4    5 1  
     4    6    7 2  
     5    3    4 1  
     6    1    2 1  
     7    1    5 1  
     8    1    6 am 
     9    2    3 1  
    10    2   10 1  
    11    2   11 1  
    12    3   12 1  
    13    3   13 1  
    14    4   14 1  
    15    4   15 1  
    16    5   16 1  
    17    5   17 1  
    18    8   18 1  
    19    9   19 1  
    20    9   20 1  
# Name:          frag5-675-24/41815 -- energy: -2.372793
# Creation time: Sat Jun  5 12:53:03 2010


@<TRIPOS>MOLECULE
frag5-675-24/41815 -- energy: -2.372793
   20    20     1     1     1
SMALL
USER_CHARGES


@<TRIPOS>ATOM
      1 N1          4.0860    3.3005    1.0704 N.am       1 <1>        0.000
      2 C1          3.5756    4.5045    1.7266 C.3        1 <1>        0.000
      3 C2          4.7053    4.8380    2.6778 C.3        1 <1>        0.000
      4 C3          5.9547    4.3757    1.9252 C.3        1 <1>        0.000
      5 C4          5.5091    3.0867    1.2765 C.3        1 <1>        0.000
      6 C51         3.3274    2.4691    0.3489 C.2        1 <1>        0.000
      7 O13         2.3337    2.8801   -0.2370 O.2        1 <1>        0.000
      8 C52         3.6438    1.0290    0.2128 C.2        1 <1>        0.000
      9 C53         4.0245    0.2671    1.2445 C.2        1 <1>        0.000
     10 H           2.6178    4.3549    2.2250 H.spc      1 <1>        0.000
     11 H           3.3398    5.3110    1.0323 H.spc      1 <1>        0.000
     12 H           4.7387    5.8976    2.9314 H.spc      1 <1>        0.000
     13 H           4.5952    4.3479    3.6451 H.spc      1 <1>        0.000
     14 H           6.3061    5.1112    1.2016 H.spc      1 <1>        0.000
     15 H           6.8150    4.2411    2.5809 H.spc      1 <1>        0.000
     16 H           5.7206    2.2101    1.8888 H.spc      1 <1>        0.000
     17 H           6.0430    2.8727    0.3506 H.spc      1 <1>        0.000
     18 H           3.5629    0.5690   -0.7721 H.spc      1 <1>        0.000
     19 H           4.1133    0.7023    2.2399 H.spc      1 <1>        0.000
     20 H           4.2459   -0.7889    1.0897 H.spc      1 <1>        0.000
@<TRIPOS>BOND
     1    8    9 2  
     2    6    8 1  
     3    4    5 1  
     4    6    7 2  
     5    3    4 1  
     6    1    2 1  
     7    1    5 1  
     8    1    6 am 
     9    2    3 1  
    10    2   10 1  
    11    2   11 1  
    12    3   12 1  
    13    3   13 1  
    14    4   14 1  
    15    4   15 1  
    16    5   16 1  
    17    5   17 1  
    18    8   18 1  
    19    9   19 1  
    20    9   20 1  
# Name:          frag5-675-24/41815 -- energy: -2.385154
# Creation time: Sat Jun  5 12:53:03 2010


@<TRIPOS>MOLECULE
frag5-675-24/41815 -- energy: -2.385154
   20    20     1     1     1
SMALL
USER_CHARGES


@<TRIPOS>ATOM
      1 N1          4.1825    3.2118    1.0635 N.am       1 <1>        0.000
      2 C1          4.0988    4.6324    0.7659 C.3        1 <1>        0.000
      3 C2          4.7010    5.2647    1.9956 C.3        1 <1>        0.000
      4 C3          5.7034    4.2119    2.4857 C.3        1 <1>        0.000
      5 C4          5.4553    2.9435    1.6974 C.3        1 <1>        0.000
      6 C51         3.1665    2.3521    0.8655 C.2        1 <1>        0.000
      7 O13         1.9998    2.7300    0.9198 O.2        1 <1>        0.000
      8 C52         3.3942    0.9219    0.5656 C.2        1 <1>        0.000
      9 C53         4.4586    0.4823   -0.1135 C.2        1 <1>        0.000
     10 H           3.0797    4.9668    0.5715 H.spc      1 <1>        0.000
     11 H           4.6199    4.9061   -0.1515 H.spc      1 <1>        0.000
     12 H           5.1731    6.2240    1.7834 H.spc      1 <1>        0.000
     13 H           3.9519    5.5104    2.7483 H.spc      1 <1>        0.000
     14 H           6.7253    4.5600    2.3350 H.spc      1 <1>        0.000
     15 H           5.5724    4.0290    3.5522 H.spc      1 <1>        0.000
     16 H           5.4416    2.0494    2.3207 H.spc      1 <1>        0.000
     17 H           6.2491    2.7222    0.9840 H.spc      1 <1>        0.000
     18 H           2.6616    0.1938    0.9138 H.spc      1 <1>        0.000
     19 H           5.2060    1.1896   -0.4728 H.spc      1 <1>        0.000
     20 H           4.5790   -0.5835   -0.3079 H.spc      1 <1>        0.000
@<TRIPOS>BOND
     1    8    9 2  
     2    6    8 1  
     3    4    5 1  
     4    6    7 2  
     5    3    4 1  
     6    1    2 1  
     7    1    5 1  
     8    1    6 am 
     9    2    3 1  
    10    2   10 1  
    11    2   11 1  
    12    3   12 1  
    13    3   13 1  
    14    4   14 1  
    15    4   15 1  
    16    5   16 1  
    17    5   17 1  
    18    8   18 1  
    19    9   19 1  
    20    9   20 1  
# Name:          frag5-675-24/41815 -- energy: -2.182348
# Creation time: Sat Jun  5 12:53:03 2010


@<TRIPOS>MOLECULE
frag5-675-24/41815 -- energy: -2.182348
   20    20     1     1     1
SMALL
USER_CHARGES


@<TRIPOS>ATOM
      1 N1          3.8885    3.2839    1.5105 N.am       1 <1>        0.000
      2 C1          5.0111    3.0311    2.3848 C.3        1 <1>        0.000
      3 C2          6.0118    4.0714    1.9442 C.3        1 <1>        0.000
      4 C3          5.1326    5.2309    1.4562 C.3        1 <1>        0.000
      5 C4          3.7051    4.7237    1.3857 C.3        1 <1>        0.000
      6 C51         3.1979    2.3284    0.8619 C.2        1 <1>        0.000
      7 O13         2.0848    2.5595    0.4068 O.2        1 <1>        0.000
      8 C52         3.7250    0.9530    0.6919 C.2        1 <1>        0.000
      9 C53         4.4033    0.5689   -0.3962 C.2        1 <1>        0.000
     10 H           5.3920    2.0129    2.3059 H.spc      1 <1>        0.000
     11 H           4.7542    3.1073    3.4413 H.spc      1 <1>        0.000
     12 H           6.6866    4.3682    2.7471 H.spc      1 <1>        0.000
     13 H           6.6841    3.7025    1.1697 H.spc      1 <1>        0.000
     14 H           5.2030    6.0763    2.1406 H.spc      1 <1>        0.000
     15 H           5.4638    5.5735    0.4759 H.spc      1 <1>        0.000
     16 H           3.1881    5.0153    0.4715 H.spc      1 <1>        0.000
     17 H           3.0589    5.1448    2.1559 H.spc      1 <1>        0.000
     18 H           3.5532    0.2253    1.4850 H.spc      1 <1>        0.000
     19 H           4.5875    1.2789   -1.2025 H.spc      1 <1>        0.000
     20 H           4.7715   -0.4539   -0.4760 H.spc      1 <1>        0.000
@<TRIPOS>BOND
     1    8    9 2  
     2    6    8 1  
     3    4    5 1  
     4    6    7 2  
     5    3    4 1  
     6    1    2 1  
     7    1    5 1  
     8    1    6 am 
     9    2    3 1  
    10    2   10 1  
    11    2   11 1  
    12    3   12 1  
    13    3   13 1  
    14    4   14 1  
    15    4   15 1  
    16    5   16 1  
    17    5   17 1  
    18    8   18 1  
    19    9   19 1  
    20    9   20 1  
# Name:          frag5-675-24/41815 -- energy: -2.044721
# Creation time: Sat Jun  5 12:53:03 2010


@<TRIPOS>MOLECULE
frag5-675-24/41815 -- energy: -2.044721
   20    20     1     1     1
SMALL
USER_CHARGES


@<TRIPOS>ATOM
      1 N1          4.3171    3.3416    0.9711 N.am       1 <1>        0.000
      2 C1          5.6499    3.2084    1.5166 C.3        1 <1>        0.000
      3 C2          5.6918    4.2830    2.5732 C.3        1 <1>        0.000
      4 C3          4.4917    5.1995    2.3380 C.3        1 <1>        0.000
      5 C4          3.9393    4.7414    1.0228 C.3        1 <1>        0.000
      6 C51         3.4403    2.3828    0.6162 C.2        1 <1>        0.000
      7 O13         2.2339    2.5483    0.7573 O.2        1 <1>        0.000
      8 C52         3.8979    1.1212    0.0038 C.2        1 <1>        0.000
      9 C53         3.4981   -0.0754    0.4467 C.2        1 <1>        0.000
     10 H           6.4288    3.3258    0.7631 H.spc      1 <1>        0.000
     11 H           5.8452    2.2137    1.9173 H.spc      1 <1>        0.000
     12 H           5.6475    3.8424    3.5692 H.spc      1 <1>        0.000
     13 H           6.6224    4.8469    2.5089 H.spc      1 <1>        0.000
     14 H           3.7572    5.1332    3.1406 H.spc      1 <1>        0.000
     15 H           4.7721    6.2527    2.3244 H.spc      1 <1>        0.000
     16 H           4.3309    5.3130    0.1813 H.spc      1 <1>        0.000
     17 H           2.8620    4.8882    0.9463 H.spc      1 <1>        0.000
     18 H           4.5866    1.1661   -0.8399 H.spc      1 <1>        0.000
     19 H           2.8097   -0.1426    1.2892 H.spc      1 <1>        0.000
     20 H           3.8605   -0.9837   -0.0347 H.spc      1 <1>        0.000
@<TRIPOS>BOND
     1    8    9 2  
     2    6    8 1  
     3    4    5 1  
     4    6    7 2  
     5    3    4 1  
     6    1    2 1  
     7    1    5 1  
     8    1    6 am 
     9    2    3 1  
    10    2   10 1  
    11    2   11 1  
    12    3   12 1  
    13    3   13 1  
    14    4   14 1  
    15    4   15 1  
    16    5   16 1  
    17    5   17 1  
    18    8   18 1  
    19    9   19 1  
    20    9   20 1  
