#      Rotatable Fragment
#      Build by yxyuan
#
# Name:          frag5-564-47/41815
# Creation time: Sat Jun  5 12:52:54 2010


@<TRIPOS>MOLECULE
frag5-564-47/41815
   12    12     1     1     1
SMALL
USER_CHARGES


@<TRIPOS>ATOM
      1 F1          0.9731    2.5519    0.1474 F          1 <1>        0.000
      2 C1          0.4859    1.2958    0.0754 C.ar       1 <1>        0.000
      3 C2          1.3529    0.2094   -0.0047 C.ar       1 <1>        0.000
      4 C3          0.8544   -1.0891   -0.0804 C.ar       1 <1>        0.000
      5 C4         -0.5274   -1.2966   -0.0738 C.ar       1 <1>        0.000
      6 C5         -1.3998   -0.2166    0.0046 C.ar       1 <1>        0.000
      7 C6         -0.8928    1.0767    0.0797 C.ar       1 <1>        0.000
      8 F2          1.6978   -2.1393   -0.1595 F          1 <1>        0.000
      9 H           2.4301    0.3762   -0.0082 H.spc      1 <1>        0.000
     10 H          -0.9236   -2.3105   -0.1304 H.spc      1 <1>        0.000
     11 H          -2.4771   -0.3828    0.0072 H.spc      1 <1>        0.000
     12 H          -1.5759    1.9238    0.1423 H.spc      1 <1>        0.000
@<TRIPOS>BOND
     1    2    3 ar 
     2    1    2 1  
     3    2    7 ar 
     4    3    4 ar 
     5    4    5 ar 
     6    4    8 1  
     7    5    6 ar 
     8    6    7 ar 
     9    3    9 1  
    10    5   10 1  
    11    6   11 1  
    12    7   12 1  
# Name:          frag5-564-47/41815 -- energy: -0.000348
# Creation time: Sat Jun  5 12:52:54 2010


@<TRIPOS>MOLECULE
frag5-564-47/41815 -- energy: -0.000348
   12    12     1     1     1
SMALL
USER_CHARGES


@<TRIPOS>ATOM
      1 F1          0.9731    2.5519    0.1474 F          1 <1>        0.000
      2 C1          0.4859    1.2958    0.0754 C.ar       1 <1>        0.000
      3 C2          1.3529    0.2094   -0.0047 C.ar       1 <1>        0.000
      4 C3          0.8544   -1.0891   -0.0804 C.ar       1 <1>        0.000
      5 C4         -0.5274   -1.2966   -0.0738 C.ar       1 <1>        0.000
      6 C5         -1.3998   -0.2166    0.0046 C.ar       1 <1>        0.000
      7 C6         -0.8928    1.0767    0.0797 C.ar       1 <1>        0.000
      8 F2          1.6978   -2.1393   -0.1595 F          1 <1>        0.000
      9 H           2.4301    0.3762   -0.0082 H.spc      1 <1>        0.000
     10 H          -0.9236   -2.3105   -0.1304 H.spc      1 <1>        0.000
     11 H          -2.4771   -0.3828    0.0072 H.spc      1 <1>        0.000
     12 H          -1.5759    1.9238    0.1423 H.spc      1 <1>        0.000
@<TRIPOS>BOND
     1    2    3 ar 
     2    1    2 1  
     3    2    7 ar 
     4    3    4 ar 
     5    4    5 ar 
     6    4    8 1  
     7    5    6 ar 
     8    6    7 ar 
     9    3    9 1  
    10    5   10 1  
    11    6   11 1  
    12    7   12 1  
