#      Rotatable Fragment
#      Build by yxyuan
#
# Name:          frag5-659-68/138278
# Creation time: Sat Jun  5 12:51:51 2010


@<TRIPOS>MOLECULE
frag5-659-68/138278
   17    17     1     1     1
SMALL
USER_CHARGES


@<TRIPOS>ATOM
      1 N2          0.4416    0.3166   -0.5948 N.am       1 <1>        0.000
      2 S1         -0.6966    1.3660   -0.2987 S.o2       1 <1>        0.000
      3 C11        -2.0068    0.2857   -0.1289 C.ar       1 <1>        0.000
      4 O4         -0.8521    2.1329   -1.5136 O.2        1 <1>        0.000
      5 O5         -0.4201    1.9609    0.9843 O.2        1 <1>        0.000
      6 C12        -3.2894    0.7820   -0.2209 C.ar       1 <1>        0.000
      7 C13        -2.0295   -1.1396    0.0172 C.ar       1 <1>        0.000
      8 C14        -4.4656    0.0825   -0.0496 C.ar       1 <1>        0.000
      9 C15        -3.1894   -1.9199    0.1638 C.ar       1 <1>        0.000
     10 C16        -4.4113   -1.2793    0.1419 C.ar       1 <1>        0.000
     11 H           0.8922    0.2974   -1.5097 H.spc      1 <1>        0.000
     12 H           0.7276   -0.3433    0.1285 H.spc      1 <1>        0.000
     13 H          -3.3844    1.8425   -0.4544 H.spc      1 <1>        0.000
     14 H          -1.0716   -1.6598    0.0144 H.spc      1 <1>        0.000
     15 H          -5.4244    0.6007   -0.0657 H.spc      1 <1>        0.000
     16 H          -3.1254   -3.0005    0.2912 H.spc      1 <1>        0.000
     17 H          -5.3304   -1.8498    0.2758 H.spc      1 <1>        0.000
@<TRIPOS>BOND
     1    9   10 ar 
     2    7    9 ar 
     3    8   10 ar 
     4    1    2 1  
     5    2    3 1  
     6    2    4 2  
     7    2    5 2  
     8    3    6 ar 
     9    3    7 ar 
    10    6    8 ar 
    11    1   11 1  
    12    1   12 1  
    13    6   13 1  
    14    7   14 1  
    15    8   15 1  
    16    9   16 1  
    17   10   17 1  
# Name:          frag5-659-68/138278
# Creation time: Sat Jun  5 12:51:51 2010


@<TRIPOS>MOLECULE
frag5-659-68/138278
   17    17     1     1     1
SMALL
USER_CHARGES


@<TRIPOS>ATOM
      1 N2          0.4091    0.4233    0.1956 N.am       1 <1>        0.000
      2 S1         -0.7147    1.3582   -0.4046 S.o2       1 <1>        0.000
      3 C11        -2.0567    0.3180   -0.2434 C.ar       1 <1>        0.000
      4 O4         -0.4012    1.5500   -1.7945 O.2        1 <1>        0.000
      5 O5         -0.8187    2.4423    0.5493 O.2        1 <1>        0.000
      6 C12        -3.1432    0.6824    0.5398 C.ar       1 <1>        0.000
      7 C13        -2.1493   -1.0549   -0.6154 C.ar       1 <1>        0.000
      8 C14        -4.3251   -0.0204    0.6683 C.ar       1 <1>        0.000
      9 C15        -3.3156   -1.8244   -0.5267 C.ar       1 <1>        0.000
     10 C16        -4.4039   -1.2869    0.1321 C.ar       1 <1>        0.000
     11 H           1.1642    0.0858   -0.4013 H.spc      1 <1>        0.000
     12 H           0.3793    0.1574    1.1799 H.spc      1 <1>        0.000
     13 H          -3.0554    1.6096    1.1061 H.spc      1 <1>        0.000
     14 H          -1.2497   -1.5393   -0.9953 H.spc      1 <1>        0.000
     15 H          -5.1791    0.4186    1.1841 H.spc      1 <1>        0.000
     16 H          -3.3634   -2.8209   -0.9658 H.spc      1 <1>        0.000
     17 H          -5.3237   -1.8639    0.2276 H.spc      1 <1>        0.000
@<TRIPOS>BOND
     1    9   10 ar 
     2    7    9 ar 
     3    8   10 ar 
     4    1    2 1  
     5    2    3 1  
     6    2    4 2  
     7    2    5 2  
     8    3    6 ar 
     9    3    7 ar 
    10    6    8 ar 
    11    1   11 1  
    12    1   12 1  
    13    6   13 1  
    14    7   14 1  
    15    8   15 1  
    16    9   16 1  
    17   10   17 1  
# Name:          frag5-659-68/138278 -- energy: -0.875276
# Creation time: Sat Jun  5 12:51:51 2010


@<TRIPOS>MOLECULE
frag5-659-68/138278 -- energy: -0.875276
   17    17     1     1     1
SMALL
USER_CHARGES


@<TRIPOS>ATOM
      1 N2          0.4416    0.3166   -0.5948 N.am       1 <1>        0.000
      2 S1         -0.6966    1.3660   -0.2987 S.o2       1 <1>        0.000
      3 C11        -2.0068    0.2857   -0.1289 C.ar       1 <1>        0.000
      4 O4         -0.8521    2.1329   -1.5136 O.2        1 <1>        0.000
      5 O5         -0.4201    1.9609    0.9843 O.2        1 <1>        0.000
      6 C12        -3.2894    0.7820   -0.2209 C.ar       1 <1>        0.000
      7 C13        -2.0295   -1.1396    0.0172 C.ar       1 <1>        0.000
      8 C14        -4.4656    0.0825   -0.0496 C.ar       1 <1>        0.000
      9 C15        -3.1894   -1.9199    0.1638 C.ar       1 <1>        0.000
     10 C16        -4.4113   -1.2793    0.1419 C.ar       1 <1>        0.000
     11 H           0.8922    0.2974   -1.5097 H.spc      1 <1>        0.000
     12 H           0.7276   -0.3433    0.1285 H.spc      1 <1>        0.000
     13 H          -3.3844    1.8425   -0.4544 H.spc      1 <1>        0.000
     14 H          -1.0716   -1.6598    0.0144 H.spc      1 <1>        0.000
     15 H          -5.4244    0.6007   -0.0657 H.spc      1 <1>        0.000
     16 H          -3.1254   -3.0005    0.2912 H.spc      1 <1>        0.000
     17 H          -5.3304   -1.8498    0.2758 H.spc      1 <1>        0.000
@<TRIPOS>BOND
     1    9   10 ar 
     2    7    9 ar 
     3    8   10 ar 
     4    1    2 1  
     5    2    3 1  
     6    2    4 2  
     7    2    5 2  
     8    3    6 ar 
     9    3    7 ar 
    10    6    8 ar 
    11    1   11 1  
    12    1   12 1  
    13    6   13 1  
    14    7   14 1  
    15    8   15 1  
    16    9   16 1  
    17   10   17 1  
# Name:          frag5-659-68/138278 -- energy: -0.835570
# Creation time: Sat Jun  5 12:51:51 2010


@<TRIPOS>MOLECULE
frag5-659-68/138278 -- energy: -0.835570
   17    17     1     1     1
SMALL
USER_CHARGES


@<TRIPOS>ATOM
      1 N2          0.4091    0.4233    0.1956 N.am       1 <1>        0.000
      2 S1         -0.7147    1.3582   -0.4046 S.o2       1 <1>        0.000
      3 C11        -2.0567    0.3180   -0.2434 C.ar       1 <1>        0.000
      4 O4         -0.4012    1.5500   -1.7945 O.2        1 <1>        0.000
      5 O5         -0.8187    2.4423    0.5493 O.2        1 <1>        0.000
      6 C12        -3.1432    0.6824    0.5398 C.ar       1 <1>        0.000
      7 C13        -2.1493   -1.0549   -0.6154 C.ar       1 <1>        0.000
      8 C14        -4.3251   -0.0204    0.6683 C.ar       1 <1>        0.000
      9 C15        -3.3156   -1.8244   -0.5267 C.ar       1 <1>        0.000
     10 C16        -4.4039   -1.2869    0.1321 C.ar       1 <1>        0.000
     11 H           1.1642    0.0858   -0.4013 H.spc      1 <1>        0.000
     12 H           0.3793    0.1574    1.1799 H.spc      1 <1>        0.000
     13 H          -3.0554    1.6096    1.1061 H.spc      1 <1>        0.000
     14 H          -1.2497   -1.5393   -0.9953 H.spc      1 <1>        0.000
     15 H          -5.1791    0.4186    1.1841 H.spc      1 <1>        0.000
     16 H          -3.3634   -2.8209   -0.9658 H.spc      1 <1>        0.000
     17 H          -5.3237   -1.8639    0.2276 H.spc      1 <1>        0.000
@<TRIPOS>BOND
     1    9   10 ar 
     2    7    9 ar 
     3    8   10 ar 
     4    1    2 1  
     5    2    3 1  
     6    2    4 2  
     7    2    5 2  
     8    3    6 ar 
     9    3    7 ar 
    10    6    8 ar 
    11    1   11 1  
    12    1   12 1  
    13    6   13 1  
    14    7   14 1  
    15    8   15 1  
    16    9   16 1  
    17   10   17 1  
