#      Rotatable Fragment
#      Build by yxyuan
#
# Name:          frag4-327-232/48856
# Creation time: Sat Jun  5 12:52:49 2010


@<TRIPOS>MOLECULE
frag4-327-232/48856
   43    46     1     1     1
SMALL
USER_CHARGES


@<TRIPOS>ATOM
      1 C1          0.8049   -0.4997   -1.5526 C.3        1 <1>        0.000
      2 C2         -0.5421    0.0760   -2.0225 C.3        1 <1>        0.000
      3 C3         -1.5406    0.0759   -0.8609 C.3        1 <1>        0.000
      4 C4         -2.9095    0.7243   -1.0925 C.3        1 <1>        0.000
      5 C5         -3.4259    1.0151    0.3326 C.3        1 <1>        0.000
      6 C6         -2.1957    0.9277    1.2655 C.3        1 <1>        0.000
      7 C7         -0.9885    0.8958    0.3150 C.3        1 <1>        0.000
      8 C16         2.7376   -0.3945    0.1898 C.3        1 <1>        0.000
      9 C8          0.3358    0.3016    0.8333 C.3        1 <1>        0.000
     10 C9          0.8935    1.1107    2.0156 C.3        1 <1>        0.000
     11 C10         2.1616    0.4554    2.5684 C.3        1 <1>        0.000
     12 C11         3.2027    0.2255    1.5014 C.2        1 <1>        0.000
     13 C12         4.4995    0.5118    1.7484 C.2        1 <1>        0.000
     14 C13         5.5644    0.1958    0.7864 C.3        1 <1>        0.000
     15 C14         5.2398   -0.6621   -0.4002 C.3        1 <1>        0.000
     16 C15         3.8378   -0.3007   -0.8997 C.3        1 <1>        0.000
     17 C17         1.3916    0.2242   -0.3067 C.3        1 <1>        0.000
     18 H           1.5164   -0.3738   -2.3687 H.spc      1 <1>        0.000
     19 H           0.6367   -1.5406   -1.2765 H.spc      1 <1>        0.000
     20 H          -0.3950    1.0983   -2.3709 H.spc      1 <1>        0.000
     21 H          -0.9331   -0.5383   -2.8336 H.spc      1 <1>        0.000
     22 H          -1.6724   -0.9941   -0.6999 H.spc      1 <1>        0.000
     23 H          -2.8437    1.6258   -1.7017 H.spc      1 <1>        0.000
     24 H          -3.5844    0.0787   -1.6545 H.spc      1 <1>        0.000
     25 H          -4.1925    0.2979    0.6260 H.spc      1 <1>        0.000
     26 H          -3.8911    1.9993    0.3880 H.spc      1 <1>        0.000
     27 H          -2.1479    1.7696    1.9562 H.spc      1 <1>        0.000
     28 H          -2.2326    0.0469    1.9065 H.spc      1 <1>        0.000
     29 H          -0.6647    1.9142    0.1004 H.spc      1 <1>        0.000
     30 H           2.5504   -1.4505    0.3845 H.spc      1 <1>        0.000
     31 H           0.1225   -0.7079    1.1846 H.spc      1 <1>        0.000
     32 H           1.1373    2.1158    1.6713 H.spc      1 <1>        0.000
     33 H           0.1421    1.1459    2.8045 H.spc      1 <1>        0.000
     34 H           2.5877    1.1238    3.3166 H.spc      1 <1>        0.000
     35 H           1.8862   -0.5135    2.9849 H.spc      1 <1>        0.000
     36 H           4.7642    0.9921    2.6904 H.spc      1 <1>        0.000
     37 H           5.8580    1.1577    0.3660 H.spc      1 <1>        0.000
     38 H           6.2966   -0.3770    1.3556 H.spc      1 <1>        0.000
     39 H           5.9699   -0.4910   -1.1913 H.spc      1 <1>        0.000
     40 H           5.2716   -1.7139   -0.1160 H.spc      1 <1>        0.000
     41 H           3.8715    0.7351   -1.2375 H.spc      1 <1>        0.000
     42 H           3.5794   -1.0134   -1.6829 H.spc      1 <1>        0.000
     43 H           1.6347    1.2397   -0.6192 H.spc      1 <1>        0.000
@<TRIPOS>BOND
     1    2    3 1  
     2    4    5 1  
     3    1    2 1  
     4    3    7 1  
     5    1   17 1  
     6    3    4 1  
     7    8   17 1  
     8   16    8 1  
     9   15   16 1  
    10   14   15 1  
    11   13   14 1  
    12   12    8 1  
    13   12   13 2  
    14   11   12 1  
    15   10   11 1  
    16    9   17 1  
    17    9   10 1  
    18    7    9 1  
    19    6    7 1  
    20    5    6 1  
    21    1   18 1  
    22    1   19 1  
    23    2   20 1  
    24    2   21 1  
    25    3   22 1  
    26    4   23 1  
    27    4   24 1  
    28    5   25 1  
    29    5   26 1  
    30    6   27 1  
    31    6   28 1  
    32    7   29 1  
    33    8   30 1  
    34    9   31 1  
    35   10   32 1  
    36   10   33 1  
    37   11   34 1  
    38   11   35 1  
    39   13   36 1  
    40   14   37 1  
    41   14   38 1  
    42   15   39 1  
    43   15   40 1  
    44   16   41 1  
    45   16   42 1  
    46   17   43 1  
# Name:          frag4-327-232/48856 -- energy: -7.884570
# Creation time: Sat Jun  5 12:52:49 2010


@<TRIPOS>MOLECULE
frag4-327-232/48856 -- energy: -7.884570
   43    46     1     1     1
SMALL
USER_CHARGES


@<TRIPOS>ATOM
      1 C1          0.8049   -0.4997   -1.5526 C.3        1 <1>        0.000
      2 C2         -0.5421    0.0760   -2.0225 C.3        1 <1>        0.000
      3 C3         -1.5406    0.0759   -0.8609 C.3        1 <1>        0.000
      4 C4         -2.9095    0.7243   -1.0925 C.3        1 <1>        0.000
      5 C5         -3.4259    1.0151    0.3326 C.3        1 <1>        0.000
      6 C6         -2.1957    0.9277    1.2655 C.3        1 <1>        0.000
      7 C7         -0.9885    0.8958    0.3150 C.3        1 <1>        0.000
      8 C16         2.7376   -0.3945    0.1898 C.3        1 <1>        0.000
      9 C8          0.3358    0.3016    0.8333 C.3        1 <1>        0.000
     10 C9          0.8935    1.1107    2.0156 C.3        1 <1>        0.000
     11 C10         2.1616    0.4554    2.5684 C.3        1 <1>        0.000
     12 C11         3.2027    0.2255    1.5014 C.2        1 <1>        0.000
     13 C12         4.4995    0.5118    1.7484 C.2        1 <1>        0.000
     14 C13         5.5644    0.1958    0.7864 C.3        1 <1>        0.000
     15 C14         5.2398   -0.6621   -0.4002 C.3        1 <1>        0.000
     16 C15         3.8378   -0.3007   -0.8997 C.3        1 <1>        0.000
     17 C17         1.3916    0.2242   -0.3067 C.3        1 <1>        0.000
     18 H           1.5164   -0.3738   -2.3687 H.spc      1 <1>        0.000
     19 H           0.6367   -1.5406   -1.2765 H.spc      1 <1>        0.000
     20 H          -0.3950    1.0983   -2.3709 H.spc      1 <1>        0.000
     21 H          -0.9331   -0.5383   -2.8336 H.spc      1 <1>        0.000
     22 H          -1.6724   -0.9941   -0.6999 H.spc      1 <1>        0.000
     23 H          -2.8437    1.6258   -1.7017 H.spc      1 <1>        0.000
     24 H          -3.5844    0.0787   -1.6545 H.spc      1 <1>        0.000
     25 H          -4.1925    0.2979    0.6260 H.spc      1 <1>        0.000
     26 H          -3.8911    1.9993    0.3880 H.spc      1 <1>        0.000
     27 H          -2.1479    1.7696    1.9562 H.spc      1 <1>        0.000
     28 H          -2.2326    0.0469    1.9065 H.spc      1 <1>        0.000
     29 H          -0.6647    1.9142    0.1004 H.spc      1 <1>        0.000
     30 H           2.5504   -1.4505    0.3845 H.spc      1 <1>        0.000
     31 H           0.1225   -0.7079    1.1846 H.spc      1 <1>        0.000
     32 H           1.1373    2.1158    1.6713 H.spc      1 <1>        0.000
     33 H           0.1421    1.1459    2.8045 H.spc      1 <1>        0.000
     34 H           2.5877    1.1238    3.3166 H.spc      1 <1>        0.000
     35 H           1.8862   -0.5135    2.9849 H.spc      1 <1>        0.000
     36 H           4.7642    0.9921    2.6904 H.spc      1 <1>        0.000
     37 H           5.8580    1.1577    0.3660 H.spc      1 <1>        0.000
     38 H           6.2966   -0.3770    1.3556 H.spc      1 <1>        0.000
     39 H           5.9699   -0.4910   -1.1913 H.spc      1 <1>        0.000
     40 H           5.2716   -1.7139   -0.1160 H.spc      1 <1>        0.000
     41 H           3.8715    0.7351   -1.2375 H.spc      1 <1>        0.000
     42 H           3.5794   -1.0134   -1.6829 H.spc      1 <1>        0.000
     43 H           1.6347    1.2397   -0.6192 H.spc      1 <1>        0.000
@<TRIPOS>BOND
     1    2    3 1  
     2    4    5 1  
     3    1    2 1  
     4    3    7 1  
     5    1   17 1  
     6    3    4 1  
     7    8   17 1  
     8   16    8 1  
     9   15   16 1  
    10   14   15 1  
    11   13   14 1  
    12   12    8 1  
    13   12   13 2  
    14   11   12 1  
    15   10   11 1  
    16    9   17 1  
    17    9   10 1  
    18    7    9 1  
    19    6    7 1  
    20    5    6 1  
    21    1   18 1  
    22    1   19 1  
    23    2   20 1  
    24    2   21 1  
    25    3   22 1  
    26    4   23 1  
    27    4   24 1  
    28    5   25 1  
    29    5   26 1  
    30    6   27 1  
    31    6   28 1  
    32    7   29 1  
    33    8   30 1  
    34    9   31 1  
    35   10   32 1  
    36   10   33 1  
    37   11   34 1  
    38   11   35 1  
    39   13   36 1  
    40   14   37 1  
    41   14   38 1  
    42   15   39 1  
    43   15   40 1  
    44   16   41 1  
    45   16   42 1  
    46   17   43 1  
