#      Rotatable Fragment
#      Build by yxyuan
#
# Name:          frag4-380-257/150395
# Creation time: Sat Jun  5 12:53:33 2010


@<TRIPOS>MOLECULE
frag4-380-257/150395
   45    48     1     1     1
SMALL
USER_CHARGES


@<TRIPOS>ATOM
      1 C1          1.7551   -0.2077   -0.3428 C.3        1 <1>        0.000
      2 C2          0.4852   -1.0010    0.0067 C.3        1 <1>        0.000
      3 C3          1.7749    1.0495    0.5571 C.3        1 <1>        0.000
      4 C4          3.1645   -0.7640   -0.0900 C.3        1 <1>        0.000
      5 C5         -0.7423   -0.2419   -0.5908 C.3        1 <1>        0.000
      6 C6          0.4694   -2.4769   -0.4323 C.3        1 <1>        0.000
      7 C7          3.0583    1.7266    0.0527 C.3        1 <1>        0.000
      8 C8          0.4188    1.8025    0.5571 C.3        1 <1>        0.000
      9 C16        -3.3592   -0.1793   -0.4475 C.3        1 <1>        0.000
     10 C10         4.0330    0.5253   -0.1097 C.3        1 <1>        0.000
     11 C11        -2.0402   -0.8459    0.0299 C.3        1 <1>        0.000
     12 C12        -0.5203    1.3134   -0.5690 C.3        1 <1>        0.000
     13 C13        -0.8120   -3.1354    0.1168 C.3        1 <1>        0.000
     14 C15        -2.0944   -2.3751   -0.3063 C.3        1 <1>        0.000
     15 C19        -3.3487   -3.0418    0.3051 C.3        1 <1>        0.000
     16 C20        -4.6083   -0.8628    0.1481 C.3        1 <1>        0.000
     17 C21        -4.6379   -2.3635   -0.1923 C.3        1 <1>        0.000
     18 H           1.6392   -0.1355   -1.4242 H.spc      1 <1>        0.000
     19 H           0.4489   -1.0538    1.0948 H.spc      1 <1>        0.000
     20 H           1.8362    0.9153    1.6371 H.spc      1 <1>        0.000
     21 H           3.4744   -1.5031   -0.8287 H.spc      1 <1>        0.000
     22 H           3.2457   -1.3235    0.8419 H.spc      1 <1>        0.000
     23 H          -0.8708   -0.3994   -1.6617 H.spc      1 <1>        0.000
     24 H           0.4851   -2.5422   -1.5202 H.spc      1 <1>        0.000
     25 H           1.3485   -2.9908   -0.0433 H.spc      1 <1>        0.000
     26 H           2.9111    2.2845   -0.8721 H.spc      1 <1>        0.000
     27 H           3.4331    2.4910    0.7334 H.spc      1 <1>        0.000
     28 H          -0.0721    1.6173    1.5125 H.spc      1 <1>        0.000
     29 H           0.6189    2.8618    0.3958 H.spc      1 <1>        0.000
     30 H          -3.3521    0.8597   -0.1180 H.spc      1 <1>        0.000
     31 H          -3.4098   -0.2677   -1.5327 H.spc      1 <1>        0.000
     32 H           4.7671    0.5103    0.6959 H.spc      1 <1>        0.000
     33 H           4.5909    0.6024   -1.0429 H.spc      1 <1>        0.000
     34 H          -1.9795   -0.6596    1.1022 H.spc      1 <1>        0.000
     35 H          -0.0557    1.5857   -1.5167 H.spc      1 <1>        0.000
     36 H          -1.4931    1.7752   -0.4003 H.spc      1 <1>        0.000
     37 H          -0.8709   -4.1465   -0.2860 H.spc      1 <1>        0.000
     38 H          -0.7570   -3.1246    1.2054 H.spc      1 <1>        0.000
     39 H          -2.1572   -2.4420   -1.3924 H.spc      1 <1>        0.000
     40 H          -3.3680   -4.0891    0.0036 H.spc      1 <1>        0.000
     41 H          -3.3006   -2.9447    1.3897 H.spc      1 <1>        0.000
     42 H          -4.5813   -0.7526    1.2322 H.spc      1 <1>        0.000
     43 H          -5.4965   -0.3929   -0.2743 H.spc      1 <1>        0.000
     44 H          -4.7128   -2.4846   -1.2730 H.spc      1 <1>        0.000
     45 H          -5.4968   -2.8249    0.2951 H.spc      1 <1>        0.000
@<TRIPOS>BOND
     1    2    5 1  
     2    1    2 1  
     3    1    4 1  
     4    1    3 1  
     5   16   17 1  
     6   15   17 1  
     7    9   16 1  
     8   14   15 1  
     9   13   14 1  
    10   11    9 1  
    11   11   14 1  
    12    8   12 1  
    13    7   10 1  
    14    6   13 1  
    15    5   12 1  
    16    5   11 1  
    17    4   10 1  
    18    3    8 1  
    19    3    7 1  
    20    2    6 1  
    21    1   18 1  
    22    2   19 1  
    23    3   20 1  
    24    4   21 1  
    25    4   22 1  
    26    5   23 1  
    27    6   24 1  
    28    6   25 1  
    29    7   26 1  
    30    7   27 1  
    31    8   28 1  
    32    8   29 1  
    33    9   30 1  
    34    9   31 1  
    35   10   32 1  
    36   10   33 1  
    37   11   34 1  
    38   12   35 1  
    39   12   36 1  
    40   13   37 1  
    41   13   38 1  
    42   14   39 1  
    43   15   40 1  
    44   15   41 1  
    45   16   42 1  
    46   16   43 1  
    47   17   44 1  
    48   17   45 1  
# Name:          frag4-380-257/150395 -- energy: -8.393570
# Creation time: Sat Jun  5 12:53:33 2010


@<TRIPOS>MOLECULE
frag4-380-257/150395 -- energy: -8.393570
   45    48     1     1     1
SMALL
USER_CHARGES


@<TRIPOS>ATOM
      1 C1          1.7551   -0.2077   -0.3428 C.3        1 <1>        0.000
      2 C2          0.4852   -1.0010    0.0067 C.3        1 <1>        0.000
      3 C3          1.7749    1.0495    0.5571 C.3        1 <1>        0.000
      4 C4          3.1645   -0.7640   -0.0900 C.3        1 <1>        0.000
      5 C5         -0.7423   -0.2419   -0.5908 C.3        1 <1>        0.000
      6 C6          0.4694   -2.4769   -0.4323 C.3        1 <1>        0.000
      7 C7          3.0583    1.7266    0.0527 C.3        1 <1>        0.000
      8 C8          0.4188    1.8025    0.5571 C.3        1 <1>        0.000
      9 C16        -3.3592   -0.1793   -0.4475 C.3        1 <1>        0.000
     10 C10         4.0330    0.5253   -0.1097 C.3        1 <1>        0.000
     11 C11        -2.0402   -0.8459    0.0299 C.3        1 <1>        0.000
     12 C12        -0.5203    1.3134   -0.5690 C.3        1 <1>        0.000
     13 C13        -0.8120   -3.1354    0.1168 C.3        1 <1>        0.000
     14 C15        -2.0944   -2.3751   -0.3063 C.3        1 <1>        0.000
     15 C19        -3.3487   -3.0418    0.3051 C.3        1 <1>        0.000
     16 C20        -4.6083   -0.8628    0.1481 C.3        1 <1>        0.000
     17 C21        -4.6379   -2.3635   -0.1923 C.3        1 <1>        0.000
     18 H           1.6392   -0.1355   -1.4242 H.spc      1 <1>        0.000
     19 H           0.4489   -1.0538    1.0948 H.spc      1 <1>        0.000
     20 H           1.8362    0.9153    1.6371 H.spc      1 <1>        0.000
     21 H           3.4744   -1.5031   -0.8287 H.spc      1 <1>        0.000
     22 H           3.2457   -1.3235    0.8419 H.spc      1 <1>        0.000
     23 H          -0.8708   -0.3994   -1.6617 H.spc      1 <1>        0.000
     24 H           0.4851   -2.5422   -1.5202 H.spc      1 <1>        0.000
     25 H           1.3485   -2.9908   -0.0433 H.spc      1 <1>        0.000
     26 H           2.9111    2.2845   -0.8721 H.spc      1 <1>        0.000
     27 H           3.4331    2.4910    0.7334 H.spc      1 <1>        0.000
     28 H          -0.0721    1.6173    1.5125 H.spc      1 <1>        0.000
     29 H           0.6189    2.8618    0.3958 H.spc      1 <1>        0.000
     30 H          -3.3521    0.8597   -0.1180 H.spc      1 <1>        0.000
     31 H          -3.4098   -0.2677   -1.5327 H.spc      1 <1>        0.000
     32 H           4.7671    0.5103    0.6959 H.spc      1 <1>        0.000
     33 H           4.5909    0.6024   -1.0429 H.spc      1 <1>        0.000
     34 H          -1.9795   -0.6596    1.1022 H.spc      1 <1>        0.000
     35 H          -0.0557    1.5857   -1.5167 H.spc      1 <1>        0.000
     36 H          -1.4931    1.7752   -0.4003 H.spc      1 <1>        0.000
     37 H          -0.8709   -4.1465   -0.2860 H.spc      1 <1>        0.000
     38 H          -0.7570   -3.1246    1.2054 H.spc      1 <1>        0.000
     39 H          -2.1572   -2.4420   -1.3924 H.spc      1 <1>        0.000
     40 H          -3.3680   -4.0891    0.0036 H.spc      1 <1>        0.000
     41 H          -3.3006   -2.9447    1.3897 H.spc      1 <1>        0.000
     42 H          -4.5813   -0.7526    1.2322 H.spc      1 <1>        0.000
     43 H          -5.4965   -0.3929   -0.2743 H.spc      1 <1>        0.000
     44 H          -4.7128   -2.4846   -1.2730 H.spc      1 <1>        0.000
     45 H          -5.4968   -2.8249    0.2951 H.spc      1 <1>        0.000
@<TRIPOS>BOND
     1    2    5 1  
     2    1    2 1  
     3    1    4 1  
     4    1    3 1  
     5   16   17 1  
     6   15   17 1  
     7    9   16 1  
     8   14   15 1  
     9   13   14 1  
    10   11    9 1  
    11   11   14 1  
    12    8   12 1  
    13    7   10 1  
    14    6   13 1  
    15    5   12 1  
    16    5   11 1  
    17    4   10 1  
    18    3    8 1  
    19    3    7 1  
    20    2    6 1  
    21    1   18 1  
    22    2   19 1  
    23    3   20 1  
    24    4   21 1  
    25    4   22 1  
    26    5   23 1  
    27    6   24 1  
    28    6   25 1  
    29    7   26 1  
    30    7   27 1  
    31    8   28 1  
    32    8   29 1  
    33    9   30 1  
    34    9   31 1  
    35   10   32 1  
    36   10   33 1  
    37   11   34 1  
    38   12   35 1  
    39   12   36 1  
    40   13   37 1  
    41   13   38 1  
    42   14   39 1  
    43   15   40 1  
    44   15   41 1  
    45   16   42 1  
    46   16   43 1  
    47   17   44 1  
    48   17   45 1  
