#      Rotatable Fragment
#      Build by yxyuan
#
# Name:          frag3-254-4/96164
# Creation time: Sat Jun  5 12:53:21 2010


@<TRIPOS>MOLECULE
frag3-254-4/96164
   12    11     1     1     1
SMALL
USER_CHARGES


@<TRIPOS>ATOM
      1 C1          0.3759    0.1483   -0.5566 C.2        1 <1>        0.000
      2 C3         -0.4543    0.3539    0.4706 C.2        1 <1>        0.000
      3 C4          1.7927    0.5040   -0.4265 C.2        1 <1>        0.000
      4 C6         -1.8579    0.0077    0.2818 C.2        1 <1>        0.000
      5 O1          2.2871    1.0550   -1.5397 O.3        1 <1>        0.000
      6 O2          2.4528    0.3245    0.5704 O.2        1 <1>        0.000
      7 O3         -2.1256   -0.9141   -0.6515 O.3        1 <1>        0.000
      8 O4         -2.7389    0.5421    0.9202 O.2        1 <1>        0.000
      9 H           0.0019   -0.2814   -1.4859 H.spc      1 <1>        0.000
     10 H          -0.0954    0.7650    1.4141 H.spc      1 <1>        0.000
     11 H           1.5968    1.1037   -2.2051 H.spc      1 <1>        0.000
     12 H          -1.3041   -1.2179   -1.0445 H.spc      1 <1>        0.000
@<TRIPOS>BOND
     1    1    2 2  
     2    1    3 1  
     3    2    4 1  
     4    3    5 1  
     5    3    6 2  
     6    4    7 1  
     7    4    8 2  
     8    1    9 1  
     9    2   10 1  
    10    5   11 1  
    11    7   12 1  
# Name:          frag3-254-4/96164
# Creation time: Sat Jun  5 12:53:21 2010


@<TRIPOS>MOLECULE
frag3-254-4/96164
   12    11     1     1     1
SMALL
USER_CHARGES


@<TRIPOS>ATOM
      1 C1         -0.5103    0.4796    0.2917 C.2        1 <1>        0.000
      2 C3          0.4132    0.1320   -0.6097 C.2        1 <1>        0.000
      3 C4         -1.9041    0.0441    0.2219 C.2        1 <1>        0.000
      4 C6          1.8185    0.5260   -0.5174 C.2        1 <1>        0.000
      5 O1         -2.0593   -1.2390   -0.1348 O.3        1 <1>        0.000
      6 O2         -2.8103    0.7625    0.5859 O.2        1 <1>        0.000
      7 O3          2.2401    0.8194    0.7198 O.3        1 <1>        0.000
      8 O4          2.5440    0.4968   -1.4886 O.2        1 <1>        0.000
      9 H          -0.2091    1.1201    1.1207 H.spc      1 <1>        0.000
     10 H           0.1026   -0.4773   -1.4584 H.spc      1 <1>        0.000
     11 H          -1.2081   -1.6056   -0.3849 H.spc      1 <1>        0.000
     12 H           1.4974    0.7826    1.3269 H.spc      1 <1>        0.000
@<TRIPOS>BOND
     1    1    2 2  
     2    1    3 1  
     3    2    4 1  
     4    3    5 1  
     5    3    6 2  
     6    4    7 1  
     7    4    8 2  
     8    1    9 1  
     9    2   10 1  
    10    5   11 1  
    11    7   12 1  
# Name:          frag3-254-4/96164
# Creation time: Sat Jun  5 12:53:21 2010


@<TRIPOS>MOLECULE
frag3-254-4/96164
   12    11     1     1     1
SMALL
USER_CHARGES


@<TRIPOS>ATOM
      1 C1         -0.5917    0.6303   -0.1252 C.2        1 <1>        0.000
      2 C3          0.5078   -0.1281   -0.1928 C.2        1 <1>        0.000
      3 C4         -1.9249    0.0887    0.1269 C.2        1 <1>        0.000
      4 C6          1.8493    0.4154   -0.3952 C.2        1 <1>        0.000
      5 O1         -1.9753   -1.2494    0.1684 O.3        1 <1>        0.000
      6 O2         -2.8610    0.8125    0.3985 O.2        1 <1>        0.000
      7 O3          1.8900    1.7174   -0.7029 O.3        1 <1>        0.000
      8 O4          2.8374   -0.2654   -0.2090 O.2        1 <1>        0.000
      9 H          -0.4879    1.7063   -0.2652 H.spc      1 <1>        0.000
     10 H           0.3977   -1.2078   -0.0917 H.spc      1 <1>        0.000
     11 H          -1.1219   -1.6087   -0.0851 H.spc      1 <1>        0.000
     12 H           0.9949    2.0493   -0.8040 H.spc      1 <1>        0.000
@<TRIPOS>BOND
     1    1    2 2  
     2    1    3 1  
     3    2    4 1  
     4    3    5 1  
     5    3    6 2  
     6    4    7 1  
     7    4    8 2  
     8    1    9 1  
     9    2   10 1  
    10    5   11 1  
    11    7   12 1  
# Name:          frag3-254-4/96164
# Creation time: Sat Jun  5 12:53:21 2010


@<TRIPOS>MOLECULE
frag3-254-4/96164
   12    11     1     1     1
SMALL
USER_CHARGES


@<TRIPOS>ATOM
      1 C1          0.3519    0.7312   -0.3930 C.2        1 <1>        0.000
      2 C3         -0.4181   -0.2334    0.1460 C.2        1 <1>        0.000
      3 C4          1.8100    0.6321   -0.4367 C.2        1 <1>        0.000
      4 C6         -1.8753   -0.1305    0.2017 C.2        1 <1>        0.000
      5 O1          2.3895    1.6828   -1.0171 O.3        1 <1>        0.000
      6 O2          2.4145   -0.3154    0.0344 O.2        1 <1>        0.000
      7 O3         -2.4726   -1.2205    0.6839 O.3        1 <1>        0.000
      8 O4         -2.4681    0.8751   -0.1505 O.2        1 <1>        0.000
      9 H          -0.1283    1.6160   -0.8109 H.spc      1 <1>        0.000
     10 H           0.0622   -1.1222    0.5552 H.spc      1 <1>        0.000
     11 H           1.7135    2.2983   -1.3100 H.spc      1 <1>        0.000
     12 H          -1.8088   -1.8817    0.8933 H.spc      1 <1>        0.000
@<TRIPOS>BOND
     1    1    2 2  
     2    1    3 1  
     3    2    4 1  
     4    3    5 1  
     5    3    6 2  
     6    4    7 1  
     7    4    8 2  
     8    1    9 1  
     9    2   10 1  
    10    5   11 1  
    11    7   12 1  
# Name:          frag3-254-4/96164 -- energy: 2.061633
# Creation time: Sat Jun  5 12:53:21 2010


@<TRIPOS>MOLECULE
frag3-254-4/96164 -- energy: 2.061633
   12    11     1     1     1
SMALL
USER_CHARGES


@<TRIPOS>ATOM
      1 C1         -0.5103    0.4796    0.2917 C.2        1 <1>        0.000
      2 C3          0.4132    0.1320   -0.6097 C.2        1 <1>        0.000
      3 C4         -1.9041    0.0441    0.2219 C.2        1 <1>        0.000
      4 C6          1.8185    0.5260   -0.5174 C.2        1 <1>        0.000
      5 O1         -2.0593   -1.2390   -0.1348 O.3        1 <1>        0.000
      6 O2         -2.8103    0.7625    0.5859 O.2        1 <1>        0.000
      7 O3          2.2401    0.8194    0.7198 O.3        1 <1>        0.000
      8 O4          2.5440    0.4968   -1.4886 O.2        1 <1>        0.000
      9 H          -0.2091    1.1201    1.1207 H.spc      1 <1>        0.000
     10 H           0.1026   -0.4773   -1.4584 H.spc      1 <1>        0.000
     11 H          -1.2081   -1.6056   -0.3849 H.spc      1 <1>        0.000
     12 H           1.4974    0.7826    1.3269 H.spc      1 <1>        0.000
@<TRIPOS>BOND
     1    1    2 2  
     2    1    3 1  
     3    2    4 1  
     4    3    5 1  
     5    3    6 2  
     6    4    7 1  
     7    4    8 2  
     8    1    9 1  
     9    2   10 1  
    10    5   11 1  
    11    7   12 1  
# Name:          frag3-254-4/96164 -- energy: 0.149049
# Creation time: Sat Jun  5 12:53:21 2010


@<TRIPOS>MOLECULE
frag3-254-4/96164 -- energy: 0.149049
   12    11     1     1     1
SMALL
USER_CHARGES


@<TRIPOS>ATOM
      1 C1          0.3519    0.7312   -0.3930 C.2        1 <1>        0.000
      2 C3         -0.4181   -0.2334    0.1460 C.2        1 <1>        0.000
      3 C4          1.8100    0.6321   -0.4367 C.2        1 <1>        0.000
      4 C6         -1.8753   -0.1305    0.2017 C.2        1 <1>        0.000
      5 O1          2.3895    1.6828   -1.0171 O.3        1 <1>        0.000
      6 O2          2.4145   -0.3154    0.0344 O.2        1 <1>        0.000
      7 O3         -2.4726   -1.2205    0.6839 O.3        1 <1>        0.000
      8 O4         -2.4681    0.8751   -0.1505 O.2        1 <1>        0.000
      9 H          -0.1283    1.6160   -0.8109 H.spc      1 <1>        0.000
     10 H           0.0622   -1.1222    0.5552 H.spc      1 <1>        0.000
     11 H           1.7135    2.2983   -1.3100 H.spc      1 <1>        0.000
     12 H          -1.8088   -1.8817    0.8933 H.spc      1 <1>        0.000
@<TRIPOS>BOND
     1    1    2 2  
     2    1    3 1  
     3    2    4 1  
     4    3    5 1  
     5    3    6 2  
     6    4    7 1  
     7    4    8 2  
     8    1    9 1  
     9    2   10 1  
    10    5   11 1  
    11    7   12 1  
