#      Rotatable Fragment
#      Build by yxyuan
#
# Name:          frag4-296-2845/150395
# Creation time: Sat Jun  5 12:53:30 2010


@<TRIPOS>MOLECULE
frag4-296-2845/150395
   17    17     1     1     1
SMALL
USER_CHARGES


@<TRIPOS>ATOM
      1 N1          0.7661    0.3417   -0.3196 N.3        1 <1>        0.000
      2 C4         -0.2380    0.5096   -1.3319 C.3        1 <1>        0.000
      3 C5          0.5077   -0.1761    1.0206 C.3        1 <1>        0.000
      4 C8         -1.6188    0.2645   -0.7134 C.3        1 <1>        0.000
      5 C9         -0.6287   -1.2164    0.9709 C.3        1 <1>        0.000
      6 N2         -1.7528   -0.9948    0.0438 N.4        1 <1>        0.000
      7 H           1.3692   -0.3757   -0.7221 H.spc      1 <1>        0.000
      8 H          -0.0666   -0.2014   -2.1401 H.spc      1 <1>        0.000
      9 H          -0.1898    1.5223   -1.7321 H.spc      1 <1>        0.000
     10 H           0.2142    0.6461    1.6733 H.spc      1 <1>        0.000
     11 H           1.4118   -0.6493    1.4037 H.spc      1 <1>        0.000
     12 H          -2.3270    0.2097   -1.5402 H.spc      1 <1>        0.000
     13 H          -1.7936    1.0753   -0.0062 H.spc      1 <1>        0.000
     14 H          -0.1554   -2.1360    0.6268 H.spc      1 <1>        0.000
     15 H          -1.0742   -1.1963    1.9655 H.spc      1 <1>        0.000
     16 H          -2.6098   -0.9419    0.5944 H.spc      1 <1>        0.000
     17 H          -1.7664   -1.7648   -0.6250 H.spc      1 <1>        0.000
@<TRIPOS>BOND
     1    5    6 1  
     2    1    3 1  
     3    1    2 1  
     4    2    4 1  
     5    3    5 1  
     6    4    6 1  
     7    1    7 1  
     8    2    8 1  
     9    2    9 1  
    10    3   10 1  
    11    3   11 1  
    12    4   12 1  
    13    4   13 1  
    14    5   14 1  
    15    5   15 1  
    16    6   16 1  
    17    6   17 1  
# Name:          frag4-296-2845/150395 -- energy: -1.080587
# Creation time: Sat Jun  5 12:53:30 2010


@<TRIPOS>MOLECULE
frag4-296-2845/150395 -- energy: -1.080587
   17    17     1     1     1
SMALL
USER_CHARGES


@<TRIPOS>ATOM
      1 N1          0.7661    0.3417   -0.3196 N.3        1 <1>        0.000
      2 C4         -0.2380    0.5096   -1.3319 C.3        1 <1>        0.000
      3 C5          0.5077   -0.1761    1.0206 C.3        1 <1>        0.000
      4 C8         -1.6188    0.2645   -0.7134 C.3        1 <1>        0.000
      5 C9         -0.6287   -1.2164    0.9709 C.3        1 <1>        0.000
      6 N2         -1.7528   -0.9948    0.0438 N.4        1 <1>        0.000
      7 H           1.3692   -0.3757   -0.7221 H.spc      1 <1>        0.000
      8 H          -0.0666   -0.2014   -2.1401 H.spc      1 <1>        0.000
      9 H          -0.1898    1.5223   -1.7321 H.spc      1 <1>        0.000
     10 H           0.2142    0.6461    1.6733 H.spc      1 <1>        0.000
     11 H           1.4118   -0.6493    1.4037 H.spc      1 <1>        0.000
     12 H          -2.3270    0.2097   -1.5402 H.spc      1 <1>        0.000
     13 H          -1.7936    1.0753   -0.0062 H.spc      1 <1>        0.000
     14 H          -0.1554   -2.1360    0.6268 H.spc      1 <1>        0.000
     15 H          -1.0742   -1.1963    1.9655 H.spc      1 <1>        0.000
     16 H          -2.6098   -0.9419    0.5944 H.spc      1 <1>        0.000
     17 H          -1.7664   -1.7648   -0.6250 H.spc      1 <1>        0.000
@<TRIPOS>BOND
     1    5    6 1  
     2    1    3 1  
     3    1    2 1  
     4    2    4 1  
     5    3    5 1  
     6    4    6 1  
     7    1    7 1  
     8    2    8 1  
     9    2    9 1  
    10    3   10 1  
    11    3   11 1  
    12    4   12 1  
    13    4   13 1  
    14    5   14 1  
    15    5   15 1  
    16    6   16 1  
    17    6   17 1  
