#      Rotatable Fragment
#      Build by yxyuan
#
# Name:          frag5-621-90/138278
# Creation time: Sat Jun  5 12:53:48 2010


@<TRIPOS>MOLECULE
frag5-621-90/138278
   12    12     1     1     1
SMALL
USER_CHARGES


@<TRIPOS>ATOM
      1 C1          0.6466    0.2436   -0.0133 C.2        1 <1>        0.000
      2 C2         -0.6137   -0.3181    0.0036 C.2        1 <1>        0.000
      3 C3          0.1011    1.6002    0.1702 C.2        1 <1>        0.000
      4 N1          1.8639   -0.2085   -0.1430 N.pl3      1 <1>        0.000
      5 C4         -1.2532    0.9975    0.1892 C.2        1 <1>        0.000
      6 N2         -1.0947   -1.5269   -0.1003 N.pl3      1 <1>        0.000
      7 O1          0.4846    2.7400    0.2702 O.2        1 <1>        0.000
      8 O2         -2.3538    1.4773    0.3094 O.2        1 <1>        0.000
      9 H           2.0263   -1.2078   -0.2673 H.spc      1 <1>        0.000
     10 H           2.6530    0.4374   -0.1200 H.spc      1 <1>        0.000
     11 H          -0.4633   -2.3178   -0.2278 H.spc      1 <1>        0.000
     12 H          -2.1020   -1.6807   -0.0540 H.spc      1 <1>        0.000
@<TRIPOS>BOND
     1    1    2 2  
     2    1    3 1  
     3    1    4 1  
     4    2    5 1  
     5    2    6 1  
     6    3    7 2  
     7    3    5 1  
     8    5    8 2  
     9    4    9 1  
    10    4   10 1  
    11    6   11 1  
    12    6   12 1  
# Name:          frag5-621-90/138278 -- energy: -0.988896
# Creation time: Sat Jun  5 12:53:48 2010


@<TRIPOS>MOLECULE
frag5-621-90/138278 -- energy: -0.988896
   12    12     1     1     1
SMALL
USER_CHARGES


@<TRIPOS>ATOM
      1 C1          0.6466    0.2436   -0.0133 C.2        1 <1>        0.000
      2 C2         -0.6137   -0.3181    0.0036 C.2        1 <1>        0.000
      3 C3          0.1011    1.6002    0.1702 C.2        1 <1>        0.000
      4 N1          1.8639   -0.2085   -0.1430 N.pl3      1 <1>        0.000
      5 C4         -1.2532    0.9975    0.1892 C.2        1 <1>        0.000
      6 N2         -1.0947   -1.5269   -0.1003 N.pl3      1 <1>        0.000
      7 O1          0.4846    2.7400    0.2702 O.2        1 <1>        0.000
      8 O2         -2.3538    1.4773    0.3094 O.2        1 <1>        0.000
      9 H           2.0263   -1.2078   -0.2673 H.spc      1 <1>        0.000
     10 H           2.6530    0.4374   -0.1200 H.spc      1 <1>        0.000
     11 H          -0.4633   -2.3178   -0.2278 H.spc      1 <1>        0.000
     12 H          -2.1020   -1.6807   -0.0540 H.spc      1 <1>        0.000
@<TRIPOS>BOND
     1    1    2 2  
     2    1    3 1  
     3    1    4 1  
     4    2    5 1  
     5    2    6 1  
     6    3    7 2  
     7    3    5 1  
     8    5    8 2  
     9    4    9 1  
    10    4   10 1  
    11    6   11 1  
    12    6   12 1  
