#      Rotatable Fragment
#      Build by yxyuan
#
# Name:          frag3-120-67/96164
# Creation time: Sat Jun  5 12:52:51 2010


@<TRIPOS>MOLECULE
frag3-120-67/96164
    9     8     1     1     1
SMALL
USER_CHARGES


@<TRIPOS>ATOM
      1 C1          0.4246   -0.0089    0.4589 C.2        1 <1>        0.000
      2 C3          1.5633    0.1672   -0.2290 C.2        1 <1>        0.000
      3 C4         -0.8912   -0.0924   -0.1987 C.2        1 <1>        0.000
      4 O1         -1.7977   -0.7826    0.2277 O.2        1 <1>        0.000
      5 O2         -0.9741    0.6232   -1.3355 O.3        1 <1>        0.000
      6 H           0.4750   -0.0933    1.5445 H.spc      1 <1>        0.000
      7 H           1.5360    0.2541   -1.3152 H.spc      1 <1>        0.000
      8 H           2.5155    0.2234    0.2984 H.spc      1 <1>        0.000
      9 H          -0.1478    1.0902   -1.4793 H.spc      1 <1>        0.000
@<TRIPOS>BOND
     1    1    2 2  
     2    1    3 1  
     3    3    4 2  
     4    3    5 1  
     5    1    6 1  
     6    2    7 1  
     7    2    8 1  
     8    5    9 1  
# Name:          frag3-120-67/96164
# Creation time: Sat Jun  5 12:52:51 2010


@<TRIPOS>MOLECULE
frag3-120-67/96164
    9     8     1     1     1
SMALL
USER_CHARGES


@<TRIPOS>ATOM
      1 C1          0.5784    0.3818   -0.2125 C.2        1 <1>        0.000
      2 C3          1.4372   -0.3503    0.5093 C.2        1 <1>        0.000
      3 C4         -0.8417    0.0184   -0.3595 C.2        1 <1>        0.000
      4 O1         -1.3638   -0.8703    0.2886 O.2        1 <1>        0.000
      5 O2         -1.4852    0.7270   -1.3025 O.3        1 <1>        0.000
      6 H           0.9441    1.2802   -0.7098 H.spc      1 <1>        0.000
      7 H           1.0932   -1.2525    1.0150 H.spc      1 <1>        0.000
      8 H           2.4800   -0.0438    0.5909 H.spc      1 <1>        0.000
      9 H          -0.8839    1.3715   -1.6829 H.spc      1 <1>        0.000
@<TRIPOS>BOND
     1    1    2 2  
     2    1    3 1  
     3    3    4 2  
     4    3    5 1  
     5    1    6 1  
     6    2    7 1  
     7    2    8 1  
     8    5    9 1  
# Name:          frag3-120-67/96164 -- energy: 0.888197
# Creation time: Sat Jun  5 12:52:51 2010


@<TRIPOS>MOLECULE
frag3-120-67/96164 -- energy: 0.888197
    9     8     1     1     1
SMALL
USER_CHARGES


@<TRIPOS>ATOM
      1 C1          0.4246   -0.0089    0.4589 C.2        1 <1>        0.000
      2 C3          1.5633    0.1672   -0.2290 C.2        1 <1>        0.000
      3 C4         -0.8912   -0.0924   -0.1987 C.2        1 <1>        0.000
      4 O1         -1.7977   -0.7826    0.2277 O.2        1 <1>        0.000
      5 O2         -0.9741    0.6232   -1.3355 O.3        1 <1>        0.000
      6 H           0.4750   -0.0933    1.5445 H.spc      1 <1>        0.000
      7 H           1.5360    0.2541   -1.3152 H.spc      1 <1>        0.000
      8 H           2.5155    0.2234    0.2984 H.spc      1 <1>        0.000
      9 H          -0.1478    1.0902   -1.4793 H.spc      1 <1>        0.000
@<TRIPOS>BOND
     1    1    2 2  
     2    1    3 1  
     3    3    4 2  
     4    3    5 1  
     5    1    6 1  
     6    2    7 1  
     7    2    8 1  
     8    5    9 1  
# Name:          frag3-120-67/96164 -- energy: 0.003749
# Creation time: Sat Jun  5 12:52:51 2010


@<TRIPOS>MOLECULE
frag3-120-67/96164 -- energy: 0.003749
    9     8     1     1     1
SMALL
USER_CHARGES


@<TRIPOS>ATOM
      1 C1          0.5784    0.3818   -0.2125 C.2        1 <1>        0.000
      2 C3          1.4372   -0.3503    0.5093 C.2        1 <1>        0.000
      3 C4         -0.8417    0.0184   -0.3595 C.2        1 <1>        0.000
      4 O1         -1.3638   -0.8703    0.2886 O.2        1 <1>        0.000
      5 O2         -1.4852    0.7270   -1.3025 O.3        1 <1>        0.000
      6 H           0.9441    1.2802   -0.7098 H.spc      1 <1>        0.000
      7 H           1.0932   -1.2525    1.0150 H.spc      1 <1>        0.000
      8 H           2.4800   -0.0438    0.5909 H.spc      1 <1>        0.000
      9 H          -0.8839    1.3715   -1.6829 H.spc      1 <1>        0.000
@<TRIPOS>BOND
     1    1    2 2  
     2    1    3 1  
     3    3    4 2  
     4    3    5 1  
     5    1    6 1  
     6    2    7 1  
     7    2    8 1  
     8    5    9 1  
