#      Rotatable Fragment
#      Build by yxyuan
#
# Name:          frag3-255-3/31924
# Creation time: Sat Jun  5 12:52:40 2010


@<TRIPOS>MOLECULE
frag3-255-3/31924
   11    10     1     1     1
SMALL
USER_CHARGES


@<TRIPOS>ATOM
      1 N1          1.2055    2.2932    0.7318 N.pl3      1 <1>        0.000
      2 P1          0.4684    0.9190    1.0601 P.3        1 <1>        0.000
      3 O1          0.0249    0.3008   -0.1774 O.2        1 <1>        0.000
      4 N2          1.4708   -0.0706    1.8058 N.pl3      1 <1>        0.000
      5 N3         -0.7962    1.2077    1.9858 N.pl3      1 <1>        0.000
      6 H           1.2996    2.6031   -0.2354 H.spc      1 <1>        0.000
      7 H           1.5832    2.8629    1.4889 H.spc      1 <1>        0.000
      8 H           1.6981   -0.9743    1.3910 H.spc      1 <1>        0.000
      9 H           1.8850    0.1998    2.6978 H.spc      1 <1>        0.000
     10 H          -1.7314    0.9578    1.6642 H.spc      1 <1>        0.000
     11 H          -0.6705    1.6424    2.8999 H.spc      1 <1>        0.000
@<TRIPOS>BOND
     1    1    2 1  
     2    2    3 2  
     3    2    4 1  
     4    2    5 1  
     5    1    6 1  
     6    1    7 1  
     7    4    8 1  
     8    4    9 1  
     9    5   10 1  
    10    5   11 1  
# Name:          frag3-255-3/31924 -- energy: -0.514390
# Creation time: Sat Jun  5 12:52:40 2010


@<TRIPOS>MOLECULE
frag3-255-3/31924 -- energy: -0.514390
   11    10     1     1     1
SMALL
USER_CHARGES


@<TRIPOS>ATOM
      1 N1          1.2055    2.2932    0.7318 N.pl3      1 <1>        0.000
      2 P1          0.4684    0.9190    1.0601 P.3        1 <1>        0.000
      3 O1          0.0249    0.3008   -0.1774 O.2        1 <1>        0.000
      4 N2          1.4708   -0.0706    1.8058 N.pl3      1 <1>        0.000
      5 N3         -0.7962    1.2077    1.9858 N.pl3      1 <1>        0.000
      6 H           1.2996    2.6031   -0.2354 H.spc      1 <1>        0.000
      7 H           1.5832    2.8629    1.4889 H.spc      1 <1>        0.000
      8 H           1.6981   -0.9743    1.3910 H.spc      1 <1>        0.000
      9 H           1.8850    0.1998    2.6978 H.spc      1 <1>        0.000
     10 H          -1.7314    0.9578    1.6642 H.spc      1 <1>        0.000
     11 H          -0.6705    1.6424    2.8999 H.spc      1 <1>        0.000
@<TRIPOS>BOND
     1    1    2 1  
     2    2    3 2  
     3    2    4 1  
     4    2    5 1  
     5    1    6 1  
     6    1    7 1  
     7    4    8 1  
     8    4    9 1  
     9    5   10 1  
    10    5   11 1  
