#      Rotatable Fragment
#      Build by yxyuan
#
# Name:          frag3-289-2/31924
# Creation time: Sat Jun  5 12:52:45 2010


@<TRIPOS>MOLECULE
frag3-289-2/31924
   12    11     1     1     1
SMALL
USER_CHARGES


@<TRIPOS>ATOM
      1 S1         -0.4998   -1.0812   -0.1732 S.3        1 <1>        0.000
      2 S2          0.3014    0.5522   -1.0232 S.3        1 <1>        0.000
      3 C1          1.5658    1.0153    0.1265 C.2        1 <1>        0.000
      4 S3          1.5955    2.4315    1.0524 S.2        1 <1>        0.000
      5 N1          2.5576    0.0741    0.2333 N.am       1 <1>        0.000
      6 C6         -1.4934   -0.4016    1.1243 C.2        1 <1>        0.000
      7 S4         -1.2372   -0.6101    2.7846 S.2        1 <1>        0.000
      8 N2         -2.5253    0.3712    0.6564 N.am       1 <1>        0.000
      9 H           3.3324    0.2209    0.8802 H.spc      1 <1>        0.000
     10 H           2.5204   -0.7726   -0.3342 H.spc      1 <1>        0.000
     11 H          -3.1551    0.8327    1.3127 H.spc      1 <1>        0.000
     12 H          -2.6629    0.4844   -0.3479 H.spc      1 <1>        0.000
@<TRIPOS>BOND
     1    1    2 1  
     2    1    6 1  
     3    2    3 1  
     4    3    4 2  
     5    3    5 am 
     6    6    7 2  
     7    6    8 am 
     8    5    9 1  
     9    5   10 1  
    10    8   11 1  
    11    8   12 1  
# Name:          frag3-289-2/31924
# Creation time: Sat Jun  5 12:52:45 2010


@<TRIPOS>MOLECULE
frag3-289-2/31924
   12    11     1     1     1
SMALL
USER_CHARGES


@<TRIPOS>ATOM
      1 S1          0.8956   -0.4405   -0.6118 S.3        1 <1>        0.000
      2 S2         -1.0791   -0.0474   -0.5978 S.3        1 <1>        0.000
      3 C1         -1.4993   -0.3251    1.0739 C.2        1 <1>        0.000
      4 S3         -1.1919   -1.7411    1.9432 S.2        1 <1>        0.000
      5 N1         -2.0702    0.7545    1.6958 N.am       1 <1>        0.000
      6 C6          1.5699    0.9487    0.2031 C.2        1 <1>        0.000
      7 S4          1.6072    2.5220   -0.3961 S.2        1 <1>        0.000
      8 N2          2.0324    0.6803    1.4706 N.am       1 <1>        0.000
      9 H          -2.3106    0.7045    2.6858 H.spc      1 <1>        0.000
     10 H          -2.2547    1.6080    1.1687 H.spc      1 <1>        0.000
     11 H           2.3992    1.4353    2.0502 H.spc      1 <1>        0.000
     12 H           2.0085   -0.2737    1.8308 H.spc      1 <1>        0.000
@<TRIPOS>BOND
     1    1    2 1  
     2    1    6 1  
     3    2    3 1  
     4    3    4 2  
     5    3    5 am 
     6    6    7 2  
     7    6    8 am 
     8    5    9 1  
     9    5   10 1  
    10    8   11 1  
    11    8   12 1  
# Name:          frag3-289-2/31924
# Creation time: Sat Jun  5 12:52:45 2010


@<TRIPOS>MOLECULE
frag3-289-2/31924
   12    11     1     1     1
SMALL
USER_CHARGES


@<TRIPOS>ATOM
      1 S1         -0.1253   -1.2308    0.3690 S.3        1 <1>        0.000
      2 S2          1.4063   -0.1857    1.1296 S.3        1 <1>        0.000
      3 C1          1.5658    1.1714    0.0090 C.2        1 <1>        0.000
      4 S3          1.9608    2.7612    0.4138 S.2        1 <1>        0.000
      5 N1          1.3042    0.8135   -1.2938 N.am       1 <1>        0.000
      6 C6         -1.5363   -0.5023    1.1415 C.2        1 <1>        0.000
      7 S4         -2.7666   -1.3462    1.9353 S.2        1 <1>        0.000
      8 N2         -1.5443    0.8702    1.0764 N.am       1 <1>        0.000
      9 H           1.3474    1.5143   -2.0337 H.spc      1 <1>        0.000
     10 H           1.0671   -0.1525   -1.5195 H.spc      1 <1>        0.000
     11 H          -2.3016    1.3970    1.5116 H.spc      1 <1>        0.000
     12 H          -0.7930    1.3622    0.5928 H.spc      1 <1>        0.000
@<TRIPOS>BOND
     1    1    2 1  
     2    1    6 1  
     3    2    3 1  
     4    3    4 2  
     5    3    5 am 
     6    6    7 2  
     7    6    8 am 
     8    5    9 1  
     9    5   10 1  
    10    8   11 1  
    11    8   12 1  
# Name:          frag3-289-2/31924
# Creation time: Sat Jun  5 12:52:45 2010


@<TRIPOS>MOLECULE
frag3-289-2/31924
   12    11     1     1     1
SMALL
USER_CHARGES


@<TRIPOS>ATOM
      1 S1         -0.5160   -0.5939   -0.2135 S.3        1 <1>        0.000
      2 S2          0.0522    1.3328   -0.1963 S.3        1 <1>        0.000
      3 C1          1.7656    1.2600    0.1890 C.2        1 <1>        0.000
      4 S3          3.0272    1.5871   -0.8902 S.2        1 <1>        0.000
      5 N1          2.0214    0.8503    1.4731 N.am       1 <1>        0.000
      6 C6         -1.7095   -0.6726    1.0742 C.2        1 <1>        0.000
      7 S4         -1.4420   -1.2288    2.6496 S.2        1 <1>        0.000
      8 N2         -2.9343   -0.1836    0.6949 N.am       1 <1>        0.000
      9 H           2.9843    0.7385    1.7905 H.spc      1 <1>        0.000
     10 H           1.2487    0.6575    2.1104 H.spc      1 <1>        0.000
     11 H          -3.7009   -0.1513    1.3669 H.spc      1 <1>        0.000
     12 H          -3.0780    0.1476   -0.2591 H.spc      1 <1>        0.000
@<TRIPOS>BOND
     1    1    2 1  
     2    1    6 1  
     3    2    3 1  
     4    3    4 2  
     5    3    5 am 
     6    6    7 2  
     7    6    8 am 
     8    5    9 1  
     9    5   10 1  
    10    8   11 1  
    11    8   12 1  
# Name:          frag3-289-2/31924
# Creation time: Sat Jun  5 12:52:45 2010


@<TRIPOS>MOLECULE
frag3-289-2/31924
   12    11     1     1     1
SMALL
USER_CHARGES


@<TRIPOS>ATOM
      1 S1         -0.7104   -0.8326   -0.3730 S.3        1 <1>        0.000
      2 S2          1.1932   -0.8394    0.2815 S.3        1 <1>        0.000
      3 C1          1.6435    0.8458    0.2208 C.2        1 <1>        0.000
      4 S3          1.2985    2.0523    1.3412 S.2        1 <1>        0.000
      5 N1          2.2885    1.1619   -0.9565 N.am       1 <1>        0.000
      6 C6         -1.5913   -0.1872    0.9908 C.2        1 <1>        0.000
      7 S4         -1.2976   -0.5666    2.6168 S.2        1 <1>        0.000
      8 N2         -2.5598    0.7171    0.6593 N.am       1 <1>        0.000
      9 H           2.5564    2.1273   -1.1480 H.spc      1 <1>        0.000
     10 H           2.4976    0.4303   -1.6358 H.spc      1 <1>        0.000
     11 H          -3.1096    1.1670    1.3913 H.spc      1 <1>        0.000
     12 H          -2.7333    0.9425   -0.3202 H.spc      1 <1>        0.000
@<TRIPOS>BOND
     1    1    2 1  
     2    1    6 1  
     3    2    3 1  
     4    3    4 2  
     5    3    5 am 
     6    6    7 2  
     7    6    8 am 
     8    5    9 1  
     9    5   10 1  
    10    8   11 1  
    11    8   12 1  
# Name:          frag3-289-2/31924
# Creation time: Sat Jun  5 12:52:45 2010


@<TRIPOS>MOLECULE
frag3-289-2/31924
   12    11     1     1     1
SMALL
USER_CHARGES


@<TRIPOS>ATOM
      1 S1          0.8648   -0.4530   -0.0144 S.3        1 <1>        0.000
      2 S2         -0.9543    0.3804   -0.2035 S.3        1 <1>        0.000
      3 C1         -1.8813   -0.3377    1.1052 C.2        1 <1>        0.000
      4 S3         -2.3707    0.4391    2.5248 S.2        1 <1>        0.000
      5 N1         -2.1577   -1.6668    0.8928 N.am       1 <1>        0.000
      6 C6          1.9477    0.9268    0.0926 C.2        1 <1>        0.000
      7 S4          2.7467    1.4630    1.4827 S.2        1 <1>        0.000
      8 N2          2.0694    1.5995   -1.0993 N.am       1 <1>        0.000
      9 H          -2.6659   -2.2010    1.5976 H.spc      1 <1>        0.000
     10 H          -1.8547   -2.1192    0.0303 H.spc      1 <1>        0.000
     11 H           2.6491    2.4369   -1.1554 H.spc      1 <1>        0.000
     12 H           1.5800    1.2615   -1.9280 H.spc      1 <1>        0.000
@<TRIPOS>BOND
     1    1    2 1  
     2    1    6 1  
     3    2    3 1  
     4    3    4 2  
     5    3    5 am 
     6    6    7 2  
     7    6    8 am 
     8    5    9 1  
     9    5   10 1  
    10    8   11 1  
    11    8   12 1  
# Name:          frag3-289-2/31924
# Creation time: Sat Jun  5 12:52:45 2010


@<TRIPOS>MOLECULE
frag3-289-2/31924
   12    11     1     1     1
SMALL
USER_CHARGES


@<TRIPOS>ATOM
      1 S1         -0.5604   -1.0429   -0.3027 S.3        1 <1>        0.000
      2 S2          1.3707   -0.6733    0.0942 S.3        1 <1>        0.000
      3 C1          1.4371    1.0994    0.0958 C.2        1 <1>        0.000
      4 S3          2.4046    2.0559    1.0993 S.2        1 <1>        0.000
      5 N1          0.5806    1.6655   -0.8159 N.am       1 <1>        0.000
      6 C6         -1.3896   -0.4290    1.1392 C.2        1 <1>        0.000
      7 S4         -3.0391   -0.0894    1.2682 S.2        1 <1>        0.000
      8 N2         -0.5393   -0.2348    2.2028 N.am       1 <1>        0.000
      9 H           0.5198    2.6805   -0.8967 H.spc      1 <1>        0.000
     10 H           0.0051    1.0711   -1.4124 H.spc      1 <1>        0.000
     11 H          -0.9021    0.1198    3.0877 H.spc      1 <1>        0.000
     12 H           0.4541   -0.4454    2.1066 H.spc      1 <1>        0.000
@<TRIPOS>BOND
     1    1    2 1  
     2    1    6 1  
     3    2    3 1  
     4    3    4 2  
     5    3    5 am 
     6    6    7 2  
     7    6    8 am 
     8    5    9 1  
     9    5   10 1  
    10    8   11 1  
    11    8   12 1  
# Name:          frag3-289-2/31924
# Creation time: Sat Jun  5 12:52:45 2010


@<TRIPOS>MOLECULE
frag3-289-2/31924
   12    11     1     1     1
SMALL
USER_CHARGES


@<TRIPOS>ATOM
      1 S1          1.4728   -0.5785    0.7696 S.3        1 <1>        0.000
      2 S2          0.0245   -0.3752    2.1491 S.3        1 <1>        0.000
      3 C1         -1.4259   -0.3325    1.1711 C.2        1 <1>        0.000
      4 S3         -2.1385   -1.6508    0.4012 S.2        1 <1>        0.000
      5 N1         -1.9354    0.9332    0.9895 N.am       1 <1>        0.000
      6 C6          1.4430    0.9742   -0.0359 C.2        1 <1>        0.000
      7 S4          1.8609    2.4546    0.6589 S.2        1 <1>        0.000
      8 N2          0.9632    0.9264   -1.3226 N.am       1 <1>        0.000
      9 H          -2.7465    1.0749    0.3875 H.spc      1 <1>        0.000
     10 H          -1.5019    1.7294    1.4569 H.spc      1 <1>        0.000
     11 H           0.8588    1.7869   -1.8603 H.spc      1 <1>        0.000
     12 H           0.7114    0.0304   -1.7401 H.spc      1 <1>        0.000
@<TRIPOS>BOND
     1    1    2 1  
     2    1    6 1  
     3    2    3 1  
     4    3    4 2  
     5    3    5 am 
     6    6    7 2  
     7    6    8 am 
     8    5    9 1  
     9    5   10 1  
    10    8   11 1  
    11    8   12 1  
# Name:          frag3-289-2/31924
# Creation time: Sat Jun  5 12:52:45 2010


@<TRIPOS>MOLECULE
frag3-289-2/31924
   12    11     1     1     1
SMALL
USER_CHARGES


@<TRIPOS>ATOM
      1 S1          0.1722    1.0829   -0.6591 S.3        1 <1>        0.000
      2 S2         -0.5621   -0.7661   -0.3726 S.3        1 <1>        0.000
      3 C1         -1.6215   -0.5466    1.0111 C.2        1 <1>        0.000
      4 S3         -1.1656    0.0848    2.5205 S.2        1 <1>        0.000
      5 N1         -2.9176   -0.8906    0.7585 N.am       1 <1>        0.000
      6 C6          1.6821    1.1053    0.2433 C.2        1 <1>        0.000
      7 S4          2.4785    2.4493    0.8576 S.2        1 <1>        0.000
      8 N2          2.1988   -0.1676    0.4216 N.am       1 <1>        0.000
      9 H          -3.6274   -0.7697    1.4810 H.spc      1 <1>        0.000
     10 H          -3.1766   -1.2686   -0.1528 H.spc      1 <1>        0.000
     11 H           3.0730   -0.2964    0.9312 H.spc      1 <1>        0.000
     12 H           1.7051   -0.9760    0.0433 H.spc      1 <1>        0.000
@<TRIPOS>BOND
     1    1    2 1  
     2    1    6 1  
     3    2    3 1  
     4    3    4 2  
     5    3    5 am 
     6    6    7 2  
     7    6    8 am 
     8    5    9 1  
     9    5   10 1  
    10    8   11 1  
    11    8   12 1  
# Name:          frag3-289-2/31924
# Creation time: Sat Jun  5 12:52:45 2010


@<TRIPOS>MOLECULE
frag3-289-2/31924
   12    11     1     1     1
SMALL
USER_CHARGES


@<TRIPOS>ATOM
      1 S1         -0.5070   -1.2314   -0.0974 S.3        1 <1>        0.000
      2 S2          1.4029   -0.7842    0.3029 S.3        1 <1>        0.000
      3 C1          1.4405    0.9666    0.0938 C.2        1 <1>        0.000
      4 S3          1.4233    2.1303    1.3173 S.2        1 <1>        0.000
      5 N1          1.4206    1.3410   -1.2303 N.am       1 <1>        0.000
      6 C6         -1.3953   -0.2766    1.0931 C.2        1 <1>        0.000
      7 S4         -1.9715   -0.8351    2.5749 S.2        1 <1>        0.000
      8 N2         -1.5489    1.0407    0.7267 N.am       1 <1>        0.000
      9 H           1.3952    2.3295   -1.4805 H.spc      1 <1>        0.000
     10 H           1.4312    0.6300   -1.9616 H.spc      1 <1>        0.000
     11 H          -2.0168    1.6937    1.3553 H.spc      1 <1>        0.000
     12 H          -1.1949    1.3643   -0.1735 H.spc      1 <1>        0.000
@<TRIPOS>BOND
     1    1    2 1  
     2    1    6 1  
     3    2    3 1  
     4    3    4 2  
     5    3    5 am 
     6    6    7 2  
     7    6    8 am 
     8    5    9 1  
     9    5   10 1  
    10    8   11 1  
    11    8   12 1  
# Name:          frag3-289-2/31924
# Creation time: Sat Jun  5 12:52:45 2010


@<TRIPOS>MOLECULE
frag3-289-2/31924
   12    11     1     1     1
SMALL
USER_CHARGES


@<TRIPOS>ATOM
      1 S1          0.9490   -0.4304   -0.1377 S.3        1 <1>        0.000
      2 S2         -0.9712    0.1175   -0.3850 S.3        1 <1>        0.000
      3 C1         -1.7234   -0.4322    1.0872 C.2        1 <1>        0.000
      4 S3         -1.5238   -1.9748    1.7647 S.2        1 <1>        0.000
      5 N1         -2.4867    0.5076    1.7172 N.am       1 <1>        0.000
      6 C6          1.7782    1.0651    0.1863 C.2        1 <1>        0.000
      7 S4          2.4813    2.0707   -0.9666 S.2        1 <1>        0.000
      8 N2          1.7611    1.4279    1.5150 N.am       1 <1>        0.000
      9 H          -2.9423    0.2849    2.6022 H.spc      1 <1>        0.000
     10 H          -2.6015    1.4326    1.3030 H.spc      1 <1>        0.000
     11 H           2.1767    2.3123    1.8076 H.spc      1 <1>        0.000
     12 H           1.3329    0.8122    2.2063 H.spc      1 <1>        0.000
@<TRIPOS>BOND
     1    1    2 1  
     2    1    6 1  
     3    2    3 1  
     4    3    4 2  
     5    3    5 am 
     6    6    7 2  
     7    6    8 am 
     8    5    9 1  
     9    5   10 1  
    10    8   11 1  
    11    8   12 1  
# Name:          frag3-289-2/31924
# Creation time: Sat Jun  5 12:52:45 2010


@<TRIPOS>MOLECULE
frag3-289-2/31924
   12    11     1     1     1
SMALL
USER_CHARGES


@<TRIPOS>ATOM
      1 S1          0.2859    0.8449   -0.6956 S.3        1 <1>        0.000
      2 S2         -0.5011   -0.8943   -0.0567 S.3        1 <1>        0.000
      3 C1         -1.7198   -0.4039    1.0802 C.2        1 <1>        0.000
      4 S3         -1.6335    0.9205    2.1351 S.2        1 <1>        0.000
      5 N1         -2.8548   -1.1624    1.0256 N.am       1 <1>        0.000
      6 C6          1.7920    0.9911    0.1571 C.2        1 <1>        0.000
      7 S4          2.0575    1.6119    1.6954 S.2        1 <1>        0.000
      8 N2          2.8384    0.4436   -0.5600 N.am       1 <1>        0.000
      9 H          -3.6512   -0.9321    1.6198 H.spc      1 <1>        0.000
     10 H          -2.9058   -1.9590    0.3906 H.spc      1 <1>        0.000
     11 H           3.7744    0.4158   -0.1556 H.spc      1 <1>        0.000
     12 H           2.6749    0.0672   -1.4938 H.spc      1 <1>        0.000
@<TRIPOS>BOND
     1    1    2 1  
     2    1    6 1  
     3    2    3 1  
     4    3    4 2  
     5    3    5 am 
     6    6    7 2  
     7    6    8 am 
     8    5    9 1  
     9    5   10 1  
    10    8   11 1  
    11    8   12 1  
# Name:          frag3-289-2/31924
# Creation time: Sat Jun  5 12:52:45 2010


@<TRIPOS>MOLECULE
frag3-289-2/31924
   12    11     1     1     1
SMALL
USER_CHARGES


@<TRIPOS>ATOM
      1 S1          0.1301    0.5814   -0.9568 S.3        1 <1>        0.000
      2 S2         -0.3494   -1.1241   -0.0226 S.3        1 <1>        0.000
      3 C1         -1.3829   -0.5784    1.3021 C.2        1 <1>        0.000
      4 S3         -2.9721   -1.0790    1.5761 S.2        1 <1>        0.000
      5 N1         -0.7842    0.3609    2.1072 N.am       1 <1>        0.000
      6 C6          1.4914    1.1950   -0.0127 C.2        1 <1>        0.000
      7 S4          1.9109    2.8114    0.2102 S.2        1 <1>        0.000
      8 N2          2.2208    0.1842    0.5774 N.am       1 <1>        0.000
      9 H          -1.3009    0.7685    2.8865 H.spc      1 <1>        0.000
     10 H           0.1768    0.6504    1.9255 H.spc      1 <1>        0.000
     11 H           3.0277    0.4102    1.1590 H.spc      1 <1>        0.000
     12 H           1.9533   -0.7894    0.4323 H.spc      1 <1>        0.000
@<TRIPOS>BOND
     1    1    2 1  
     2    1    6 1  
     3    2    3 1  
     4    3    4 2  
     5    3    5 am 
     6    6    7 2  
     7    6    8 am 
     8    5    9 1  
     9    5   10 1  
    10    8   11 1  
    11    8   12 1  
# Name:          frag3-289-2/31924
# Creation time: Sat Jun  5 12:52:45 2010


@<TRIPOS>MOLECULE
frag3-289-2/31924
   12    11     1     1     1
SMALL
USER_CHARGES


@<TRIPOS>ATOM
      1 S1         -0.2483   -0.8900    0.3942 S.3        1 <1>        0.000
      2 S2          1.0875    0.2896    1.3142 S.3        1 <1>        0.000
      3 C1          1.8441    1.1639   -0.0061 C.2        1 <1>        0.000
      4 S3          1.6067    2.7934   -0.3910 S.2        1 <1>        0.000
      5 N1          2.6597    0.3666   -0.7699 N.am       1 <1>        0.000
      6 C6         -1.7743   -0.5362    1.1909 C.2        1 <1>        0.000
      7 S4         -3.2263   -1.3666    0.9871 S.2        1 <1>        0.000
      8 N2         -1.6846    0.5306    2.0616 N.am       1 <1>        0.000
      9 H           3.1344    0.7549   -1.5849 H.spc      1 <1>        0.000
     10 H           2.7910   -0.6142   -0.5225 H.spc      1 <1>        0.000
     11 H          -2.5040    0.8261    2.5923 H.spc      1 <1>        0.000
     12 H          -0.7989    1.0237    2.1745 H.spc      1 <1>        0.000
@<TRIPOS>BOND
     1    1    2 1  
     2    1    6 1  
     3    2    3 1  
     4    3    4 2  
     5    3    5 am 
     6    6    7 2  
     7    6    8 am 
     8    5    9 1  
     9    5   10 1  
    10    8   11 1  
    11    8   12 1  
# Name:          frag3-289-2/31924
# Creation time: Sat Jun  5 12:52:45 2010


@<TRIPOS>MOLECULE
frag3-289-2/31924
   12    11     1     1     1
SMALL
USER_CHARGES


@<TRIPOS>ATOM
      1 S1         -0.2959   -0.8979    0.3225 S.3        1 <1>        0.000
      2 S2          0.2016    0.8525   -0.5236 S.3        1 <1>        0.000
      3 C1          1.8503    1.1277    0.0151 C.2        1 <1>        0.000
      4 S3          2.3461    2.2415    1.1857 S.2        1 <1>        0.000
      5 N1          2.7547    0.2942   -0.5982 N.am       1 <1>        0.000
      6 C6         -1.7846   -0.5399    1.1840 C.2        1 <1>        0.000
      7 S4         -1.9405   -0.3004    2.8497 S.2        1 <1>        0.000
      8 N2         -2.8670   -0.4263    0.3458 N.am       1 <1>        0.000
      9 H           3.7426    0.3419   -0.3490 H.spc      1 <1>        0.000
     10 H           2.4380   -0.3721   -1.3026 H.spc      1 <1>        0.000
     11 H          -3.7844   -0.1938    0.7262 H.spc      1 <1>        0.000
     12 H          -2.7533   -0.5745   -0.6570 H.spc      1 <1>        0.000
@<TRIPOS>BOND
     1    1    2 1  
     2    1    6 1  
     3    2    3 1  
     4    3    4 2  
     5    3    5 am 
     6    6    7 2  
     7    6    8 am 
     8    5    9 1  
     9    5   10 1  
    10    8   11 1  
    11    8   12 1  
# Name:          frag3-289-2/31924
# Creation time: Sat Jun  5 12:52:45 2010


@<TRIPOS>MOLECULE
frag3-289-2/31924
   12    11     1     1     1
SMALL
USER_CHARGES


@<TRIPOS>ATOM
      1 S1         -0.4615   -1.0397   -0.1840 S.3        1 <1>        0.000
      2 S2          1.3093   -0.6212    0.6688 S.3        1 <1>        0.000
      3 C1          1.6211    1.0445    0.2000 C.2        1 <1>        0.000
      4 S3          2.2659    2.2689    1.1495 S.2        1 <1>        0.000
      5 N1          1.2400    1.2909   -1.1090 N.am       1 <1>        0.000
      6 C6         -1.6028   -0.3748    0.9751 C.2        1 <1>        0.000
      7 S4         -1.5705   -0.6742    2.6477 S.2        1 <1>        0.000
      8 N2         -2.5370    0.4570    0.4330 N.am       1 <1>        0.000
      9 H           1.3502    2.2244   -1.5051 H.spc      1 <1>        0.000
     10 H           0.8493    0.5389   -1.6766 H.spc      1 <1>        0.000
     11 H          -3.2276    0.9082    1.0329 H.spc      1 <1>        0.000
     12 H          -2.5453    0.6282   -0.5725 H.spc      1 <1>        0.000
@<TRIPOS>BOND
     1    1    2 1  
     2    1    6 1  
     3    2    3 1  
     4    3    4 2  
     5    3    5 am 
     6    6    7 2  
     7    6    8 am 
     8    5    9 1  
     9    5   10 1  
    10    8   11 1  
    11    8   12 1  
# Name:          frag3-289-2/31924
# Creation time: Sat Jun  5 12:52:45 2010


@<TRIPOS>MOLECULE
frag3-289-2/31924
   12    11     1     1     1
SMALL
USER_CHARGES


@<TRIPOS>ATOM
      1 S1         -0.0394    1.2441   -0.3346 S.3        1 <1>        0.000
      2 S2         -0.4727   -0.7072   -0.1273 S.3        1 <1>        0.000
      3 C1         -1.5690   -0.7302    1.2474 C.2        1 <1>        0.000
      4 S3         -3.2508   -0.8875    1.1540 S.2        1 <1>        0.000
      5 N1         -0.9390   -0.5504    2.4536 N.am       1 <1>        0.000
      6 C6          1.6725    1.3195    0.0569 C.2        1 <1>        0.000
      7 S4          2.9244    1.5361   -1.0599 S.2        1 <1>        0.000
      8 N2          1.9386    1.1271    1.3908 N.am       1 <1>        0.000
      9 H          -1.4860   -0.5097    3.3136 H.spc      1 <1>        0.000
     10 H           0.0761   -0.4575    2.4899 H.spc      1 <1>        0.000
     11 H           2.9034    1.1132    1.7216 H.spc      1 <1>        0.000
     12 H           1.1714    0.9981    2.0505 H.spc      1 <1>        0.000
@<TRIPOS>BOND
     1    1    2 1  
     2    1    6 1  
     3    2    3 1  
     4    3    4 2  
     5    3    5 am 
     6    6    7 2  
     7    6    8 am 
     8    5    9 1  
     9    5   10 1  
    10    8   11 1  
    11    8   12 1  
# Name:          frag3-289-2/31924
# Creation time: Sat Jun  5 12:52:45 2010


@<TRIPOS>MOLECULE
frag3-289-2/31924
   12    11     1     1     1
SMALL
USER_CHARGES


@<TRIPOS>ATOM
      1 S1         -0.8782   -0.0303   -0.5124 S.3        1 <1>        0.000
      2 S2          0.0831    1.6360    0.0995 S.3        1 <1>        0.000
      3 C1          1.7308    1.1312    0.3125 C.2        1 <1>        0.000
      4 S3          2.8649    0.9407   -0.9184 S.2        1 <1>        0.000
      5 N1          2.0556    0.8043    1.6078 N.am       1 <1>        0.000
      6 C6         -1.6530   -0.5815    0.9404 C.2        1 <1>        0.000
      7 S4         -1.0710   -0.3835    2.5235 S.2        1 <1>        0.000
      8 N2         -2.8676   -1.1655    0.7279 N.am       1 <1>        0.000
      9 H           2.9852    0.4454    1.8254 H.spc      1 <1>        0.000
     10 H           1.3669    0.9207    2.3512 H.spc      1 <1>        0.000
     11 H          -3.4263   -1.4833    1.5199 H.spc      1 <1>        0.000
     12 H          -3.2170   -1.2843   -0.2230 H.spc      1 <1>        0.000
@<TRIPOS>BOND
     1    1    2 1  
     2    1    6 1  
     3    2    3 1  
     4    3    4 2  
     5    3    5 am 
     6    6    7 2  
     7    6    8 am 
     8    5    9 1  
     9    5   10 1  
    10    8   11 1  
    11    8   12 1  
# Name:          frag3-289-2/31924
# Creation time: Sat Jun  5 12:52:45 2010


@<TRIPOS>MOLECULE
frag3-289-2/31924
   12    11     1     1     1
SMALL
USER_CHARGES


@<TRIPOS>ATOM
      1 S1         -0.5232   -0.6276   -0.0692 S.3        1 <1>        0.000
      2 S2          1.0835   -0.1616    1.0519 S.3        1 <1>        0.000
      3 C1          1.9052    1.0708    0.1303 C.2        1 <1>        0.000
      4 S3          1.9606    2.7203    0.4655 S.2        1 <1>        0.000
      5 N1          2.5034    0.5614   -1.0041 N.am       1 <1>        0.000
      6 C6         -1.8601   -0.4385    1.0381 C.2        1 <1>        0.000
      7 S4         -1.9244   -1.1049    2.6020 S.2        1 <1>        0.000
      8 N2         -2.8804    0.3314    0.5665 N.am       1 <1>        0.000
      9 H           2.9859    1.1858   -1.6504 H.spc      1 <1>        0.000
     10 H           2.4631   -0.4395   -1.1963 H.spc      1 <1>        0.000
     11 H          -3.6947    0.5139    1.1530 H.spc      1 <1>        0.000
     12 H          -2.8299    0.7253   -0.3730 H.spc      1 <1>        0.000
@<TRIPOS>BOND
     1    1    2 1  
     2    1    6 1  
     3    2    3 1  
     4    3    4 2  
     5    3    5 am 
     6    6    7 2  
     7    6    8 am 
     8    5    9 1  
     9    5   10 1  
    10    8   11 1  
    11    8   12 1  
# Name:          frag3-289-2/31924
# Creation time: Sat Jun  5 12:52:45 2010


@<TRIPOS>MOLECULE
frag3-289-2/31924
   12    11     1     1     1
SMALL
USER_CHARGES


@<TRIPOS>ATOM
      1 S1          1.0460   -0.6359    0.2244 S.3        1 <1>        0.000
      2 S2         -0.7912   -0.2680   -0.5074 S.3        1 <1>        0.000
      3 C1         -1.7968   -0.3010    0.9256 C.2        1 <1>        0.000
      4 S3         -1.4205    0.4193    2.4171 S.2        1 <1>        0.000
      5 N1         -2.9383   -1.0312    0.7711 N.am       1 <1>        0.000
      6 C6          1.8285    0.9312    0.2839 C.2        1 <1>        0.000
      7 S4          2.8094    1.5412    1.4994 S.2        1 <1>        0.000
      8 N2          1.5276    1.6958   -0.8333 N.am       1 <1>        0.000
      9 H          -3.5780   -1.1500    1.5567 H.spc      1 <1>        0.000
     10 H          -3.1524   -1.4585   -0.1300 H.spc      1 <1>        0.000
     11 H           1.9041    2.6396   -0.9218 H.spc      1 <1>        0.000
     12 H           0.9298    1.3143   -1.5665 H.spc      1 <1>        0.000
@<TRIPOS>BOND
     1    1    2 1  
     2    1    6 1  
     3    2    3 1  
     4    3    4 2  
     5    3    5 am 
     6    6    7 2  
     7    6    8 am 
     8    5    9 1  
     9    5   10 1  
    10    8   11 1  
    11    8   12 1  
# Name:          frag3-289-2/31924
# Creation time: Sat Jun  5 12:52:45 2010


@<TRIPOS>MOLECULE
frag3-289-2/31924
   12    11     1     1     1
SMALL
USER_CHARGES


@<TRIPOS>ATOM
      1 S1          0.1478    0.9351   -0.7925 S.3        1 <1>        0.000
      2 S2         -0.5742   -0.8700   -0.2861 S.3        1 <1>        0.000
      3 C1         -1.5326   -0.5127    1.1389 C.2        1 <1>        0.000
      4 S3         -2.6136    0.7902    1.2790 S.2        1 <1>        0.000
      5 N1         -1.3234   -1.3606    2.1855 N.am       1 <1>        0.000
      6 C6          1.6292    1.0758    0.1334 C.2        1 <1>        0.000
      7 S4          2.0641    2.3012    1.1951 S.2        1 <1>        0.000
      8 N2          2.4673   -0.0076   -0.0723 N.am       1 <1>        0.000
      9 H          -1.8186   -1.2164    3.0655 H.spc      1 <1>        0.000
     10 H          -0.6717   -2.1392    2.0887 H.spc      1 <1>        0.000
     11 H           3.3570   -0.0655    0.4232 H.spc      1 <1>        0.000
     12 H           2.1948   -0.7476   -0.7193 H.spc      1 <1>        0.000
@<TRIPOS>BOND
     1    1    2 1  
     2    1    6 1  
     3    2    3 1  
     4    3    4 2  
     5    3    5 am 
     6    6    7 2  
     7    6    8 am 
     8    5    9 1  
     9    5   10 1  
    10    8   11 1  
    11    8   12 1  
# Name:          frag3-289-2/31924
# Creation time: Sat Jun  5 12:52:45 2010


@<TRIPOS>MOLECULE
frag3-289-2/31924
   12    11     1     1     1
SMALL
USER_CHARGES


@<TRIPOS>ATOM
      1 S1          0.1741    1.3227    0.3930 S.3        1 <1>        0.000
      2 S2         -0.3830   -0.5936    0.1649 S.3        1 <1>        0.000
      3 C1         -1.8413   -0.7177    1.1407 C.2        1 <1>        0.000
      4 S3         -2.0233   -1.6691    2.5293 S.2        1 <1>        0.000
      5 N1         -2.8606    0.0771    0.6834 N.am       1 <1>        0.000
      6 C6          1.9050    1.2974    0.0812 C.2        1 <1>        0.000
      7 S4          2.7276    2.3165   -0.9911 S.2        1 <1>        0.000
      8 N2          2.5660    0.3182    0.7794 N.am       1 <1>        0.000
      9 H          -3.7500    0.1031    1.1820 H.spc      1 <1>        0.000
     10 H          -2.7295    0.6424   -0.1554 H.spc      1 <1>        0.000
     11 H           3.5710    0.1944    0.6568 H.spc      1 <1>        0.000
     12 H           2.0523   -0.2859    1.4210 H.spc      1 <1>        0.000
@<TRIPOS>BOND
     1    1    2 1  
     2    1    6 1  
     3    2    3 1  
     4    3    4 2  
     5    3    5 am 
     6    6    7 2  
     7    6    8 am 
     8    5    9 1  
     9    5   10 1  
    10    8   11 1  
    11    8   12 1  
# Name:          frag3-289-2/31924
# Creation time: Sat Jun  5 12:52:45 2010


@<TRIPOS>MOLECULE
frag3-289-2/31924
   12    11     1     1     1
SMALL
USER_CHARGES


@<TRIPOS>ATOM
      1 S1          0.9012    0.6484    1.4084 S.3        1 <1>        0.000
      2 S2         -0.0500   -0.9682    0.7024 S.3        1 <1>        0.000
      3 C1         -1.7308   -0.6690    1.1104 C.2        1 <1>        0.000
      4 S3         -2.5927   -1.4599    2.3344 S.2        1 <1>        0.000
      5 N1         -2.3108    0.3217    0.3617 N.am       1 <1>        0.000
      6 C6          1.7594    1.2870    0.0122 C.2        1 <1>        0.000
      7 S4          2.6030    2.7426   -0.0669 S.2        1 <1>        0.000
      8 N2          1.6853    0.4488   -1.0817 N.am       1 <1>        0.000
      9 H          -3.2779    0.5940    0.5377 H.spc      1 <1>        0.000
     10 H          -1.7754    0.7867   -0.3715 H.spc      1 <1>        0.000
     11 H           2.1455    0.7074   -1.9545 H.spc      1 <1>        0.000
     12 H           1.1704   -0.4293   -1.0174 H.spc      1 <1>        0.000
@<TRIPOS>BOND
     1    1    2 1  
     2    1    6 1  
     3    2    3 1  
     4    3    4 2  
     5    3    5 am 
     6    6    7 2  
     7    6    8 am 
     8    5    9 1  
     9    5   10 1  
    10    8   11 1  
    11    8   12 1  
# Name:          frag3-289-2/31924
# Creation time: Sat Jun  5 12:52:45 2010


@<TRIPOS>MOLECULE
frag3-289-2/31924
   12    11     1     1     1
SMALL
USER_CHARGES


@<TRIPOS>ATOM
      1 S1          1.0744   -0.3905    0.5892 S.3        1 <1>        0.000
      2 S2         -0.7886   -0.1062   -0.1143 S.3        1 <1>        0.000
      3 C1         -1.8424   -0.3726    1.2499 C.2        1 <1>        0.000
      4 S3         -3.2810   -1.2404    1.2496 S.2        1 <1>        0.000
      5 N1         -1.3484    0.1775    2.4189 N.am       1 <1>        0.000
      6 C6          1.9403    0.9977   -0.0181 C.2        1 <1>        0.000
      7 S4          1.3067    2.5703   -0.1529 S.2        1 <1>        0.000
      8 N2          3.2035    0.7157   -0.4413 N.am       1 <1>        0.000
      9 H          -1.8587    0.0584    3.2940 H.spc      1 <1>        0.000
     10 H          -0.4738    0.7022    2.4058 H.spc      1 <1>        0.000
     11 H           3.7824    1.4521   -0.8451 H.spc      1 <1>        0.000
     12 H           3.5708   -0.2319   -0.3545 H.spc      1 <1>        0.000
@<TRIPOS>BOND
     1    1    2 1  
     2    1    6 1  
     3    2    3 1  
     4    3    4 2  
     5    3    5 am 
     6    6    7 2  
     7    6    8 am 
     8    5    9 1  
     9    5   10 1  
    10    8   11 1  
    11    8   12 1  
# Name:          frag3-289-2/31924
# Creation time: Sat Jun  5 12:52:45 2010


@<TRIPOS>MOLECULE
frag3-289-2/31924
   12    11     1     1     1
SMALL
USER_CHARGES


@<TRIPOS>ATOM
      1 S1          0.1885    1.1650   -0.1187 S.3        1 <1>        0.000
      2 S2         -0.3896   -0.7456    0.1455 S.3        1 <1>        0.000
      3 C1         -1.8479   -0.6017    1.0901 C.2        1 <1>        0.000
      4 S3         -2.1312    0.5727    2.2871 S.2        1 <1>        0.000
      5 N1         -2.8098   -1.5089    0.7620 N.am       1 <1>        0.000
      6 C6          1.9142    1.1572    0.1155 C.2        1 <1>        0.000
      7 S4          2.7987    2.0678    1.2147 S.2        1 <1>        0.000
      8 N2          2.5417    0.2449   -0.7153 N.am       1 <1>        0.000
      9 H          -3.7127   -1.4889    1.2361 H.spc      1 <1>        0.000
     10 H          -2.6271   -2.2081    0.0422 H.spc      1 <1>        0.000
     11 H           3.5527    0.1197   -0.6640 H.spc      1 <1>        0.000
     12 H           1.9931   -0.3021   -1.3787 H.spc      1 <1>        0.000
@<TRIPOS>BOND
     1    1    2 1  
     2    1    6 1  
     3    2    3 1  
     4    3    4 2  
     5    3    5 am 
     6    6    7 2  
     7    6    8 am 
     8    5    9 1  
     9    5   10 1  
    10    8   11 1  
    11    8   12 1  
# Name:          frag3-289-2/31924
# Creation time: Sat Jun  5 12:52:45 2010


@<TRIPOS>MOLECULE
frag3-289-2/31924
   12    11     1     1     1
SMALL
USER_CHARGES


@<TRIPOS>ATOM
      1 S1          1.0867   -0.4337    0.6574 S.3        1 <1>        0.000
      2 S2         -0.7433   -0.2836   -0.1855 S.3        1 <1>        0.000
      3 C1         -1.8460   -0.3290    1.1464 C.2        1 <1>        0.000
      4 S3         -2.2117   -1.6970    2.0672 S.2        1 <1>        0.000
      5 N1         -2.3860    0.8895    1.4707 N.am       1 <1>        0.000
      6 C6          1.9158    0.9698    0.0694 C.2        1 <1>        0.000
      7 S4          1.2181    2.4883   -0.2242 S.2        1 <1>        0.000
      8 N2          3.2310    0.7472   -0.2205 N.am       1 <1>        0.000
      9 H          -3.0121    0.9730    2.2716 H.spc      1 <1>        0.000
     10 H          -2.1615    1.7121    0.9109 H.spc      1 <1>        0.000
     11 H           3.7999    1.4958   -0.6158 H.spc      1 <1>        0.000
     12 H           3.6449   -0.1678   -0.0418 H.spc      1 <1>        0.000
@<TRIPOS>BOND
     1    1    2 1  
     2    1    6 1  
     3    2    3 1  
     4    3    4 2  
     5    3    5 am 
     6    6    7 2  
     7    6    8 am 
     8    5    9 1  
     9    5   10 1  
    10    8   11 1  
    11    8   12 1  
# Name:          frag3-289-2/31924
# Creation time: Sat Jun  5 12:52:45 2010


@<TRIPOS>MOLECULE
frag3-289-2/31924
   12    11     1     1     1
SMALL
USER_CHARGES


@<TRIPOS>ATOM
      1 S1         -0.8677   -0.4497   -0.6317 S.3        1 <1>        0.000
      2 S2          1.1178   -0.5041   -0.3558 S.3        1 <1>        0.000
      3 C1          1.5005    1.0955    0.2572 C.2        1 <1>        0.000
      4 S3          2.6269    2.1685   -0.3594 S.2        1 <1>        0.000
      5 N1          0.7018    1.4595    1.3314 N.am       1 <1>        0.000
      6 C6         -1.4709   -0.4485    1.0158 C.2        1 <1>        0.000
      7 S4         -1.1475   -1.6349    2.1784 S.2        1 <1>        0.000
      8 N2         -2.1964    0.6651    1.3450 N.am       1 <1>        0.000
      9 H           0.7996    2.3849    1.7491 H.spc      1 <1>        0.000
     10 H           0.0167    0.8018    1.7035 H.spc      1 <1>        0.000
     11 H          -2.5456    0.7835    2.2960 H.spc      1 <1>        0.000
     12 H          -2.3876    1.3762    0.6392 H.spc      1 <1>        0.000
@<TRIPOS>BOND
     1    1    2 1  
     2    1    6 1  
     3    2    3 1  
     4    3    4 2  
     5    3    5 am 
     6    6    7 2  
     7    6    8 am 
     8    5    9 1  
     9    5   10 1  
    10    8   11 1  
    11    8   12 1  
# Name:          frag3-289-2/31924
# Creation time: Sat Jun  5 12:52:45 2010


@<TRIPOS>MOLECULE
frag3-289-2/31924
   12    11     1     1     1
SMALL
USER_CHARGES


@<TRIPOS>ATOM
      1 S1          0.0306    1.1003   -0.4685 S.3        1 <1>        0.000
      2 S2         -0.4359   -0.8178   -0.1010 S.3        1 <1>        0.000
      3 C1         -1.5922   -0.6960    1.2121 C.2        1 <1>        0.000
      4 S3         -3.1919   -0.1551    1.0437 S.2        1 <1>        0.000
      5 N1         -1.0887   -1.0353    2.4356 N.am       1 <1>        0.000
      6 C6          1.6946    1.2538    0.0706 C.2        1 <1>        0.000
      7 S4          2.6066    2.6640    0.1469 S.2        1 <1>        0.000
      8 N2          2.2416    0.0374    0.4416 N.am       1 <1>        0.000
      9 H          -1.6766   -0.9654    3.2662 H.spc      1 <1>        0.000
     10 H          -0.1248   -1.3585    2.5187 H.spc      1 <1>        0.000
     11 H           3.2077   -0.0098    0.7655 H.spc      1 <1>        0.000
     12 H           1.6786   -0.8116    0.3911 H.spc      1 <1>        0.000
@<TRIPOS>BOND
     1    1    2 1  
     2    1    6 1  
     3    2    3 1  
     4    3    4 2  
     5    3    5 am 
     6    6    7 2  
     7    6    8 am 
     8    5    9 1  
     9    5   10 1  
    10    8   11 1  
    11    8   12 1  
# Name:          frag3-289-2/31924
# Creation time: Sat Jun  5 12:52:45 2010


@<TRIPOS>MOLECULE
frag3-289-2/31924
   12    11     1     1     1
SMALL
USER_CHARGES


@<TRIPOS>ATOM
      1 S1         -1.0887   -0.0775   -0.5860 S.3        1 <1>        0.000
      2 S2          0.8789   -0.4559   -0.6070 S.3        1 <1>        0.000
      3 C1          1.6507    0.8300    0.1885 C.2        1 <1>        0.000
      4 S3          1.1759    2.4218    0.2734 S.2        1 <1>        0.000
      5 N1          2.7825    0.4878    0.8686 N.am       1 <1>        0.000
      6 C6         -1.5850   -0.2333    1.0308 C.2        1 <1>        0.000
      7 S4         -0.9522   -1.2214    2.2095 S.2        1 <1>        0.000
      8 N2         -2.5976    0.6000    1.4031 N.am       1 <1>        0.000
      9 H           3.2939    1.1952    1.3963 H.spc      1 <1>        0.000
     10 H           3.1174   -0.4755    0.8495 H.spc      1 <1>        0.000
     11 H          -2.9323    0.5971    2.3666 H.spc      1 <1>        0.000
     12 H          -3.0206    1.2264    0.7181 H.spc      1 <1>        0.000
@<TRIPOS>BOND
     1    1    2 1  
     2    1    6 1  
     3    2    3 1  
     4    3    4 2  
     5    3    5 am 
     6    6    7 2  
     7    6    8 am 
     8    5    9 1  
     9    5   10 1  
    10    8   11 1  
    11    8   12 1  
# Name:          frag3-289-2/31924
# Creation time: Sat Jun  5 12:52:45 2010


@<TRIPOS>MOLECULE
frag3-289-2/31924
   12    11     1     1     1
SMALL
USER_CHARGES


@<TRIPOS>ATOM
      1 S1          0.4130    1.2195    0.9681 S.3        1 <1>        0.000
      2 S2         -0.0912   -0.7302    0.9767 S.3        1 <1>        0.000
      3 C1         -1.8331   -0.6941    1.1084 C.2        1 <1>        0.000
      4 S3         -2.6958   -0.0199    2.4081 S.2        1 <1>        0.000
      5 N1         -2.4860   -1.2291    0.0362 N.am       1 <1>        0.000
      6 C6          1.8723    1.2733    0.0095 C.2        1 <1>        0.000
      7 S4          3.4496    1.2183    0.6161 S.2        1 <1>        0.000
      8 N2          1.6358    1.3136   -1.3421 N.am       1 <1>        0.000
      9 H          -3.5056   -1.2279    0.0074 H.spc      1 <1>        0.000
     10 H          -1.9544   -1.6302   -0.7364 H.spc      1 <1>        0.000
     11 H           2.4178    1.3106   -1.9970 H.spc      1 <1>        0.000
     12 H           0.6781    1.3465   -1.6915 H.spc      1 <1>        0.000
@<TRIPOS>BOND
     1    1    2 1  
     2    1    6 1  
     3    2    3 1  
     4    3    4 2  
     5    3    5 am 
     6    6    7 2  
     7    6    8 am 
     8    5    9 1  
     9    5   10 1  
    10    8   11 1  
    11    8   12 1  
# Name:          frag3-289-2/31924
# Creation time: Sat Jun  5 12:52:45 2010


@<TRIPOS>MOLECULE
frag3-289-2/31924
   12    11     1     1     1
SMALL
USER_CHARGES


@<TRIPOS>ATOM
      1 S1          0.2739    1.4934    0.8340 S.3        1 <1>        0.000
      2 S2         -0.0593   -0.2827    1.6969 S.3        1 <1>        0.000
      3 C1         -1.7003   -0.6957    1.2240 C.2        1 <1>        0.000
      4 S3         -2.4471   -2.1953    1.4084 S.2        1 <1>        0.000
      5 N1         -2.3712    0.3677    0.6590 N.am       1 <1>        0.000
      6 C6          1.7614    1.2636   -0.0710 C.2        1 <1>        0.000
      7 S4          2.4002    2.3093   -1.2290 S.2        1 <1>        0.000
      8 N2          2.4069    0.0911    0.2587 N.am       1 <1>        0.000
      9 H          -3.3349    0.2539    0.3449 H.spc      1 <1>        0.000
     10 H          -1.9039    1.2684    0.5550 H.spc      1 <1>        0.000
     11 H           3.2842   -0.1545   -0.2001 H.spc      1 <1>        0.000
     12 H           2.0073   -0.5309    0.9615 H.spc      1 <1>        0.000
@<TRIPOS>BOND
     1    1    2 1  
     2    1    6 1  
     3    2    3 1  
     4    3    4 2  
     5    3    5 am 
     6    6    7 2  
     7    6    8 am 
     8    5    9 1  
     9    5   10 1  
    10    8   11 1  
    11    8   12 1  
# Name:          frag3-289-2/31924
# Creation time: Sat Jun  5 12:52:46 2010


@<TRIPOS>MOLECULE
frag3-289-2/31924
   12    11     1     1     1
SMALL
USER_CHARGES


@<TRIPOS>ATOM
      1 S1          0.8613   -0.4780   -0.0453 S.3        1 <1>        0.000
      2 S2         -0.9581    0.3719   -0.2427 S.3        1 <1>        0.000
      3 C1         -1.8886   -0.1999    1.0669 C.2        1 <1>        0.000
      4 S3         -1.3488   -0.5891    2.6133 S.2        1 <1>        0.000
      5 N1         -3.1915   -0.4326    0.7278 N.am       1 <1>        0.000
      6 C6          1.9603    0.8093    0.1730 C.2        1 <1>        0.000
      7 S4          1.6747    2.2786    0.9406 S.2        1 <1>        0.000
      8 N2          3.1552    0.5911   -0.4526 N.am       1 <1>        0.000
      9 H          -3.8311   -0.8400    1.4100 H.spc      1 <1>        0.000
     10 H          -3.5246   -0.1990   -0.2075 H.spc      1 <1>        0.000
     11 H           3.8708    1.3180   -0.4532 H.spc      1 <1>        0.000
     12 H           3.3317   -0.2987   -0.9190 H.spc      1 <1>        0.000
@<TRIPOS>BOND
     1    1    2 1  
     2    1    6 1  
     3    2    3 1  
     4    3    4 2  
     5    3    5 am 
     6    6    7 2  
     7    6    8 am 
     8    5    9 1  
     9    5   10 1  
    10    8   11 1  
    11    8   12 1  
# Name:          frag3-289-2/31924
# Creation time: Sat Jun  5 12:52:46 2010


@<TRIPOS>MOLECULE
frag3-289-2/31924
   12    11     1     1     1
SMALL
USER_CHARGES


@<TRIPOS>ATOM
      1 S1         -0.9185    0.2566   -0.3335 S.3        1 <1>        0.000
      2 S2          0.8872   -0.5439    0.0491 S.3        1 <1>        0.000
      3 C1          1.9521    0.8309    0.1787 C.2        1 <1>        0.000
      4 S3          2.1641    1.8232    1.5247 S.2        1 <1>        0.000
      5 N1          2.6020    1.1029   -1.0044 N.am       1 <1>        0.000
      6 C6         -1.8900   -0.2284    1.0314 C.2        1 <1>        0.000
      7 S4         -1.6524    0.2256    2.6425 S.2        1 <1>        0.000
      8 N2         -2.8798   -1.1156    0.6925 N.am       1 <1>        0.000
      9 H           3.2194    1.9119   -1.0728 H.spc      1 <1>        0.000
     10 H           2.4660    0.4953   -1.8123 H.spc      1 <1>        0.000
     11 H          -3.4819   -1.5088    1.4159 H.spc      1 <1>        0.000
     12 H          -3.0137   -1.3821   -0.2829 H.spc      1 <1>        0.000
@<TRIPOS>BOND
     1    1    2 1  
     2    1    6 1  
     3    2    3 1  
     4    3    4 2  
     5    3    5 am 
     6    6    7 2  
     7    6    8 am 
     8    5    9 1  
     9    5   10 1  
    10    8   11 1  
    11    8   12 1  
# Name:          frag3-289-2/31924
# Creation time: Sat Jun  5 12:52:46 2010


@<TRIPOS>MOLECULE
frag3-289-2/31924
   12    11     1     1     1
SMALL
USER_CHARGES


@<TRIPOS>ATOM
      1 S1         -0.1396   -0.6907    0.7357 S.3        1 <1>        0.000
      2 S2          0.1405    1.2062    0.1423 S.3        1 <1>        0.000
      3 C1          1.8817    1.3353   -0.0498 C.2        1 <1>        0.000
      4 S3          2.6788    2.0343   -1.3678 S.2        1 <1>        0.000
      5 N1          2.5806    0.7697    0.9875 N.am       1 <1>        0.000
      6 C6         -1.8086   -0.7251    1.2892 C.2        1 <1>        0.000
      7 S4         -2.7266   -2.1105    1.5897 S.2        1 <1>        0.000
      8 N2         -2.3423    0.5322    1.4541 N.am       1 <1>        0.000
      9 H           3.6005    0.7656    0.9730 H.spc      1 <1>        0.000
     10 H           2.0800    0.3535    1.7728 H.spc      1 <1>        0.000
     11 H          -3.3085    0.6396    1.7629 H.spc      1 <1>        0.000
     12 H          -1.7718    1.3569    1.2675 H.spc      1 <1>        0.000
@<TRIPOS>BOND
     1    1    2 1  
     2    1    6 1  
     3    2    3 1  
     4    3    4 2  
     5    3    5 am 
     6    6    7 2  
     7    6    8 am 
     8    5    9 1  
     9    5   10 1  
    10    8   11 1  
    11    8   12 1  
# Name:          frag3-289-2/31924
# Creation time: Sat Jun  5 12:52:46 2010


@<TRIPOS>MOLECULE
frag3-289-2/31924
   12    11     1     1     1
SMALL
USER_CHARGES


@<TRIPOS>ATOM
      1 S1         -0.5347   -0.9953    0.0661 S.3        1 <1>        0.000
      2 S2          0.4232    0.5304   -0.8400 S.3        1 <1>        0.000
      3 C1          1.7511    0.9209    0.1458 C.2        1 <1>        0.000
      4 S3          2.1290    0.3233    1.6574 S.2        1 <1>        0.000
      5 N1          2.6265    1.7612   -0.4621 N.am       1 <1>        0.000
      6 C6         -1.6828   -0.2989    1.1086 C.2        1 <1>        0.000
      7 S4         -2.0425    1.3207    1.2958 S.2        1 <1>        0.000
      8 N2         -2.4052   -1.2110    1.8095 N.am       1 <1>        0.000
      9 H           3.4966    2.0164    0.0050 H.spc      1 <1>        0.000
     10 H           2.4143    2.1375   -1.3861 H.spc      1 <1>        0.000
     11 H          -3.1495   -0.9009    2.4342 H.spc      1 <1>        0.000
     12 H          -2.2033   -2.2060    1.7111 H.spc      1 <1>        0.000
@<TRIPOS>BOND
     1    1    2 1  
     2    1    6 1  
     3    2    3 1  
     4    3    4 2  
     5    3    5 am 
     6    6    7 2  
     7    6    8 am 
     8    5    9 1  
     9    5   10 1  
    10    8   11 1  
    11    8   12 1  
# Name:          frag3-289-2/31924
# Creation time: Sat Jun  5 12:52:46 2010


@<TRIPOS>MOLECULE
frag3-289-2/31924
   12    11     1     1     1
SMALL
USER_CHARGES


@<TRIPOS>ATOM
      1 S1          0.1448    1.2439    0.0247 S.3        1 <1>        0.000
      2 S2         -0.3963   -0.6904    0.0902 S.3        1 <1>        0.000
      3 C1         -1.8343   -0.6773    1.0849 C.2        1 <1>        0.000
      4 S3         -1.8850   -0.3243    2.7430 S.2        1 <1>        0.000
      5 N1         -2.9777   -0.9395    0.3837 N.am       1 <1>        0.000
      6 C6          1.8942    1.2304    0.1178 C.2        1 <1>        0.000
      7 S4          2.8937    2.5147    0.5398 S.2        1 <1>        0.000
      8 N2          2.4252   -0.0060   -0.2032 N.am       1 <1>        0.000
      9 H          -3.8810   -0.9249    0.8572 H.spc      1 <1>        0.000
     10 H          -2.9277   -1.1498   -0.6131 H.spc      1 <1>        0.000
     11 H           3.4352   -0.1474   -0.1857 H.spc      1 <1>        0.000
     12 H           1.8067   -0.7762   -0.4574 H.spc      1 <1>        0.000
@<TRIPOS>BOND
     1    1    2 1  
     2    1    6 1  
     3    2    3 1  
     4    3    4 2  
     5    3    5 am 
     6    6    7 2  
     7    6    8 am 
     8    5    9 1  
     9    5   10 1  
    10    8   11 1  
    11    8   12 1  
# Name:          frag3-289-2/31924
# Creation time: Sat Jun  5 12:52:46 2010


@<TRIPOS>MOLECULE
frag3-289-2/31924
   12    11     1     1     1
SMALL
USER_CHARGES


@<TRIPOS>ATOM
      1 S1         -0.7435   -0.6726   -0.6026 S.3        1 <1>        0.000
      2 S2          0.2423    1.0544   -0.8622 S.3        1 <1>        0.000
      3 C1          1.5535    1.0171    0.2973 C.2        1 <1>        0.000
      4 S3          2.1588    2.2440    1.2521 S.2        1 <1>        0.000
      5 N1          2.0935   -0.2643    0.3903 N.am       1 <1>        0.000
      6 C6         -1.4765   -0.4503    0.9675 C.2        1 <1>        0.000
      7 S4         -1.2315    0.8677    2.0110 S.2        1 <1>        0.000
      8 N2         -2.3319   -1.4447    1.3274 N.am       1 <1>        0.000
      9 H           2.8568   -0.4501    1.0409 H.spc      1 <1>        0.000
     10 H           1.7254   -1.0164   -0.1922 H.spc      1 <1>        0.000
     11 H          -2.8228   -1.3969    2.2202 H.spc      1 <1>        0.000
     12 H          -2.4825   -2.2382    0.7045 H.spc      1 <1>        0.000
@<TRIPOS>BOND
     1    1    2 1  
     2    1    6 1  
     3    2    3 1  
     4    3    4 2  
     5    3    5 am 
     6    6    7 2  
     7    6    8 am 
     8    5    9 1  
     9    5   10 1  
    10    8   11 1  
    11    8   12 1  
# Name:          frag3-289-2/31924
# Creation time: Sat Jun  5 12:52:46 2010


@<TRIPOS>MOLECULE
frag3-289-2/31924
   12    11     1     1     1
SMALL
USER_CHARGES


@<TRIPOS>ATOM
      1 S1          0.8625   -0.2956   -1.0016 S.3        1 <1>        0.000
      2 S2         -1.1157   -0.4724   -0.7020 S.3        1 <1>        0.000
      3 C1         -1.2519   -0.2688    1.0576 C.2        1 <1>        0.000
      4 S3         -2.0283    1.0083    1.8503 S.2        1 <1>        0.000
      5 N1         -0.6083   -1.2550    1.7604 N.am       1 <1>        0.000
      6 C6          1.3278    0.8988    0.2283 C.2        1 <1>        0.000
      7 S4          2.3383    0.6136    1.5549 S.2        1 <1>        0.000
      8 N2          0.7402    2.1227    0.0331 N.am       1 <1>        0.000
      9 H          -0.5918   -1.2269    2.7799 H.spc      1 <1>        0.000
     10 H          -0.1461   -2.0166    1.2636 H.spc      1 <1>        0.000
     11 H           0.9094    2.8809    0.6941 H.spc      1 <1>        0.000
     12 H           0.1341    2.2747   -0.7731 H.spc      1 <1>        0.000
@<TRIPOS>BOND
     1    1    2 1  
     2    1    6 1  
     3    2    3 1  
     4    3    4 2  
     5    3    5 am 
     6    6    7 2  
     7    6    8 am 
     8    5    9 1  
     9    5   10 1  
    10    8   11 1  
    11    8   12 1  
# Name:          frag3-289-2/31924
# Creation time: Sat Jun  5 12:52:46 2010


@<TRIPOS>MOLECULE
frag3-289-2/31924
   12    11     1     1     1
SMALL
USER_CHARGES


@<TRIPOS>ATOM
      1 S1         -0.1583   -0.7133    0.7077 S.3        1 <1>        0.000
      2 S2          0.1527    1.1796    0.1164 S.3        1 <1>        0.000
      3 C1          1.8996    1.2957   -0.0465 C.2        1 <1>        0.000
      4 S3          2.8213    2.7031    0.1143 S.2        1 <1>        0.000
      5 N1          2.4925    0.0848   -0.3182 N.am       1 <1>        0.000
      6 C6         -1.8387   -0.7233    1.2190 C.2        1 <1>        0.000
      7 S4         -2.4145   -1.2690    2.7138 S.2        1 <1>        0.000
      8 N2         -2.6900   -0.2063    0.2745 N.am       1 <1>        0.000
      9 H           3.5050    0.0255   -0.4261 H.spc      1 <1>        0.000
     10 H           1.9197   -0.7540   -0.4118 H.spc      1 <1>        0.000
     11 H          -3.6897   -0.1457    0.4676 H.spc      1 <1>        0.000
     12 H          -2.3229    0.1172   -0.6205 H.spc      1 <1>        0.000
@<TRIPOS>BOND
     1    1    2 1  
     2    1    6 1  
     3    2    3 1  
     4    3    4 2  
     5    3    5 am 
     6    6    7 2  
     7    6    8 am 
     8    5    9 1  
     9    5   10 1  
    10    8   11 1  
    11    8   12 1  
# Name:          frag3-289-2/31924
# Creation time: Sat Jun  5 12:52:46 2010


@<TRIPOS>MOLECULE
frag3-289-2/31924
   12    11     1     1     1
SMALL
USER_CHARGES


@<TRIPOS>ATOM
      1 S1         -0.8355    0.9124    0.9931 S.3        1 <1>        0.000
      2 S2          1.0074    0.1218    1.1588 S.3        1 <1>        0.000
      3 C1          1.9480    1.0235   -0.0007 C.2        1 <1>        0.000
      4 S3          2.4563    2.6279    0.1908 S.2        1 <1>        0.000
      5 N1          2.2136    0.3353   -1.1539 N.am       1 <1>        0.000
      6 C6         -1.8895   -0.4703    1.1198 C.2        1 <1>        0.000
      7 S4         -2.2199   -1.3192    2.5489 S.2        1 <1>        0.000
      8 N2         -2.4157   -0.8800   -0.0758 N.am       1 <1>        0.000
      9 H           2.7239    0.7882   -1.9121 H.spc      1 <1>        0.000
     10 H           1.9012   -0.6304   -1.2549 H.spc      1 <1>        0.000
     11 H          -3.0143   -1.7050   -0.1136 H.spc      1 <1>        0.000
     12 H          -2.2091   -0.3603   -0.9288 H.spc      1 <1>        0.000
@<TRIPOS>BOND
     1    1    2 1  
     2    1    6 1  
     3    2    3 1  
     4    3    4 2  
     5    3    5 am 
     6    6    7 2  
     7    6    8 am 
     8    5    9 1  
     9    5   10 1  
    10    8   11 1  
    11    8   12 1  
# Name:          frag3-289-2/31924
# Creation time: Sat Jun  5 12:52:46 2010


@<TRIPOS>MOLECULE
frag3-289-2/31924
   12    11     1     1     1
SMALL
USER_CHARGES


@<TRIPOS>ATOM
      1 S1          0.4935    1.1043    1.1068 S.3        1 <1>        0.000
      2 S2         -0.0899   -0.7937    0.8070 S.3        1 <1>        0.000
      3 C1         -1.8179   -0.7374    1.1009 C.2        1 <1>        0.000
      4 S3         -2.5449   -0.7978    2.6329 S.2        1 <1>        0.000
      5 N1         -2.5663   -0.5971   -0.0334 N.am       1 <1>        0.000
      6 C6          1.8516    1.3168    0.0160 C.2        1 <1>        0.000
      7 S4          3.1947    2.3035    0.2773 S.2        1 <1>        0.000
      8 N2          1.7438    0.5529   -1.1266 N.am       1 <1>        0.000
      9 H          -3.5818   -0.5265    0.0311 H.spc      1 <1>        0.000
     10 H          -2.1096   -0.5630   -0.9448 H.spc      1 <1>        0.000
     11 H           2.4828    0.5791   -1.8292 H.spc      1 <1>        0.000
     12 H           0.9251   -0.0385   -1.2694 H.spc      1 <1>        0.000
@<TRIPOS>BOND
     1    1    2 1  
     2    1    6 1  
     3    2    3 1  
     4    3    4 2  
     5    3    5 am 
     6    6    7 2  
     7    6    8 am 
     8    5    9 1  
     9    5   10 1  
    10    8   11 1  
    11    8   12 1  
# Name:          frag3-289-2/31924 -- energy: -1.535296
# Creation time: Sat Jun  5 12:52:46 2010


@<TRIPOS>MOLECULE
frag3-289-2/31924 -- energy: -1.535296
   12    11     1     1     1
SMALL
USER_CHARGES


@<TRIPOS>ATOM
      1 S1         -0.4998   -1.0812   -0.1732 S.3        1 <1>        0.000
      2 S2          0.3014    0.5522   -1.0232 S.3        1 <1>        0.000
      3 C1          1.5658    1.0153    0.1265 C.2        1 <1>        0.000
      4 S3          1.5955    2.4315    1.0524 S.2        1 <1>        0.000
      5 N1          2.5576    0.0741    0.2333 N.am       1 <1>        0.000
      6 C6         -1.4934   -0.4016    1.1243 C.2        1 <1>        0.000
      7 S4         -1.2372   -0.6101    2.7846 S.2        1 <1>        0.000
      8 N2         -2.5253    0.3712    0.6564 N.am       1 <1>        0.000
      9 H           3.3324    0.2209    0.8802 H.spc      1 <1>        0.000
     10 H           2.5204   -0.7726   -0.3342 H.spc      1 <1>        0.000
     11 H          -3.1551    0.8327    1.3127 H.spc      1 <1>        0.000
     12 H          -2.6629    0.4844   -0.3479 H.spc      1 <1>        0.000
@<TRIPOS>BOND
     1    1    2 1  
     2    1    6 1  
     3    2    3 1  
     4    3    4 2  
     5    3    5 am 
     6    6    7 2  
     7    6    8 am 
     8    5    9 1  
     9    5   10 1  
    10    8   11 1  
    11    8   12 1  
# Name:          frag3-289-2/31924 -- energy: -1.540285
# Creation time: Sat Jun  5 12:52:46 2010


@<TRIPOS>MOLECULE
frag3-289-2/31924 -- energy: -1.540285
   12    11     1     1     1
SMALL
USER_CHARGES


@<TRIPOS>ATOM
      1 S1          0.8956   -0.4405   -0.6118 S.3        1 <1>        0.000
      2 S2         -1.0791   -0.0474   -0.5978 S.3        1 <1>        0.000
      3 C1         -1.4993   -0.3251    1.0739 C.2        1 <1>        0.000
      4 S3         -1.1919   -1.7411    1.9432 S.2        1 <1>        0.000
      5 N1         -2.0702    0.7545    1.6958 N.am       1 <1>        0.000
      6 C6          1.5699    0.9487    0.2031 C.2        1 <1>        0.000
      7 S4          1.6072    2.5220   -0.3961 S.2        1 <1>        0.000
      8 N2          2.0324    0.6803    1.4706 N.am       1 <1>        0.000
      9 H          -2.3106    0.7045    2.6858 H.spc      1 <1>        0.000
     10 H          -2.2547    1.6080    1.1687 H.spc      1 <1>        0.000
     11 H           2.3992    1.4353    2.0502 H.spc      1 <1>        0.000
     12 H           2.0085   -0.2737    1.8308 H.spc      1 <1>        0.000
@<TRIPOS>BOND
     1    1    2 1  
     2    1    6 1  
     3    2    3 1  
     4    3    4 2  
     5    3    5 am 
     6    6    7 2  
     7    6    8 am 
     8    5    9 1  
     9    5   10 1  
    10    8   11 1  
    11    8   12 1  
# Name:          frag3-289-2/31924 -- energy: -0.770558
# Creation time: Sat Jun  5 12:52:46 2010


@<TRIPOS>MOLECULE
frag3-289-2/31924 -- energy: -0.770558
   12    11     1     1     1
SMALL
USER_CHARGES


@<TRIPOS>ATOM
      1 S1         -0.1253   -1.2308    0.3690 S.3        1 <1>        0.000
      2 S2          1.4063   -0.1857    1.1296 S.3        1 <1>        0.000
      3 C1          1.5658    1.1714    0.0090 C.2        1 <1>        0.000
      4 S3          1.9608    2.7612    0.4138 S.2        1 <1>        0.000
      5 N1          1.3042    0.8135   -1.2938 N.am       1 <1>        0.000
      6 C6         -1.5363   -0.5023    1.1415 C.2        1 <1>        0.000
      7 S4         -2.7666   -1.3462    1.9353 S.2        1 <1>        0.000
      8 N2         -1.5443    0.8702    1.0764 N.am       1 <1>        0.000
      9 H           1.3474    1.5143   -2.0337 H.spc      1 <1>        0.000
     10 H           1.0671   -0.1525   -1.5195 H.spc      1 <1>        0.000
     11 H          -2.3016    1.3970    1.5116 H.spc      1 <1>        0.000
     12 H          -0.7930    1.3622    0.5928 H.spc      1 <1>        0.000
@<TRIPOS>BOND
     1    1    2 1  
     2    1    6 1  
     3    2    3 1  
     4    3    4 2  
     5    3    5 am 
     6    6    7 2  
     7    6    8 am 
     8    5    9 1  
     9    5   10 1  
    10    8   11 1  
    11    8   12 1  
# Name:          frag3-289-2/31924 -- energy: -1.295957
# Creation time: Sat Jun  5 12:52:46 2010


@<TRIPOS>MOLECULE
frag3-289-2/31924 -- energy: -1.295957
   12    11     1     1     1
SMALL
USER_CHARGES


@<TRIPOS>ATOM
      1 S1         -0.5160   -0.5939   -0.2135 S.3        1 <1>        0.000
      2 S2          0.0522    1.3328   -0.1963 S.3        1 <1>        0.000
      3 C1          1.7656    1.2600    0.1890 C.2        1 <1>        0.000
      4 S3          3.0272    1.5871   -0.8902 S.2        1 <1>        0.000
      5 N1          2.0214    0.8503    1.4731 N.am       1 <1>        0.000
      6 C6         -1.7095   -0.6726    1.0742 C.2        1 <1>        0.000
      7 S4         -1.4420   -1.2288    2.6496 S.2        1 <1>        0.000
      8 N2         -2.9343   -0.1836    0.6949 N.am       1 <1>        0.000
      9 H           2.9843    0.7385    1.7905 H.spc      1 <1>        0.000
     10 H           1.2487    0.6575    2.1104 H.spc      1 <1>        0.000
     11 H          -3.7009   -0.1513    1.3669 H.spc      1 <1>        0.000
     12 H          -3.0780    0.1476   -0.2591 H.spc      1 <1>        0.000
@<TRIPOS>BOND
     1    1    2 1  
     2    1    6 1  
     3    2    3 1  
     4    3    4 2  
     5    3    5 am 
     6    6    7 2  
     7    6    8 am 
     8    5    9 1  
     9    5   10 1  
    10    8   11 1  
    11    8   12 1  
# Name:          frag3-289-2/31924 -- energy: -1.575856
# Creation time: Sat Jun  5 12:52:46 2010


@<TRIPOS>MOLECULE
frag3-289-2/31924 -- energy: -1.575856
   12    11     1     1     1
SMALL
USER_CHARGES


@<TRIPOS>ATOM
      1 S1         -0.7104   -0.8326   -0.3730 S.3        1 <1>        0.000
      2 S2          1.1932   -0.8394    0.2815 S.3        1 <1>        0.000
      3 C1          1.6435    0.8458    0.2208 C.2        1 <1>        0.000
      4 S3          1.2985    2.0523    1.3412 S.2        1 <1>        0.000
      5 N1          2.2885    1.1619   -0.9565 N.am       1 <1>        0.000
      6 C6         -1.5913   -0.1872    0.9908 C.2        1 <1>        0.000
      7 S4         -1.2976   -0.5666    2.6168 S.2        1 <1>        0.000
      8 N2         -2.5598    0.7171    0.6593 N.am       1 <1>        0.000
      9 H           2.5564    2.1273   -1.1480 H.spc      1 <1>        0.000
     10 H           2.4976    0.4303   -1.6358 H.spc      1 <1>        0.000
     11 H          -3.1096    1.1670    1.3913 H.spc      1 <1>        0.000
     12 H          -2.7333    0.9425   -0.3202 H.spc      1 <1>        0.000
@<TRIPOS>BOND
     1    1    2 1  
     2    1    6 1  
     3    2    3 1  
     4    3    4 2  
     5    3    5 am 
     6    6    7 2  
     7    6    8 am 
     8    5    9 1  
     9    5   10 1  
    10    8   11 1  
    11    8   12 1  
# Name:          frag3-289-2/31924 -- energy: -1.105202
# Creation time: Sat Jun  5 12:52:46 2010


@<TRIPOS>MOLECULE
frag3-289-2/31924 -- energy: -1.105202
   12    11     1     1     1
SMALL
USER_CHARGES


@<TRIPOS>ATOM
      1 S1          0.8648   -0.4530   -0.0144 S.3        1 <1>        0.000
      2 S2         -0.9543    0.3804   -0.2035 S.3        1 <1>        0.000
      3 C1         -1.8813   -0.3377    1.1052 C.2        1 <1>        0.000
      4 S3         -2.3707    0.4391    2.5248 S.2        1 <1>        0.000
      5 N1         -2.1577   -1.6668    0.8928 N.am       1 <1>        0.000
      6 C6          1.9477    0.9268    0.0926 C.2        1 <1>        0.000
      7 S4          2.7467    1.4630    1.4827 S.2        1 <1>        0.000
      8 N2          2.0694    1.5995   -1.0993 N.am       1 <1>        0.000
      9 H          -2.6659   -2.2010    1.5976 H.spc      1 <1>        0.000
     10 H          -1.8547   -2.1192    0.0303 H.spc      1 <1>        0.000
     11 H           2.6491    2.4369   -1.1554 H.spc      1 <1>        0.000
     12 H           1.5800    1.2615   -1.9280 H.spc      1 <1>        0.000
@<TRIPOS>BOND
     1    1    2 1  
     2    1    6 1  
     3    2    3 1  
     4    3    4 2  
     5    3    5 am 
     6    6    7 2  
     7    6    8 am 
     8    5    9 1  
     9    5   10 1  
    10    8   11 1  
    11    8   12 1  
# Name:          frag3-289-2/31924 -- energy: 2.012801
# Creation time: Sat Jun  5 12:52:46 2010


@<TRIPOS>MOLECULE
frag3-289-2/31924 -- energy: 2.012801
   12    11     1     1     1
SMALL
USER_CHARGES


@<TRIPOS>ATOM
      1 S1         -0.5604   -1.0429   -0.3027 S.3        1 <1>        0.000
      2 S2          1.3707   -0.6733    0.0942 S.3        1 <1>        0.000
      3 C1          1.4371    1.0994    0.0958 C.2        1 <1>        0.000
      4 S3          2.4046    2.0559    1.0993 S.2        1 <1>        0.000
      5 N1          0.5806    1.6655   -0.8159 N.am       1 <1>        0.000
      6 C6         -1.3896   -0.4290    1.1392 C.2        1 <1>        0.000
      7 S4         -3.0391   -0.0894    1.2682 S.2        1 <1>        0.000
      8 N2         -0.5393   -0.2348    2.2028 N.am       1 <1>        0.000
      9 H           0.5198    2.6805   -0.8967 H.spc      1 <1>        0.000
     10 H           0.0051    1.0711   -1.4124 H.spc      1 <1>        0.000
     11 H          -0.9021    0.1198    3.0877 H.spc      1 <1>        0.000
     12 H           0.4541   -0.4454    2.1066 H.spc      1 <1>        0.000
@<TRIPOS>BOND
     1    1    2 1  
     2    1    6 1  
     3    2    3 1  
     4    3    4 2  
     5    3    5 am 
     6    6    7 2  
     7    6    8 am 
     8    5    9 1  
     9    5   10 1  
    10    8   11 1  
    11    8   12 1  
# Name:          frag3-289-2/31924 -- energy: -1.686718
# Creation time: Sat Jun  5 12:52:46 2010


@<TRIPOS>MOLECULE
frag3-289-2/31924 -- energy: -1.686718
   12    11     1     1     1
SMALL
USER_CHARGES


@<TRIPOS>ATOM
      1 S1          1.4728   -0.5785    0.7696 S.3        1 <1>        0.000
      2 S2          0.0245   -0.3752    2.1491 S.3        1 <1>        0.000
      3 C1         -1.4259   -0.3325    1.1711 C.2        1 <1>        0.000
      4 S3         -2.1385   -1.6508    0.4012 S.2        1 <1>        0.000
      5 N1         -1.9354    0.9332    0.9895 N.am       1 <1>        0.000
      6 C6          1.4430    0.9742   -0.0359 C.2        1 <1>        0.000
      7 S4          1.8609    2.4546    0.6589 S.2        1 <1>        0.000
      8 N2          0.9632    0.9264   -1.3226 N.am       1 <1>        0.000
      9 H          -2.7465    1.0749    0.3875 H.spc      1 <1>        0.000
     10 H          -1.5019    1.7294    1.4569 H.spc      1 <1>        0.000
     11 H           0.8588    1.7869   -1.8603 H.spc      1 <1>        0.000
     12 H           0.7114    0.0304   -1.7401 H.spc      1 <1>        0.000
@<TRIPOS>BOND
     1    1    2 1  
     2    1    6 1  
     3    2    3 1  
     4    3    4 2  
     5    3    5 am 
     6    6    7 2  
     7    6    8 am 
     8    5    9 1  
     9    5   10 1  
    10    8   11 1  
    11    8   12 1  
# Name:          frag3-289-2/31924 -- energy: 0.291215
# Creation time: Sat Jun  5 12:52:46 2010


@<TRIPOS>MOLECULE
frag3-289-2/31924 -- energy: 0.291215
   12    11     1     1     1
SMALL
USER_CHARGES


@<TRIPOS>ATOM
      1 S1          0.1722    1.0829   -0.6591 S.3        1 <1>        0.000
      2 S2         -0.5621   -0.7661   -0.3726 S.3        1 <1>        0.000
      3 C1         -1.6215   -0.5466    1.0111 C.2        1 <1>        0.000
      4 S3         -1.1656    0.0848    2.5205 S.2        1 <1>        0.000
      5 N1         -2.9176   -0.8906    0.7585 N.am       1 <1>        0.000
      6 C6          1.6821    1.1053    0.2433 C.2        1 <1>        0.000
      7 S4          2.4785    2.4493    0.8576 S.2        1 <1>        0.000
      8 N2          2.1988   -0.1676    0.4216 N.am       1 <1>        0.000
      9 H          -3.6274   -0.7697    1.4810 H.spc      1 <1>        0.000
     10 H          -3.1766   -1.2686   -0.1528 H.spc      1 <1>        0.000
     11 H           3.0730   -0.2964    0.9312 H.spc      1 <1>        0.000
     12 H           1.7051   -0.9760    0.0433 H.spc      1 <1>        0.000
@<TRIPOS>BOND
     1    1    2 1  
     2    1    6 1  
     3    2    3 1  
     4    3    4 2  
     5    3    5 am 
     6    6    7 2  
     7    6    8 am 
     8    5    9 1  
     9    5   10 1  
    10    8   11 1  
    11    8   12 1  
# Name:          frag3-289-2/31924 -- energy: -2.019219
# Creation time: Sat Jun  5 12:52:46 2010


@<TRIPOS>MOLECULE
frag3-289-2/31924 -- energy: -2.019219
   12    11     1     1     1
SMALL
USER_CHARGES


@<TRIPOS>ATOM
      1 S1         -0.5070   -1.2314   -0.0974 S.3        1 <1>        0.000
      2 S2          1.4029   -0.7842    0.3029 S.3        1 <1>        0.000
      3 C1          1.4405    0.9666    0.0938 C.2        1 <1>        0.000
      4 S3          1.4233    2.1303    1.3173 S.2        1 <1>        0.000
      5 N1          1.4206    1.3410   -1.2303 N.am       1 <1>        0.000
      6 C6         -1.3953   -0.2766    1.0931 C.2        1 <1>        0.000
      7 S4         -1.9715   -0.8351    2.5749 S.2        1 <1>        0.000
      8 N2         -1.5489    1.0407    0.7267 N.am       1 <1>        0.000
      9 H           1.3952    2.3295   -1.4805 H.spc      1 <1>        0.000
     10 H           1.4312    0.6300   -1.9616 H.spc      1 <1>        0.000
     11 H          -2.0168    1.6937    1.3553 H.spc      1 <1>        0.000
     12 H          -1.1949    1.3643   -0.1735 H.spc      1 <1>        0.000
@<TRIPOS>BOND
     1    1    2 1  
     2    1    6 1  
     3    2    3 1  
     4    3    4 2  
     5    3    5 am 
     6    6    7 2  
     7    6    8 am 
     8    5    9 1  
     9    5   10 1  
    10    8   11 1  
    11    8   12 1  
# Name:          frag3-289-2/31924 -- energy: -1.185801
# Creation time: Sat Jun  5 12:52:46 2010


@<TRIPOS>MOLECULE
frag3-289-2/31924 -- energy: -1.185801
   12    11     1     1     1
SMALL
USER_CHARGES


@<TRIPOS>ATOM
      1 S1          0.9490   -0.4304   -0.1377 S.3        1 <1>        0.000
      2 S2         -0.9712    0.1175   -0.3850 S.3        1 <1>        0.000
      3 C1         -1.7234   -0.4322    1.0872 C.2        1 <1>        0.000
      4 S3         -1.5238   -1.9748    1.7647 S.2        1 <1>        0.000
      5 N1         -2.4867    0.5076    1.7172 N.am       1 <1>        0.000
      6 C6          1.7782    1.0651    0.1863 C.2        1 <1>        0.000
      7 S4          2.4813    2.0707   -0.9666 S.2        1 <1>        0.000
      8 N2          1.7611    1.4279    1.5150 N.am       1 <1>        0.000
      9 H          -2.9423    0.2849    2.6022 H.spc      1 <1>        0.000
     10 H          -2.6015    1.4326    1.3030 H.spc      1 <1>        0.000
     11 H           2.1767    2.3123    1.8076 H.spc      1 <1>        0.000
     12 H           1.3329    0.8122    2.2063 H.spc      1 <1>        0.000
@<TRIPOS>BOND
     1    1    2 1  
     2    1    6 1  
     3    2    3 1  
     4    3    4 2  
     5    3    5 am 
     6    6    7 2  
     7    6    8 am 
     8    5    9 1  
     9    5   10 1  
    10    8   11 1  
    11    8   12 1  
# Name:          frag3-289-2/31924 -- energy: -1.332496
# Creation time: Sat Jun  5 12:52:46 2010


@<TRIPOS>MOLECULE
frag3-289-2/31924 -- energy: -1.332496
   12    11     1     1     1
SMALL
USER_CHARGES


@<TRIPOS>ATOM
      1 S1          0.2859    0.8449   -0.6956 S.3        1 <1>        0.000
      2 S2         -0.5011   -0.8943   -0.0567 S.3        1 <1>        0.000
      3 C1         -1.7198   -0.4039    1.0802 C.2        1 <1>        0.000
      4 S3         -1.6335    0.9205    2.1351 S.2        1 <1>        0.000
      5 N1         -2.8548   -1.1624    1.0256 N.am       1 <1>        0.000
      6 C6          1.7920    0.9911    0.1571 C.2        1 <1>        0.000
      7 S4          2.0575    1.6119    1.6954 S.2        1 <1>        0.000
      8 N2          2.8384    0.4436   -0.5600 N.am       1 <1>        0.000
      9 H          -3.6512   -0.9321    1.6198 H.spc      1 <1>        0.000
     10 H          -2.9058   -1.9590    0.3906 H.spc      1 <1>        0.000
     11 H           3.7744    0.4158   -0.1556 H.spc      1 <1>        0.000
     12 H           2.6749    0.0672   -1.4938 H.spc      1 <1>        0.000
@<TRIPOS>BOND
     1    1    2 1  
     2    1    6 1  
     3    2    3 1  
     4    3    4 2  
     5    3    5 am 
     6    6    7 2  
     7    6    8 am 
     8    5    9 1  
     9    5   10 1  
    10    8   11 1  
    11    8   12 1  
# Name:          frag3-289-2/31924 -- energy: -0.211946
# Creation time: Sat Jun  5 12:52:46 2010


@<TRIPOS>MOLECULE
frag3-289-2/31924 -- energy: -0.211946
   12    11     1     1     1
SMALL
USER_CHARGES


@<TRIPOS>ATOM
      1 S1          0.1301    0.5814   -0.9568 S.3        1 <1>        0.000
      2 S2         -0.3494   -1.1241   -0.0226 S.3        1 <1>        0.000
      3 C1         -1.3829   -0.5784    1.3021 C.2        1 <1>        0.000
      4 S3         -2.9721   -1.0790    1.5761 S.2        1 <1>        0.000
      5 N1         -0.7842    0.3609    2.1072 N.am       1 <1>        0.000
      6 C6          1.4914    1.1950   -0.0127 C.2        1 <1>        0.000
      7 S4          1.9109    2.8114    0.2102 S.2        1 <1>        0.000
      8 N2          2.2208    0.1842    0.5774 N.am       1 <1>        0.000
      9 H          -1.3009    0.7685    2.8865 H.spc      1 <1>        0.000
     10 H           0.1768    0.6504    1.9255 H.spc      1 <1>        0.000
     11 H           3.0277    0.4102    1.1590 H.spc      1 <1>        0.000
     12 H           1.9533   -0.7894    0.4323 H.spc      1 <1>        0.000
@<TRIPOS>BOND
     1    1    2 1  
     2    1    6 1  
     3    2    3 1  
     4    3    4 2  
     5    3    5 am 
     6    6    7 2  
     7    6    8 am 
     8    5    9 1  
     9    5   10 1  
    10    8   11 1  
    11    8   12 1  
# Name:          frag3-289-2/31924 -- energy: 2.412202
# Creation time: Sat Jun  5 12:52:46 2010


@<TRIPOS>MOLECULE
frag3-289-2/31924 -- energy: 2.412202
   12    11     1     1     1
SMALL
USER_CHARGES


@<TRIPOS>ATOM
      1 S1         -0.2483   -0.8900    0.3942 S.3        1 <1>        0.000
      2 S2          1.0875    0.2896    1.3142 S.3        1 <1>        0.000
      3 C1          1.8441    1.1639   -0.0061 C.2        1 <1>        0.000
      4 S3          1.6067    2.7934   -0.3910 S.2        1 <1>        0.000
      5 N1          2.6597    0.3666   -0.7699 N.am       1 <1>        0.000
      6 C6         -1.7743   -0.5362    1.1909 C.2        1 <1>        0.000
      7 S4         -3.2263   -1.3666    0.9871 S.2        1 <1>        0.000
      8 N2         -1.6846    0.5306    2.0616 N.am       1 <1>        0.000
      9 H           3.1344    0.7549   -1.5849 H.spc      1 <1>        0.000
     10 H           2.7910   -0.6142   -0.5225 H.spc      1 <1>        0.000
     11 H          -2.5040    0.8261    2.5923 H.spc      1 <1>        0.000
     12 H          -0.7989    1.0237    2.1745 H.spc      1 <1>        0.000
@<TRIPOS>BOND
     1    1    2 1  
     2    1    6 1  
     3    2    3 1  
     4    3    4 2  
     5    3    5 am 
     6    6    7 2  
     7    6    8 am 
     8    5    9 1  
     9    5   10 1  
    10    8   11 1  
    11    8   12 1  
# Name:          frag3-289-2/31924 -- energy: -1.095416
# Creation time: Sat Jun  5 12:52:46 2010


@<TRIPOS>MOLECULE
frag3-289-2/31924 -- energy: -1.095416
   12    11     1     1     1
SMALL
USER_CHARGES


@<TRIPOS>ATOM
      1 S1         -0.2959   -0.8979    0.3225 S.3        1 <1>        0.000
      2 S2          0.2016    0.8525   -0.5236 S.3        1 <1>        0.000
      3 C1          1.8503    1.1277    0.0151 C.2        1 <1>        0.000
      4 S3          2.3461    2.2415    1.1857 S.2        1 <1>        0.000
      5 N1          2.7547    0.2942   -0.5982 N.am       1 <1>        0.000
      6 C6         -1.7846   -0.5399    1.1840 C.2        1 <1>        0.000
      7 S4         -1.9405   -0.3004    2.8497 S.2        1 <1>        0.000
      8 N2         -2.8670   -0.4263    0.3458 N.am       1 <1>        0.000
      9 H           3.7426    0.3419   -0.3490 H.spc      1 <1>        0.000
     10 H           2.4380   -0.3721   -1.3026 H.spc      1 <1>        0.000
     11 H          -3.7844   -0.1938    0.7262 H.spc      1 <1>        0.000
     12 H          -2.7533   -0.5745   -0.6570 H.spc      1 <1>        0.000
@<TRIPOS>BOND
     1    1    2 1  
     2    1    6 1  
     3    2    3 1  
     4    3    4 2  
     5    3    5 am 
     6    6    7 2  
     7    6    8 am 
     8    5    9 1  
     9    5   10 1  
    10    8   11 1  
    11    8   12 1  
# Name:          frag3-289-2/31924 -- energy: -0.936001
# Creation time: Sat Jun  5 12:52:46 2010


@<TRIPOS>MOLECULE
frag3-289-2/31924 -- energy: -0.936001
   12    11     1     1     1
SMALL
USER_CHARGES


@<TRIPOS>ATOM
      1 S1         -0.4615   -1.0397   -0.1840 S.3        1 <1>        0.000
      2 S2          1.3093   -0.6212    0.6688 S.3        1 <1>        0.000
      3 C1          1.6211    1.0445    0.2000 C.2        1 <1>        0.000
      4 S3          2.2659    2.2689    1.1495 S.2        1 <1>        0.000
      5 N1          1.2400    1.2909   -1.1090 N.am       1 <1>        0.000
      6 C6         -1.6028   -0.3748    0.9751 C.2        1 <1>        0.000
      7 S4         -1.5705   -0.6742    2.6477 S.2        1 <1>        0.000
      8 N2         -2.5370    0.4570    0.4330 N.am       1 <1>        0.000
      9 H           1.3502    2.2244   -1.5051 H.spc      1 <1>        0.000
     10 H           0.8493    0.5389   -1.6766 H.spc      1 <1>        0.000
     11 H          -3.2276    0.9082    1.0329 H.spc      1 <1>        0.000
     12 H          -2.5453    0.6282   -0.5725 H.spc      1 <1>        0.000
@<TRIPOS>BOND
     1    1    2 1  
     2    1    6 1  
     3    2    3 1  
     4    3    4 2  
     5    3    5 am 
     6    6    7 2  
     7    6    8 am 
     8    5    9 1  
     9    5   10 1  
    10    8   11 1  
    11    8   12 1  
# Name:          frag3-289-2/31924 -- energy: -0.987654
# Creation time: Sat Jun  5 12:52:46 2010


@<TRIPOS>MOLECULE
frag3-289-2/31924 -- energy: -0.987654
   12    11     1     1     1
SMALL
USER_CHARGES


@<TRIPOS>ATOM
      1 S1         -0.0394    1.2441   -0.3346 S.3        1 <1>        0.000
      2 S2         -0.4727   -0.7072   -0.1273 S.3        1 <1>        0.000
      3 C1         -1.5690   -0.7302    1.2474 C.2        1 <1>        0.000
      4 S3         -3.2508   -0.8875    1.1540 S.2        1 <1>        0.000
      5 N1         -0.9390   -0.5504    2.4536 N.am       1 <1>        0.000
      6 C6          1.6725    1.3195    0.0569 C.2        1 <1>        0.000
      7 S4          2.9244    1.5361   -1.0599 S.2        1 <1>        0.000
      8 N2          1.9386    1.1271    1.3908 N.am       1 <1>        0.000
      9 H          -1.4860   -0.5097    3.3136 H.spc      1 <1>        0.000
     10 H           0.0761   -0.4575    2.4899 H.spc      1 <1>        0.000
     11 H           2.9034    1.1132    1.7216 H.spc      1 <1>        0.000
     12 H           1.1714    0.9981    2.0505 H.spc      1 <1>        0.000
@<TRIPOS>BOND
     1    1    2 1  
     2    1    6 1  
     3    2    3 1  
     4    3    4 2  
     5    3    5 am 
     6    6    7 2  
     7    6    8 am 
     8    5    9 1  
     9    5   10 1  
    10    8   11 1  
    11    8   12 1  
# Name:          frag3-289-2/31924 -- energy: -1.347763
# Creation time: Sat Jun  5 12:52:46 2010


@<TRIPOS>MOLECULE
frag3-289-2/31924 -- energy: -1.347763
   12    11     1     1     1
SMALL
USER_CHARGES


@<TRIPOS>ATOM
      1 S1         -0.8782   -0.0303   -0.5124 S.3        1 <1>        0.000
      2 S2          0.0831    1.6360    0.0995 S.3        1 <1>        0.000
      3 C1          1.7308    1.1312    0.3125 C.2        1 <1>        0.000
      4 S3          2.8649    0.9407   -0.9184 S.2        1 <1>        0.000
      5 N1          2.0556    0.8043    1.6078 N.am       1 <1>        0.000
      6 C6         -1.6530   -0.5815    0.9404 C.2        1 <1>        0.000
      7 S4         -1.0710   -0.3835    2.5235 S.2        1 <1>        0.000
      8 N2         -2.8676   -1.1655    0.7279 N.am       1 <1>        0.000
      9 H           2.9852    0.4454    1.8254 H.spc      1 <1>        0.000
     10 H           1.3669    0.9207    2.3512 H.spc      1 <1>        0.000
     11 H          -3.4263   -1.4833    1.5199 H.spc      1 <1>        0.000
     12 H          -3.2170   -1.2843   -0.2230 H.spc      1 <1>        0.000
@<TRIPOS>BOND
     1    1    2 1  
     2    1    6 1  
     3    2    3 1  
     4    3    4 2  
     5    3    5 am 
     6    6    7 2  
     7    6    8 am 
     8    5    9 1  
     9    5   10 1  
    10    8   11 1  
    11    8   12 1  
# Name:          frag3-289-2/31924 -- energy: -1.017638
# Creation time: Sat Jun  5 12:52:46 2010


@<TRIPOS>MOLECULE
frag3-289-2/31924 -- energy: -1.017638
   12    11     1     1     1
SMALL
USER_CHARGES


@<TRIPOS>ATOM
      1 S1         -0.5232   -0.6276   -0.0692 S.3        1 <1>        0.000
      2 S2          1.0835   -0.1616    1.0519 S.3        1 <1>        0.000
      3 C1          1.9052    1.0708    0.1303 C.2        1 <1>        0.000
      4 S3          1.9606    2.7203    0.4655 S.2        1 <1>        0.000
      5 N1          2.5034    0.5614   -1.0041 N.am       1 <1>        0.000
      6 C6         -1.8601   -0.4385    1.0381 C.2        1 <1>        0.000
      7 S4         -1.9244   -1.1049    2.6020 S.2        1 <1>        0.000
      8 N2         -2.8804    0.3314    0.5665 N.am       1 <1>        0.000
      9 H           2.9859    1.1858   -1.6504 H.spc      1 <1>        0.000
     10 H           2.4631   -0.4395   -1.1963 H.spc      1 <1>        0.000
     11 H          -3.6947    0.5139    1.1530 H.spc      1 <1>        0.000
     12 H          -2.8299    0.7253   -0.3730 H.spc      1 <1>        0.000
@<TRIPOS>BOND
     1    1    2 1  
     2    1    6 1  
     3    2    3 1  
     4    3    4 2  
     5    3    5 am 
     6    6    7 2  
     7    6    8 am 
     8    5    9 1  
     9    5   10 1  
    10    8   11 1  
    11    8   12 1  
# Name:          frag3-289-2/31924 -- energy: -0.958381
# Creation time: Sat Jun  5 12:52:46 2010


@<TRIPOS>MOLECULE
frag3-289-2/31924 -- energy: -0.958381
   12    11     1     1     1
SMALL
USER_CHARGES


@<TRIPOS>ATOM
      1 S1          1.0460   -0.6359    0.2244 S.3        1 <1>        0.000
      2 S2         -0.7912   -0.2680   -0.5074 S.3        1 <1>        0.000
      3 C1         -1.7968   -0.3010    0.9256 C.2        1 <1>        0.000
      4 S3         -1.4205    0.4193    2.4171 S.2        1 <1>        0.000
      5 N1         -2.9383   -1.0312    0.7711 N.am       1 <1>        0.000
      6 C6          1.8285    0.9312    0.2839 C.2        1 <1>        0.000
      7 S4          2.8094    1.5412    1.4994 S.2        1 <1>        0.000
      8 N2          1.5276    1.6958   -0.8333 N.am       1 <1>        0.000
      9 H          -3.5780   -1.1500    1.5567 H.spc      1 <1>        0.000
     10 H          -3.1524   -1.4585   -0.1300 H.spc      1 <1>        0.000
     11 H           1.9041    2.6396   -0.9218 H.spc      1 <1>        0.000
     12 H           0.9298    1.3143   -1.5665 H.spc      1 <1>        0.000
@<TRIPOS>BOND
     1    1    2 1  
     2    1    6 1  
     3    2    3 1  
     4    3    4 2  
     5    3    5 am 
     6    6    7 2  
     7    6    8 am 
     8    5    9 1  
     9    5   10 1  
    10    8   11 1  
    11    8   12 1  
# Name:          frag3-289-2/31924 -- energy: -1.215930
# Creation time: Sat Jun  5 12:52:46 2010


@<TRIPOS>MOLECULE
frag3-289-2/31924 -- energy: -1.215930
   12    11     1     1     1
SMALL
USER_CHARGES


@<TRIPOS>ATOM
      1 S1          0.1478    0.9351   -0.7925 S.3        1 <1>        0.000
      2 S2         -0.5742   -0.8700   -0.2861 S.3        1 <1>        0.000
      3 C1         -1.5326   -0.5127    1.1389 C.2        1 <1>        0.000
      4 S3         -2.6136    0.7902    1.2790 S.2        1 <1>        0.000
      5 N1         -1.3234   -1.3606    2.1855 N.am       1 <1>        0.000
      6 C6          1.6292    1.0758    0.1334 C.2        1 <1>        0.000
      7 S4          2.0641    2.3012    1.1951 S.2        1 <1>        0.000
      8 N2          2.4673   -0.0076   -0.0723 N.am       1 <1>        0.000
      9 H          -1.8186   -1.2164    3.0655 H.spc      1 <1>        0.000
     10 H          -0.6717   -2.1392    2.0887 H.spc      1 <1>        0.000
     11 H           3.3570   -0.0655    0.4232 H.spc      1 <1>        0.000
     12 H           2.1948   -0.7476   -0.7193 H.spc      1 <1>        0.000
@<TRIPOS>BOND
     1    1    2 1  
     2    1    6 1  
     3    2    3 1  
     4    3    4 2  
     5    3    5 am 
     6    6    7 2  
     7    6    8 am 
     8    5    9 1  
     9    5   10 1  
    10    8   11 1  
    11    8   12 1  
# Name:          frag3-289-2/31924 -- energy: -1.004928
# Creation time: Sat Jun  5 12:52:46 2010


@<TRIPOS>MOLECULE
frag3-289-2/31924 -- energy: -1.004928
   12    11     1     1     1
SMALL
USER_CHARGES


@<TRIPOS>ATOM
      1 S1          0.1741    1.3227    0.3930 S.3        1 <1>        0.000
      2 S2         -0.3830   -0.5936    0.1649 S.3        1 <1>        0.000
      3 C1         -1.8413   -0.7177    1.1407 C.2        1 <1>        0.000
      4 S3         -2.0233   -1.6691    2.5293 S.2        1 <1>        0.000
      5 N1         -2.8606    0.0771    0.6834 N.am       1 <1>        0.000
      6 C6          1.9050    1.2974    0.0812 C.2        1 <1>        0.000
      7 S4          2.7276    2.3165   -0.9911 S.2        1 <1>        0.000
      8 N2          2.5660    0.3182    0.7794 N.am       1 <1>        0.000
      9 H          -3.7500    0.1031    1.1820 H.spc      1 <1>        0.000
     10 H          -2.7295    0.6424   -0.1554 H.spc      1 <1>        0.000
     11 H           3.5710    0.1944    0.6568 H.spc      1 <1>        0.000
     12 H           2.0523   -0.2859    1.4210 H.spc      1 <1>        0.000
@<TRIPOS>BOND
     1    1    2 1  
     2    1    6 1  
     3    2    3 1  
     4    3    4 2  
     5    3    5 am 
     6    6    7 2  
     7    6    8 am 
     8    5    9 1  
     9    5   10 1  
    10    8   11 1  
    11    8   12 1  
# Name:          frag3-289-2/31924 -- energy: 2.928596
# Creation time: Sat Jun  5 12:52:46 2010


@<TRIPOS>MOLECULE
frag3-289-2/31924 -- energy: 2.928596
   12    11     1     1     1
SMALL
USER_CHARGES


@<TRIPOS>ATOM
      1 S1          0.9012    0.6484    1.4084 S.3        1 <1>        0.000
      2 S2         -0.0500   -0.9682    0.7024 S.3        1 <1>        0.000
      3 C1         -1.7308   -0.6690    1.1104 C.2        1 <1>        0.000
      4 S3         -2.5927   -1.4599    2.3344 S.2        1 <1>        0.000
      5 N1         -2.3108    0.3217    0.3617 N.am       1 <1>        0.000
      6 C6          1.7594    1.2870    0.0122 C.2        1 <1>        0.000
      7 S4          2.6030    2.7426   -0.0669 S.2        1 <1>        0.000
      8 N2          1.6853    0.4488   -1.0817 N.am       1 <1>        0.000
      9 H          -3.2779    0.5940    0.5377 H.spc      1 <1>        0.000
     10 H          -1.7754    0.7867   -0.3715 H.spc      1 <1>        0.000
     11 H           2.1455    0.7074   -1.9545 H.spc      1 <1>        0.000
     12 H           1.1704   -0.4293   -1.0174 H.spc      1 <1>        0.000
@<TRIPOS>BOND
     1    1    2 1  
     2    1    6 1  
     3    2    3 1  
     4    3    4 2  
     5    3    5 am 
     6    6    7 2  
     7    6    8 am 
     8    5    9 1  
     9    5   10 1  
    10    8   11 1  
    11    8   12 1  
# Name:          frag3-289-2/31924 -- energy: -0.912283
# Creation time: Sat Jun  5 12:52:46 2010


@<TRIPOS>MOLECULE
frag3-289-2/31924 -- energy: -0.912283
   12    11     1     1     1
SMALL
USER_CHARGES


@<TRIPOS>ATOM
      1 S1          1.0744   -0.3905    0.5892 S.3        1 <1>        0.000
      2 S2         -0.7886   -0.1062   -0.1143 S.3        1 <1>        0.000
      3 C1         -1.8424   -0.3726    1.2499 C.2        1 <1>        0.000
      4 S3         -3.2810   -1.2404    1.2496 S.2        1 <1>        0.000
      5 N1         -1.3484    0.1775    2.4189 N.am       1 <1>        0.000
      6 C6          1.9403    0.9977   -0.0181 C.2        1 <1>        0.000
      7 S4          1.3067    2.5703   -0.1529 S.2        1 <1>        0.000
      8 N2          3.2035    0.7157   -0.4413 N.am       1 <1>        0.000
      9 H          -1.8587    0.0584    3.2940 H.spc      1 <1>        0.000
     10 H          -0.4738    0.7022    2.4058 H.spc      1 <1>        0.000
     11 H           3.7824    1.4521   -0.8451 H.spc      1 <1>        0.000
     12 H           3.5708   -0.2319   -0.3545 H.spc      1 <1>        0.000
@<TRIPOS>BOND
     1    1    2 1  
     2    1    6 1  
     3    2    3 1  
     4    3    4 2  
     5    3    5 am 
     6    6    7 2  
     7    6    8 am 
     8    5    9 1  
     9    5   10 1  
    10    8   11 1  
    11    8   12 1  
# Name:          frag3-289-2/31924 -- energy: -0.961159
# Creation time: Sat Jun  5 12:52:46 2010


@<TRIPOS>MOLECULE
frag3-289-2/31924 -- energy: -0.961159
   12    11     1     1     1
SMALL
USER_CHARGES


@<TRIPOS>ATOM
      1 S1          0.1885    1.1650   -0.1187 S.3        1 <1>        0.000
      2 S2         -0.3896   -0.7456    0.1455 S.3        1 <1>        0.000
      3 C1         -1.8479   -0.6017    1.0901 C.2        1 <1>        0.000
      4 S3         -2.1312    0.5727    2.2871 S.2        1 <1>        0.000
      5 N1         -2.8098   -1.5089    0.7620 N.am       1 <1>        0.000
      6 C6          1.9142    1.1572    0.1155 C.2        1 <1>        0.000
      7 S4          2.7987    2.0678    1.2147 S.2        1 <1>        0.000
      8 N2          2.5417    0.2449   -0.7153 N.am       1 <1>        0.000
      9 H          -3.7127   -1.4889    1.2361 H.spc      1 <1>        0.000
     10 H          -2.6271   -2.2081    0.0422 H.spc      1 <1>        0.000
     11 H           3.5527    0.1197   -0.6640 H.spc      1 <1>        0.000
     12 H           1.9931   -0.3021   -1.3787 H.spc      1 <1>        0.000
@<TRIPOS>BOND
     1    1    2 1  
     2    1    6 1  
     3    2    3 1  
     4    3    4 2  
     5    3    5 am 
     6    6    7 2  
     7    6    8 am 
     8    5    9 1  
     9    5   10 1  
    10    8   11 1  
    11    8   12 1  
# Name:          frag3-289-2/31924 -- energy: -1.072208
# Creation time: Sat Jun  5 12:52:46 2010


@<TRIPOS>MOLECULE
frag3-289-2/31924 -- energy: -1.072208
   12    11     1     1     1
SMALL
USER_CHARGES


@<TRIPOS>ATOM
      1 S1          1.0867   -0.4337    0.6574 S.3        1 <1>        0.000
      2 S2         -0.7433   -0.2836   -0.1855 S.3        1 <1>        0.000
      3 C1         -1.8460   -0.3290    1.1464 C.2        1 <1>        0.000
      4 S3         -2.2117   -1.6970    2.0672 S.2        1 <1>        0.000
      5 N1         -2.3860    0.8895    1.4707 N.am       1 <1>        0.000
      6 C6          1.9158    0.9698    0.0694 C.2        1 <1>        0.000
      7 S4          1.2181    2.4883   -0.2242 S.2        1 <1>        0.000
      8 N2          3.2310    0.7472   -0.2205 N.am       1 <1>        0.000
      9 H          -3.0121    0.9730    2.2716 H.spc      1 <1>        0.000
     10 H          -2.1615    1.7121    0.9109 H.spc      1 <1>        0.000
     11 H           3.7999    1.4958   -0.6158 H.spc      1 <1>        0.000
     12 H           3.6449   -0.1678   -0.0418 H.spc      1 <1>        0.000
@<TRIPOS>BOND
     1    1    2 1  
     2    1    6 1  
     3    2    3 1  
     4    3    4 2  
     5    3    5 am 
     6    6    7 2  
     7    6    8 am 
     8    5    9 1  
     9    5   10 1  
    10    8   11 1  
    11    8   12 1  
# Name:          frag3-289-2/31924 -- energy: 1.671964
# Creation time: Sat Jun  5 12:52:46 2010


@<TRIPOS>MOLECULE
frag3-289-2/31924 -- energy: 1.671964
   12    11     1     1     1
SMALL
USER_CHARGES


@<TRIPOS>ATOM
      1 S1         -0.8677   -0.4497   -0.6317 S.3        1 <1>        0.000
      2 S2          1.1178   -0.5041   -0.3558 S.3        1 <1>        0.000
      3 C1          1.5005    1.0955    0.2572 C.2        1 <1>        0.000
      4 S3          2.6269    2.1685   -0.3594 S.2        1 <1>        0.000
      5 N1          0.7018    1.4595    1.3314 N.am       1 <1>        0.000
      6 C6         -1.4709   -0.4485    1.0158 C.2        1 <1>        0.000
      7 S4         -1.1475   -1.6349    2.1784 S.2        1 <1>        0.000
      8 N2         -2.1964    0.6651    1.3450 N.am       1 <1>        0.000
      9 H           0.7996    2.3849    1.7491 H.spc      1 <1>        0.000
     10 H           0.0167    0.8018    1.7035 H.spc      1 <1>        0.000
     11 H          -2.5456    0.7835    2.2960 H.spc      1 <1>        0.000
     12 H          -2.3876    1.3762    0.6392 H.spc      1 <1>        0.000
@<TRIPOS>BOND
     1    1    2 1  
     2    1    6 1  
     3    2    3 1  
     4    3    4 2  
     5    3    5 am 
     6    6    7 2  
     7    6    8 am 
     8    5    9 1  
     9    5   10 1  
    10    8   11 1  
    11    8   12 1  
# Name:          frag3-289-2/31924 -- energy: -1.344243
# Creation time: Sat Jun  5 12:52:46 2010


@<TRIPOS>MOLECULE
frag3-289-2/31924 -- energy: -1.344243
   12    11     1     1     1
SMALL
USER_CHARGES


@<TRIPOS>ATOM
      1 S1         -1.0887   -0.0775   -0.5860 S.3        1 <1>        0.000
      2 S2          0.8789   -0.4559   -0.6070 S.3        1 <1>        0.000
      3 C1          1.6507    0.8300    0.1885 C.2        1 <1>        0.000
      4 S3          1.1759    2.4218    0.2734 S.2        1 <1>        0.000
      5 N1          2.7825    0.4878    0.8686 N.am       1 <1>        0.000
      6 C6         -1.5850   -0.2333    1.0308 C.2        1 <1>        0.000
      7 S4         -0.9522   -1.2214    2.2095 S.2        1 <1>        0.000
      8 N2         -2.5976    0.6000    1.4031 N.am       1 <1>        0.000
      9 H           3.2939    1.1952    1.3963 H.spc      1 <1>        0.000
     10 H           3.1174   -0.4755    0.8495 H.spc      1 <1>        0.000
     11 H          -2.9323    0.5971    2.3666 H.spc      1 <1>        0.000
     12 H          -3.0206    1.2264    0.7181 H.spc      1 <1>        0.000
@<TRIPOS>BOND
     1    1    2 1  
     2    1    6 1  
     3    2    3 1  
     4    3    4 2  
     5    3    5 am 
     6    6    7 2  
     7    6    8 am 
     8    5    9 1  
     9    5   10 1  
    10    8   11 1  
    11    8   12 1  
# Name:          frag3-289-2/31924 -- energy: -0.983453
# Creation time: Sat Jun  5 12:52:46 2010


@<TRIPOS>MOLECULE
frag3-289-2/31924 -- energy: -0.983453
   12    11     1     1     1
SMALL
USER_CHARGES


@<TRIPOS>ATOM
      1 S1          0.4130    1.2195    0.9681 S.3        1 <1>        0.000
      2 S2         -0.0912   -0.7302    0.9767 S.3        1 <1>        0.000
      3 C1         -1.8331   -0.6941    1.1084 C.2        1 <1>        0.000
      4 S3         -2.6958   -0.0199    2.4081 S.2        1 <1>        0.000
      5 N1         -2.4860   -1.2291    0.0362 N.am       1 <1>        0.000
      6 C6          1.8723    1.2733    0.0095 C.2        1 <1>        0.000
      7 S4          3.4496    1.2183    0.6161 S.2        1 <1>        0.000
      8 N2          1.6358    1.3136   -1.3421 N.am       1 <1>        0.000
      9 H          -3.5056   -1.2279    0.0074 H.spc      1 <1>        0.000
     10 H          -1.9544   -1.6302   -0.7364 H.spc      1 <1>        0.000
     11 H           2.4178    1.3106   -1.9970 H.spc      1 <1>        0.000
     12 H           0.6781    1.3465   -1.6915 H.spc      1 <1>        0.000
@<TRIPOS>BOND
     1    1    2 1  
     2    1    6 1  
     3    2    3 1  
     4    3    4 2  
     5    3    5 am 
     6    6    7 2  
     7    6    8 am 
     8    5    9 1  
     9    5   10 1  
    10    8   11 1  
    11    8   12 1  
# Name:          frag3-289-2/31924 -- energy: -1.022241
# Creation time: Sat Jun  5 12:52:46 2010


@<TRIPOS>MOLECULE
frag3-289-2/31924 -- energy: -1.022241
   12    11     1     1     1
SMALL
USER_CHARGES


@<TRIPOS>ATOM
      1 S1          0.8613   -0.4780   -0.0453 S.3        1 <1>        0.000
      2 S2         -0.9581    0.3719   -0.2427 S.3        1 <1>        0.000
      3 C1         -1.8886   -0.1999    1.0669 C.2        1 <1>        0.000
      4 S3         -1.3488   -0.5891    2.6133 S.2        1 <1>        0.000
      5 N1         -3.1915   -0.4326    0.7278 N.am       1 <1>        0.000
      6 C6          1.9603    0.8093    0.1730 C.2        1 <1>        0.000
      7 S4          1.6747    2.2786    0.9406 S.2        1 <1>        0.000
      8 N2          3.1552    0.5911   -0.4526 N.am       1 <1>        0.000
      9 H          -3.8311   -0.8400    1.4100 H.spc      1 <1>        0.000
     10 H          -3.5246   -0.1990   -0.2075 H.spc      1 <1>        0.000
     11 H           3.8708    1.3180   -0.4532 H.spc      1 <1>        0.000
     12 H           3.3317   -0.2987   -0.9190 H.spc      1 <1>        0.000
@<TRIPOS>BOND
     1    1    2 1  
     2    1    6 1  
     3    2    3 1  
     4    3    4 2  
     5    3    5 am 
     6    6    7 2  
     7    6    8 am 
     8    5    9 1  
     9    5   10 1  
    10    8   11 1  
    11    8   12 1  
# Name:          frag3-289-2/31924 -- energy: -1.173988
# Creation time: Sat Jun  5 12:52:46 2010


@<TRIPOS>MOLECULE
frag3-289-2/31924 -- energy: -1.173988
   12    11     1     1     1
SMALL
USER_CHARGES


@<TRIPOS>ATOM
      1 S1         -0.9185    0.2566   -0.3335 S.3        1 <1>        0.000
      2 S2          0.8872   -0.5439    0.0491 S.3        1 <1>        0.000
      3 C1          1.9521    0.8309    0.1787 C.2        1 <1>        0.000
      4 S3          2.1641    1.8232    1.5247 S.2        1 <1>        0.000
      5 N1          2.6020    1.1029   -1.0044 N.am       1 <1>        0.000
      6 C6         -1.8900   -0.2284    1.0314 C.2        1 <1>        0.000
      7 S4         -1.6524    0.2256    2.6425 S.2        1 <1>        0.000
      8 N2         -2.8798   -1.1156    0.6925 N.am       1 <1>        0.000
      9 H           3.2194    1.9119   -1.0728 H.spc      1 <1>        0.000
     10 H           2.4660    0.4953   -1.8123 H.spc      1 <1>        0.000
     11 H          -3.4819   -1.5088    1.4159 H.spc      1 <1>        0.000
     12 H          -3.0137   -1.3821   -0.2829 H.spc      1 <1>        0.000
@<TRIPOS>BOND
     1    1    2 1  
     2    1    6 1  
     3    2    3 1  
     4    3    4 2  
     5    3    5 am 
     6    6    7 2  
     7    6    8 am 
     8    5    9 1  
     9    5   10 1  
    10    8   11 1  
    11    8   12 1  
# Name:          frag3-289-2/31924 -- energy: 2.175244
# Creation time: Sat Jun  5 12:52:46 2010


@<TRIPOS>MOLECULE
frag3-289-2/31924 -- energy: 2.175244
   12    11     1     1     1
SMALL
USER_CHARGES


@<TRIPOS>ATOM
      1 S1         -0.1396   -0.6907    0.7357 S.3        1 <1>        0.000
      2 S2          0.1405    1.2062    0.1423 S.3        1 <1>        0.000
      3 C1          1.8817    1.3353   -0.0498 C.2        1 <1>        0.000
      4 S3          2.6788    2.0343   -1.3678 S.2        1 <1>        0.000
      5 N1          2.5806    0.7697    0.9875 N.am       1 <1>        0.000
      6 C6         -1.8086   -0.7251    1.2892 C.2        1 <1>        0.000
      7 S4         -2.7266   -2.1105    1.5897 S.2        1 <1>        0.000
      8 N2         -2.3423    0.5322    1.4541 N.am       1 <1>        0.000
      9 H           3.6005    0.7656    0.9730 H.spc      1 <1>        0.000
     10 H           2.0800    0.3535    1.7728 H.spc      1 <1>        0.000
     11 H          -3.3085    0.6396    1.7629 H.spc      1 <1>        0.000
     12 H          -1.7718    1.3569    1.2675 H.spc      1 <1>        0.000
@<TRIPOS>BOND
     1    1    2 1  
     2    1    6 1  
     3    2    3 1  
     4    3    4 2  
     5    3    5 am 
     6    6    7 2  
     7    6    8 am 
     8    5    9 1  
     9    5   10 1  
    10    8   11 1  
    11    8   12 1  
# Name:          frag3-289-2/31924 -- energy: -1.130654
# Creation time: Sat Jun  5 12:52:46 2010


@<TRIPOS>MOLECULE
frag3-289-2/31924 -- energy: -1.130654
   12    11     1     1     1
SMALL
USER_CHARGES


@<TRIPOS>ATOM
      1 S1         -0.5347   -0.9953    0.0661 S.3        1 <1>        0.000
      2 S2          0.4232    0.5304   -0.8400 S.3        1 <1>        0.000
      3 C1          1.7511    0.9209    0.1458 C.2        1 <1>        0.000
      4 S3          2.1290    0.3233    1.6574 S.2        1 <1>        0.000
      5 N1          2.6265    1.7612   -0.4621 N.am       1 <1>        0.000
      6 C6         -1.6828   -0.2989    1.1086 C.2        1 <1>        0.000
      7 S4         -2.0425    1.3207    1.2958 S.2        1 <1>        0.000
      8 N2         -2.4052   -1.2110    1.8095 N.am       1 <1>        0.000
      9 H           3.4966    2.0164    0.0050 H.spc      1 <1>        0.000
     10 H           2.4143    2.1375   -1.3861 H.spc      1 <1>        0.000
     11 H          -3.1495   -0.9009    2.4342 H.spc      1 <1>        0.000
     12 H          -2.2033   -2.2060    1.7111 H.spc      1 <1>        0.000
@<TRIPOS>BOND
     1    1    2 1  
     2    1    6 1  
     3    2    3 1  
     4    3    4 2  
     5    3    5 am 
     6    6    7 2  
     7    6    8 am 
     8    5    9 1  
     9    5   10 1  
    10    8   11 1  
    11    8   12 1  
# Name:          frag3-289-2/31924 -- energy: 1.246157
# Creation time: Sat Jun  5 12:52:46 2010


@<TRIPOS>MOLECULE
frag3-289-2/31924 -- energy: 1.246157
   12    11     1     1     1
SMALL
USER_CHARGES


@<TRIPOS>ATOM
      1 S1          0.1448    1.2439    0.0247 S.3        1 <1>        0.000
      2 S2         -0.3963   -0.6904    0.0902 S.3        1 <1>        0.000
      3 C1         -1.8343   -0.6773    1.0849 C.2        1 <1>        0.000
      4 S3         -1.8850   -0.3243    2.7430 S.2        1 <1>        0.000
      5 N1         -2.9777   -0.9395    0.3837 N.am       1 <1>        0.000
      6 C6          1.8942    1.2304    0.1178 C.2        1 <1>        0.000
      7 S4          2.8937    2.5147    0.5398 S.2        1 <1>        0.000
      8 N2          2.4252   -0.0060   -0.2032 N.am       1 <1>        0.000
      9 H          -3.8810   -0.9249    0.8572 H.spc      1 <1>        0.000
     10 H          -2.9277   -1.1498   -0.6131 H.spc      1 <1>        0.000
     11 H           3.4352   -0.1474   -0.1857 H.spc      1 <1>        0.000
     12 H           1.8067   -0.7762   -0.4574 H.spc      1 <1>        0.000
@<TRIPOS>BOND
     1    1    2 1  
     2    1    6 1  
     3    2    3 1  
     4    3    4 2  
     5    3    5 am 
     6    6    7 2  
     7    6    8 am 
     8    5    9 1  
     9    5   10 1  
    10    8   11 1  
    11    8   12 1  
# Name:          frag3-289-2/31924 -- energy: -1.104642
# Creation time: Sat Jun  5 12:52:46 2010


@<TRIPOS>MOLECULE
frag3-289-2/31924 -- energy: -1.104642
   12    11     1     1     1
SMALL
USER_CHARGES


@<TRIPOS>ATOM
      1 S1         -0.7435   -0.6726   -0.6026 S.3        1 <1>        0.000
      2 S2          0.2423    1.0544   -0.8622 S.3        1 <1>        0.000
      3 C1          1.5535    1.0171    0.2973 C.2        1 <1>        0.000
      4 S3          2.1588    2.2440    1.2521 S.2        1 <1>        0.000
      5 N1          2.0935   -0.2643    0.3903 N.am       1 <1>        0.000
      6 C6         -1.4765   -0.4503    0.9675 C.2        1 <1>        0.000
      7 S4         -1.2315    0.8677    2.0110 S.2        1 <1>        0.000
      8 N2         -2.3319   -1.4447    1.3274 N.am       1 <1>        0.000
      9 H           2.8568   -0.4501    1.0409 H.spc      1 <1>        0.000
     10 H           1.7254   -1.0164   -0.1922 H.spc      1 <1>        0.000
     11 H          -2.8228   -1.3969    2.2202 H.spc      1 <1>        0.000
     12 H          -2.4825   -2.2382    0.7045 H.spc      1 <1>        0.000
@<TRIPOS>BOND
     1    1    2 1  
     2    1    6 1  
     3    2    3 1  
     4    3    4 2  
     5    3    5 am 
     6    6    7 2  
     7    6    8 am 
     8    5    9 1  
     9    5   10 1  
    10    8   11 1  
    11    8   12 1  
# Name:          frag3-289-2/31924 -- energy: -2.279626
# Creation time: Sat Jun  5 12:52:46 2010


@<TRIPOS>MOLECULE
frag3-289-2/31924 -- energy: -2.279626
   12    11     1     1     1
SMALL
USER_CHARGES


@<TRIPOS>ATOM
      1 S1          0.8625   -0.2956   -1.0016 S.3        1 <1>        0.000
      2 S2         -1.1157   -0.4724   -0.7020 S.3        1 <1>        0.000
      3 C1         -1.2519   -0.2688    1.0576 C.2        1 <1>        0.000
      4 S3         -2.0283    1.0083    1.8503 S.2        1 <1>        0.000
      5 N1         -0.6083   -1.2550    1.7604 N.am       1 <1>        0.000
      6 C6          1.3278    0.8988    0.2283 C.2        1 <1>        0.000
      7 S4          2.3383    0.6136    1.5549 S.2        1 <1>        0.000
      8 N2          0.7402    2.1227    0.0331 N.am       1 <1>        0.000
      9 H          -0.5918   -1.2269    2.7799 H.spc      1 <1>        0.000
     10 H          -0.1461   -2.0166    1.2636 H.spc      1 <1>        0.000
     11 H           0.9094    2.8809    0.6941 H.spc      1 <1>        0.000
     12 H           0.1341    2.2747   -0.7731 H.spc      1 <1>        0.000
@<TRIPOS>BOND
     1    1    2 1  
     2    1    6 1  
     3    2    3 1  
     4    3    4 2  
     5    3    5 am 
     6    6    7 2  
     7    6    8 am 
     8    5    9 1  
     9    5   10 1  
    10    8   11 1  
    11    8   12 1  
# Name:          frag3-289-2/31924 -- energy: 0.309330
# Creation time: Sat Jun  5 12:52:46 2010


@<TRIPOS>MOLECULE
frag3-289-2/31924 -- energy: 0.309330
   12    11     1     1     1
SMALL
USER_CHARGES


@<TRIPOS>ATOM
      1 S1         -0.1583   -0.7133    0.7077 S.3        1 <1>        0.000
      2 S2          0.1527    1.1796    0.1164 S.3        1 <1>        0.000
      3 C1          1.8996    1.2957   -0.0465 C.2        1 <1>        0.000
      4 S3          2.8213    2.7031    0.1143 S.2        1 <1>        0.000
      5 N1          2.4925    0.0848   -0.3182 N.am       1 <1>        0.000
      6 C6         -1.8387   -0.7233    1.2190 C.2        1 <1>        0.000
      7 S4         -2.4145   -1.2690    2.7138 S.2        1 <1>        0.000
      8 N2         -2.6900   -0.2063    0.2745 N.am       1 <1>        0.000
      9 H           3.5050    0.0255   -0.4261 H.spc      1 <1>        0.000
     10 H           1.9197   -0.7540   -0.4118 H.spc      1 <1>        0.000
     11 H          -3.6897   -0.1457    0.4676 H.spc      1 <1>        0.000
     12 H          -2.3229    0.1172   -0.6205 H.spc      1 <1>        0.000
@<TRIPOS>BOND
     1    1    2 1  
     2    1    6 1  
     3    2    3 1  
     4    3    4 2  
     5    3    5 am 
     6    6    7 2  
     7    6    8 am 
     8    5    9 1  
     9    5   10 1  
    10    8   11 1  
    11    8   12 1  
# Name:          frag3-289-2/31924 -- energy: -0.988670
# Creation time: Sat Jun  5 12:52:46 2010


@<TRIPOS>MOLECULE
frag3-289-2/31924 -- energy: -0.988670
   12    11     1     1     1
SMALL
USER_CHARGES


@<TRIPOS>ATOM
      1 S1         -0.8355    0.9124    0.9931 S.3        1 <1>        0.000
      2 S2          1.0074    0.1218    1.1588 S.3        1 <1>        0.000
      3 C1          1.9480    1.0235   -0.0007 C.2        1 <1>        0.000
      4 S3          2.4563    2.6279    0.1908 S.2        1 <1>        0.000
      5 N1          2.2136    0.3353   -1.1539 N.am       1 <1>        0.000
      6 C6         -1.8895   -0.4703    1.1198 C.2        1 <1>        0.000
      7 S4         -2.2199   -1.3192    2.5489 S.2        1 <1>        0.000
      8 N2         -2.4157   -0.8800   -0.0758 N.am       1 <1>        0.000
      9 H           2.7239    0.7882   -1.9121 H.spc      1 <1>        0.000
     10 H           1.9012   -0.6304   -1.2549 H.spc      1 <1>        0.000
     11 H          -3.0143   -1.7050   -0.1136 H.spc      1 <1>        0.000
     12 H          -2.2091   -0.3603   -0.9288 H.spc      1 <1>        0.000
@<TRIPOS>BOND
     1    1    2 1  
     2    1    6 1  
     3    2    3 1  
     4    3    4 2  
     5    3    5 am 
     6    6    7 2  
     7    6    8 am 
     8    5    9 1  
     9    5   10 1  
    10    8   11 1  
    11    8   12 1  
# Name:          frag3-289-2/31924 -- energy: -0.258007
# Creation time: Sat Jun  5 12:52:46 2010


@<TRIPOS>MOLECULE
frag3-289-2/31924 -- energy: -0.258007
   12    11     1     1     1
SMALL
USER_CHARGES


@<TRIPOS>ATOM
      1 S1          0.4935    1.1043    1.1068 S.3        1 <1>        0.000
      2 S2         -0.0899   -0.7937    0.8070 S.3        1 <1>        0.000
      3 C1         -1.8179   -0.7374    1.1009 C.2        1 <1>        0.000
      4 S3         -2.5449   -0.7978    2.6329 S.2        1 <1>        0.000
      5 N1         -2.5663   -0.5971   -0.0334 N.am       1 <1>        0.000
      6 C6          1.8516    1.3168    0.0160 C.2        1 <1>        0.000
      7 S4          3.1947    2.3035    0.2773 S.2        1 <1>        0.000
      8 N2          1.7438    0.5529   -1.1266 N.am       1 <1>        0.000
      9 H          -3.5818   -0.5265    0.0311 H.spc      1 <1>        0.000
     10 H          -2.1096   -0.5630   -0.9448 H.spc      1 <1>        0.000
     11 H           2.4828    0.5791   -1.8292 H.spc      1 <1>        0.000
     12 H           0.9251   -0.0385   -1.2694 H.spc      1 <1>        0.000
@<TRIPOS>BOND
     1    1    2 1  
     2    1    6 1  
     3    2    3 1  
     4    3    4 2  
     5    3    5 am 
     6    6    7 2  
     7    6    8 am 
     8    5    9 1  
     9    5   10 1  
    10    8   11 1  
    11    8   12 1  
