#      Rotatable Fragment
#      Build by yxyuan
#
# Name:          frag3-157-19/96164
# Creation time: Sat Jun  5 12:53:06 2010


@<TRIPOS>MOLECULE
frag3-157-19/96164
   12    11     1     1     1
SMALL
USER_CHARGES


@<TRIPOS>ATOM
      1 N1          0.6968   -0.0957   -0.1034 N.am       1 <1>        0.000
      2 N2         -0.4442    0.6221   -0.0363 N.am       1 <1>        0.000
      3 C6          1.9073    0.3574    0.3031 C.2        1 <1>        0.000
      4 C10        -1.2833    0.9024   -0.9909 C.2        1 <1>        0.000
      5 O3          3.0194   -0.1313    0.2205 O.2        1 <1>        0.000
      6 N3         -1.3399    0.5456   -2.2414 N.am       1 <1>        0.000
      7 O4         -2.1825    1.6581   -0.5950 O.2        1 <1>        0.000
      8 H           0.6444   -1.0403   -0.4848 H.spc      1 <1>        0.000
      9 H          -0.6800    0.9939    0.8838 H.spc      1 <1>        0.000
     10 H           1.8808    1.3321    0.7904 H.spc      1 <1>        0.000
     11 H          -2.0956    0.8869   -2.8354 H.spc      1 <1>        0.000
     12 H          -0.6286   -0.0753   -2.6273 H.spc      1 <1>        0.000
@<TRIPOS>BOND
     1    1    2 1  
     2    1    3 am 
     3    2    4 am 
     4    3    5 2  
     5    4    6 am 
     6    4    7 2  
     7    1    8 1  
     8    2    9 1  
     9    3   10 1  
    10    6   11 1  
    11    6   12 1  
# Name:          frag3-157-19/96164
# Creation time: Sat Jun  5 12:53:06 2010


@<TRIPOS>MOLECULE
frag3-157-19/96164
   12    11     1     1     1
SMALL
USER_CHARGES


@<TRIPOS>ATOM
      1 N1          1.0387    0.6716   -0.4939 N.am       1 <1>        0.000
      2 N2         -0.2199    1.1460   -0.2937 N.am       1 <1>        0.000
      3 C6          1.7457    0.0207    0.4478 C.2        1 <1>        0.000
      4 C10        -1.2902    0.8987   -0.9876 C.2        1 <1>        0.000
      5 O3          2.8503   -0.4817    0.4335 O.2        1 <1>        0.000
      6 N3         -1.4429    0.4072   -2.1797 N.am       1 <1>        0.000
      7 O4         -2.3081    1.1960   -0.3698 O.2        1 <1>        0.000
      8 H           1.4698    0.8170   -1.4068 H.spc      1 <1>        0.000
      9 H          -0.3386    1.7747    0.5007 H.spc      1 <1>        0.000
     10 H           1.2293   -0.0730    1.4031 H.spc      1 <1>        0.000
     11 H          -2.3795    0.2832   -2.5641 H.spc      1 <1>        0.000
     12 H          -0.6262    0.1451   -2.7318 H.spc      1 <1>        0.000
@<TRIPOS>BOND
     1    1    2 1  
     2    1    3 am 
     3    2    4 am 
     4    3    5 2  
     5    4    6 am 
     6    4    7 2  
     7    1    8 1  
     8    2    9 1  
     9    3   10 1  
    10    6   11 1  
    11    6   12 1  
# Name:          frag3-157-19/96164
# Creation time: Sat Jun  5 12:53:06 2010


@<TRIPOS>MOLECULE
frag3-157-19/96164
   12    11     1     1     1
SMALL
USER_CHARGES


@<TRIPOS>ATOM
      1 N1          0.8665    0.9697    0.3517 N.am       1 <1>        0.000
      2 N2         -0.4663    1.1961    0.2248 N.am       1 <1>        0.000
      3 C6          1.4819   -0.1522   -0.1048 C.2        1 <1>        0.000
      4 C10        -1.1153    0.9073   -0.8897 C.2        1 <1>        0.000
      5 O3          2.6424   -0.5069   -0.1752 O.2        1 <1>        0.000
      6 N3         -0.6902    0.6302   -2.1027 N.am       1 <1>        0.000
      7 O4         -2.3454    0.8143   -0.7474 O.2        1 <1>        0.000
      8 H           1.4354    1.6790    0.8139 H.spc      1 <1>        0.000
      9 H          -0.9793    1.5990    1.0090 H.spc      1 <1>        0.000
     10 H           0.7841   -0.8949   -0.4916 H.spc      1 <1>        0.000
     11 H          -1.3563    0.3665   -2.8287 H.spc      1 <1>        0.000
     12 H           0.3057    0.6790   -2.3177 H.spc      1 <1>        0.000
@<TRIPOS>BOND
     1    1    2 1  
     2    1    3 am 
     3    2    4 am 
     4    3    5 2  
     5    4    6 am 
     6    4    7 2  
     7    1    8 1  
     8    2    9 1  
     9    3   10 1  
    10    6   11 1  
    11    6   12 1  
# Name:          frag3-157-19/96164
# Creation time: Sat Jun  5 12:53:06 2010


@<TRIPOS>MOLECULE
frag3-157-19/96164
   12    11     1     1     1
SMALL
USER_CHARGES


@<TRIPOS>ATOM
      1 N1          0.5932    0.1424    0.3452 N.am       1 <1>        0.000
      2 N2         -0.4227   -0.0790   -0.5096 N.am       1 <1>        0.000
      3 C6          1.8830    0.2450   -0.0814 C.2        1 <1>        0.000
      4 C10        -1.2387    0.7808   -1.0781 C.2        1 <1>        0.000
      5 O3          2.8884    0.2307    0.5701 O.2        1 <1>        0.000
      6 N3         -1.8337    0.7352   -2.2519 N.am       1 <1>        0.000
      7 O4         -1.4958    1.8034   -0.4377 O.2        1 <1>        0.000
      8 H           0.3916    0.2360    1.3407 H.spc      1 <1>        0.000
      9 H          -0.5828   -1.0568   -0.7517 H.spc      1 <1>        0.000
     10 H           2.0181    0.3546   -1.1574 H.spc      1 <1>        0.000
     11 H          -2.4375    1.5022   -2.5477 H.spc      1 <1>        0.000
     12 H          -1.6908   -0.0671   -2.8653 H.spc      1 <1>        0.000
@<TRIPOS>BOND
     1    1    2 1  
     2    1    3 am 
     3    2    4 am 
     4    3    5 2  
     5    4    6 am 
     6    4    7 2  
     7    1    8 1  
     8    2    9 1  
     9    3   10 1  
    10    6   11 1  
    11    6   12 1  
# Name:          frag3-157-19/96164 -- energy: -0.633407
# Creation time: Sat Jun  5 12:53:06 2010


@<TRIPOS>MOLECULE
frag3-157-19/96164 -- energy: -0.633407
   12    11     1     1     1
SMALL
USER_CHARGES


@<TRIPOS>ATOM
      1 N1          0.6968   -0.0957   -0.1034 N.am       1 <1>        0.000
      2 N2         -0.4442    0.6221   -0.0363 N.am       1 <1>        0.000
      3 C6          1.9073    0.3574    0.3031 C.2        1 <1>        0.000
      4 C10        -1.2833    0.9024   -0.9909 C.2        1 <1>        0.000
      5 O3          3.0194   -0.1313    0.2205 O.2        1 <1>        0.000
      6 N3         -1.3399    0.5456   -2.2414 N.am       1 <1>        0.000
      7 O4         -2.1825    1.6581   -0.5950 O.2        1 <1>        0.000
      8 H           0.6444   -1.0403   -0.4848 H.spc      1 <1>        0.000
      9 H          -0.6800    0.9939    0.8838 H.spc      1 <1>        0.000
     10 H           1.8808    1.3321    0.7904 H.spc      1 <1>        0.000
     11 H          -2.0956    0.8869   -2.8354 H.spc      1 <1>        0.000
     12 H          -0.6286   -0.0753   -2.6273 H.spc      1 <1>        0.000
@<TRIPOS>BOND
     1    1    2 1  
     2    1    3 am 
     3    2    4 am 
     4    3    5 2  
     5    4    6 am 
     6    4    7 2  
     7    1    8 1  
     8    2    9 1  
     9    3   10 1  
    10    6   11 1  
    11    6   12 1  
# Name:          frag3-157-19/96164 -- energy: -0.676943
# Creation time: Sat Jun  5 12:53:06 2010


@<TRIPOS>MOLECULE
frag3-157-19/96164 -- energy: -0.676943
   12    11     1     1     1
SMALL
USER_CHARGES


@<TRIPOS>ATOM
      1 N1          1.0387    0.6716   -0.4939 N.am       1 <1>        0.000
      2 N2         -0.2199    1.1460   -0.2937 N.am       1 <1>        0.000
      3 C6          1.7457    0.0207    0.4478 C.2        1 <1>        0.000
      4 C10        -1.2902    0.8987   -0.9876 C.2        1 <1>        0.000
      5 O3          2.8503   -0.4817    0.4335 O.2        1 <1>        0.000
      6 N3         -1.4429    0.4072   -2.1797 N.am       1 <1>        0.000
      7 O4         -2.3081    1.1960   -0.3698 O.2        1 <1>        0.000
      8 H           1.4698    0.8170   -1.4068 H.spc      1 <1>        0.000
      9 H          -0.3386    1.7747    0.5007 H.spc      1 <1>        0.000
     10 H           1.2293   -0.0730    1.4031 H.spc      1 <1>        0.000
     11 H          -2.3795    0.2832   -2.5641 H.spc      1 <1>        0.000
     12 H          -0.6262    0.1451   -2.7318 H.spc      1 <1>        0.000
@<TRIPOS>BOND
     1    1    2 1  
     2    1    3 am 
     3    2    4 am 
     4    3    5 2  
     5    4    6 am 
     6    4    7 2  
     7    1    8 1  
     8    2    9 1  
     9    3   10 1  
    10    6   11 1  
    11    6   12 1  
# Name:          frag3-157-19/96164 -- energy: -0.833243
# Creation time: Sat Jun  5 12:53:06 2010


@<TRIPOS>MOLECULE
frag3-157-19/96164 -- energy: -0.833243
   12    11     1     1     1
SMALL
USER_CHARGES


@<TRIPOS>ATOM
      1 N1          0.8665    0.9697    0.3517 N.am       1 <1>        0.000
      2 N2         -0.4663    1.1961    0.2248 N.am       1 <1>        0.000
      3 C6          1.4819   -0.1522   -0.1048 C.2        1 <1>        0.000
      4 C10        -1.1153    0.9073   -0.8897 C.2        1 <1>        0.000
      5 O3          2.6424   -0.5069   -0.1752 O.2        1 <1>        0.000
      6 N3         -0.6902    0.6302   -2.1027 N.am       1 <1>        0.000
      7 O4         -2.3454    0.8143   -0.7474 O.2        1 <1>        0.000
      8 H           1.4354    1.6790    0.8139 H.spc      1 <1>        0.000
      9 H          -0.9793    1.5990    1.0090 H.spc      1 <1>        0.000
     10 H           0.7841   -0.8949   -0.4916 H.spc      1 <1>        0.000
     11 H          -1.3563    0.3665   -2.8287 H.spc      1 <1>        0.000
     12 H           0.3057    0.6790   -2.3177 H.spc      1 <1>        0.000
@<TRIPOS>BOND
     1    1    2 1  
     2    1    3 am 
     3    2    4 am 
     4    3    5 2  
     5    4    6 am 
     6    4    7 2  
     7    1    8 1  
     8    2    9 1  
     9    3   10 1  
    10    6   11 1  
    11    6   12 1  
# Name:          frag3-157-19/96164 -- energy: -0.786331
# Creation time: Sat Jun  5 12:53:06 2010


@<TRIPOS>MOLECULE
frag3-157-19/96164 -- energy: -0.786331
   12    11     1     1     1
SMALL
USER_CHARGES


@<TRIPOS>ATOM
      1 N1          0.5932    0.1424    0.3452 N.am       1 <1>        0.000
      2 N2         -0.4227   -0.0790   -0.5096 N.am       1 <1>        0.000
      3 C6          1.8830    0.2450   -0.0814 C.2        1 <1>        0.000
      4 C10        -1.2387    0.7808   -1.0781 C.2        1 <1>        0.000
      5 O3          2.8884    0.2307    0.5701 O.2        1 <1>        0.000
      6 N3         -1.8337    0.7352   -2.2519 N.am       1 <1>        0.000
      7 O4         -1.4958    1.8034   -0.4377 O.2        1 <1>        0.000
      8 H           0.3916    0.2360    1.3407 H.spc      1 <1>        0.000
      9 H          -0.5828   -1.0568   -0.7517 H.spc      1 <1>        0.000
     10 H           2.0181    0.3546   -1.1574 H.spc      1 <1>        0.000
     11 H          -2.4375    1.5022   -2.5477 H.spc      1 <1>        0.000
     12 H          -1.6908   -0.0671   -2.8653 H.spc      1 <1>        0.000
@<TRIPOS>BOND
     1    1    2 1  
     2    1    3 am 
     3    2    4 am 
     4    3    5 2  
     5    4    6 am 
     6    4    7 2  
     7    1    8 1  
     8    2    9 1  
     9    3   10 1  
    10    6   11 1  
    11    6   12 1  
