#      Rotatable Fragment
#      Build by yxyuan
#
# Name:          frag4-306-1188/150395
# Creation time: Sat Jun  5 12:53:30 2010


@<TRIPOS>MOLECULE
frag4-306-1188/150395
   20    21     1     1     1
SMALL
USER_CHARGES


@<TRIPOS>ATOM
      1 C1         -2.4936    0.5511    0.0474 C.ar       1 <1>        0.000
      2 C2         -2.5569   -0.8708    0.0388 C.ar       1 <1>        0.000
      3 O1         -1.2833    1.2098    0.0069 O.3        1 <1>        0.000
      4 C3         -3.6912    1.2719    0.0956 C.ar       1 <1>        0.000
      5 C4         -1.2851   -1.6907    0.0023 C.3        1 <1>        0.000
      6 C5         -3.8045   -1.4987    0.0777 C.ar       1 <1>        0.000
      7 C6         -0.0567    0.5650    0.3228 C.3        1 <1>        0.000
      8 C7         -4.9262    0.6340    0.1301 C.ar       1 <1>        0.000
      9 C8         -0.3424   -0.8426    0.8748 C.3        1 <1>        0.000
     10 C9         -4.9823   -0.7605    0.1207 C.ar       1 <1>        0.000
     11 H          -3.6555    2.3613    0.1064 H.spc      1 <1>        0.000
     12 H          -1.4145   -2.7100    0.3661 H.spc      1 <1>        0.000
     13 H          -0.9074   -1.8624   -1.0057 H.spc      1 <1>        0.000
     14 H          -3.8556   -2.5875    0.0743 H.spc      1 <1>        0.000
     15 H           0.5532    0.4848   -0.5771 H.spc      1 <1>        0.000
     16 H           0.4765    1.1478    1.0739 H.spc      1 <1>        0.000
     17 H          -5.8450    1.2195    0.1643 H.spc      1 <1>        0.000
     18 H          -0.8312   -0.7136    1.8405 H.spc      1 <1>        0.000
     19 H           0.6115   -1.3682    0.9180 H.spc      1 <1>        0.000
     20 H          -5.9459   -1.2692    0.1470 H.spc      1 <1>        0.000
@<TRIPOS>BOND
     1    4    8 ar 
     2    7    9 1  
     3    6   10 ar 
     4    8   10 ar 
     5    3    7 1  
     6    5    9 1  
     7    1    2 ar 
     8    1    3 1  
     9    1    4 ar 
    10    2    5 1  
    11    2    6 ar 
    12    4   11 1  
    13    5   12 1  
    14    5   13 1  
    15    6   14 1  
    16    7   15 1  
    17    7   16 1  
    18    8   17 1  
    19    9   18 1  
    20    9   19 1  
    21   10   20 1  
# Name:          frag4-306-1188/150395 -- energy: -0.799413
# Creation time: Sat Jun  5 12:53:30 2010


@<TRIPOS>MOLECULE
frag4-306-1188/150395 -- energy: -0.799413
   20    21     1     1     1
SMALL
USER_CHARGES


@<TRIPOS>ATOM
      1 C1         -2.4936    0.5511    0.0474 C.ar       1 <1>        0.000
      2 C2         -2.5569   -0.8708    0.0388 C.ar       1 <1>        0.000
      3 O1         -1.2833    1.2098    0.0069 O.3        1 <1>        0.000
      4 C3         -3.6912    1.2719    0.0956 C.ar       1 <1>        0.000
      5 C4         -1.2851   -1.6907    0.0023 C.3        1 <1>        0.000
      6 C5         -3.8045   -1.4987    0.0777 C.ar       1 <1>        0.000
      7 C6         -0.0567    0.5650    0.3228 C.3        1 <1>        0.000
      8 C7         -4.9262    0.6340    0.1301 C.ar       1 <1>        0.000
      9 C8         -0.3424   -0.8426    0.8748 C.3        1 <1>        0.000
     10 C9         -4.9823   -0.7605    0.1207 C.ar       1 <1>        0.000
     11 H          -3.6555    2.3613    0.1064 H.spc      1 <1>        0.000
     12 H          -1.4145   -2.7100    0.3661 H.spc      1 <1>        0.000
     13 H          -0.9074   -1.8624   -1.0057 H.spc      1 <1>        0.000
     14 H          -3.8556   -2.5875    0.0743 H.spc      1 <1>        0.000
     15 H           0.5532    0.4848   -0.5771 H.spc      1 <1>        0.000
     16 H           0.4765    1.1478    1.0739 H.spc      1 <1>        0.000
     17 H          -5.8450    1.2195    0.1643 H.spc      1 <1>        0.000
     18 H          -0.8312   -0.7136    1.8405 H.spc      1 <1>        0.000
     19 H           0.6115   -1.3682    0.9180 H.spc      1 <1>        0.000
     20 H          -5.9459   -1.2692    0.1470 H.spc      1 <1>        0.000
@<TRIPOS>BOND
     1    4    8 ar 
     2    7    9 1  
     3    6   10 ar 
     4    8   10 ar 
     5    3    7 1  
     6    5    9 1  
     7    1    2 ar 
     8    1    3 1  
     9    1    4 ar 
    10    2    5 1  
    11    2    6 ar 
    12    4   11 1  
    13    5   12 1  
    14    5   13 1  
    15    6   14 1  
    16    7   15 1  
    17    7   16 1  
    18    8   17 1  
    19    9   18 1  
    20    9   19 1  
    21   10   20 1  
