#      Rotatable Fragment
#      Build by yxyuan
#
# Name:          frag4-390-242/150395
# Creation time: Sat Jun  5 12:53:34 2010


@<TRIPOS>MOLECULE
frag4-390-242/150395
   14    14     1     1     1
SMALL
USER_CHARGES


@<TRIPOS>ATOM
      1 C2         -1.1167    0.1677   -0.0000 C.2        1 <1>        0.000
      2 C5         -1.7263   -1.2121    0.0000 C.3        1 <1>        0.000
      3 N1         -1.8231    1.2492   -0.0000 N.2        1 <1>        0.000
      4 C7         -3.2203   -1.2487   -0.0000 C.3        1 <1>        0.000
      5 N3         -3.1304    1.2813    0.0000 N.pl3      1 <1>        0.000
      6 C9         -3.8331    0.0888    0.0000 C.3        1 <1>        0.000
      7 H          -0.0303    0.2562   -0.0000 H.spc      1 <1>        0.000
      8 H          -1.4017   -1.6973    0.9205 H.spc      1 <1>        0.000
      9 H          -1.4017   -1.6973   -0.9205 H.spc      1 <1>        0.000
     10 H          -3.5381   -1.7575    0.9100 H.spc      1 <1>        0.000
     11 H          -3.5381   -1.7575   -0.9100 H.spc      1 <1>        0.000
     12 H          -3.6256    2.1730    0.0000 H.spc      1 <1>        0.000
     13 H          -4.3368    0.1147    0.9663 H.spc      1 <1>        0.000
     14 H          -4.3368    0.1147   -0.9663 H.spc      1 <1>        0.000
@<TRIPOS>BOND
     1    1    2 1  
     2    1    3 2  
     3    2    4 1  
     4    3    5 1  
     5    4    6 1  
     6    5    6 1  
     7    1    7 1  
     8    2    8 1  
     9    2    9 1  
    10    4   10 1  
    11    4   11 1  
    12    5   12 1  
    13    6   13 1  
    14    6   14 1  
# Name:          frag4-390-242/150395 -- energy: -0.321938
# Creation time: Sat Jun  5 12:53:34 2010


@<TRIPOS>MOLECULE
frag4-390-242/150395 -- energy: -0.321938
   14    14     1     1     1
SMALL
USER_CHARGES


@<TRIPOS>ATOM
      1 C2         -1.1167    0.1677   -0.0000 C.2        1 <1>        0.000
      2 C5         -1.7263   -1.2121    0.0000 C.3        1 <1>        0.000
      3 N1         -1.8231    1.2492   -0.0000 N.2        1 <1>        0.000
      4 C7         -3.2203   -1.2487   -0.0000 C.3        1 <1>        0.000
      5 N3         -3.1304    1.2813    0.0000 N.pl3      1 <1>        0.000
      6 C9         -3.8331    0.0888    0.0000 C.3        1 <1>        0.000
      7 H          -0.0303    0.2562   -0.0000 H.spc      1 <1>        0.000
      8 H          -1.4017   -1.6973    0.9205 H.spc      1 <1>        0.000
      9 H          -1.4017   -1.6973   -0.9205 H.spc      1 <1>        0.000
     10 H          -3.5381   -1.7575    0.9100 H.spc      1 <1>        0.000
     11 H          -3.5381   -1.7575   -0.9100 H.spc      1 <1>        0.000
     12 H          -3.6256    2.1730    0.0000 H.spc      1 <1>        0.000
     13 H          -4.3368    0.1147    0.9663 H.spc      1 <1>        0.000
     14 H          -4.3368    0.1147   -0.9663 H.spc      1 <1>        0.000
@<TRIPOS>BOND
     1    1    2 1  
     2    1    3 2  
     3    2    4 1  
     4    3    5 1  
     5    4    6 1  
     6    5    6 1  
     7    1    7 1  
     8    2    8 1  
     9    2    9 1  
    10    4   10 1  
    11    4   11 1  
    12    5   12 1  
    13    6   13 1  
    14    6   14 1  
