#      Rotatable Fragment
#      Build by yxyuan
#
# Name:          frag3-234-5/96164
# Creation time: Sat Jun  5 12:53:15 2010


@<TRIPOS>MOLECULE
frag3-234-5/96164
    6     5     1     1     1
SMALL
USER_CHARGES


@<TRIPOS>ATOM
      1 C18         0.9257   -0.0016   -0.0437 C.2        1 <1>        0.000
      2 O4         -0.3116   -0.5219   -0.2809 O.3        1 <1>        0.000
      3 O5          1.3158    1.1583   -0.0136 O.2        1 <1>        0.000
      4 O6         -0.4731   -1.9184   -0.0498 O.3        1 <1>        0.000
      5 H           1.6990   -0.7444    0.1525 H.spc      1 <1>        0.000
      6 H          -1.3775   -2.1719   -0.2482 H.spc      1 <1>        0.000
@<TRIPOS>BOND
     1    1    2 1  
     2    1    3 2  
     3    2    4 1  
     4    1    5 1  
     5    4    6 1  
# Name:          frag3-234-5/96164
# Creation time: Sat Jun  5 12:53:15 2010


@<TRIPOS>MOLECULE
frag3-234-5/96164
    6     5     1     1     1
SMALL
USER_CHARGES


@<TRIPOS>ATOM
      1 C18         0.4574    0.4683   -0.3166 C.2        1 <1>        0.000
      2 O4         -0.4238   -0.5505   -0.4580 O.3        1 <1>        0.000
      3 O5          1.5484    0.6041    0.2334 O.2        1 <1>        0.000
      4 O6         -0.1252   -1.8055    0.1533 O.3        1 <1>        0.000
      5 H           0.1200    1.3824   -0.8052 H.spc      1 <1>        0.000
      6 H          -0.8340   -2.4263   -0.0304 H.spc      1 <1>        0.000
@<TRIPOS>BOND
     1    1    2 1  
     2    1    3 2  
     3    2    4 1  
     4    1    5 1  
     5    4    6 1  
# Name:          frag3-234-5/96164 -- energy: -0.097499
# Creation time: Sat Jun  5 12:53:15 2010


@<TRIPOS>MOLECULE
frag3-234-5/96164 -- energy: -0.097499
    6     5     1     1     1
SMALL
USER_CHARGES


@<TRIPOS>ATOM
      1 C18         0.9257   -0.0016   -0.0437 C.2        1 <1>        0.000
      2 O4         -0.3116   -0.5219   -0.2809 O.3        1 <1>        0.000
      3 O5          1.3158    1.1583   -0.0136 O.2        1 <1>        0.000
      4 O6         -0.4731   -1.9184   -0.0498 O.3        1 <1>        0.000
      5 H           1.6990   -0.7444    0.1525 H.spc      1 <1>        0.000
      6 H          -1.3775   -2.1719   -0.2482 H.spc      1 <1>        0.000
@<TRIPOS>BOND
     1    1    2 1  
     2    1    3 2  
     3    2    4 1  
     4    1    5 1  
     5    4    6 1  
# Name:          frag3-234-5/96164 -- energy: -0.119406
# Creation time: Sat Jun  5 12:53:15 2010


@<TRIPOS>MOLECULE
frag3-234-5/96164 -- energy: -0.119406
    6     5     1     1     1
SMALL
USER_CHARGES


@<TRIPOS>ATOM
      1 C18         0.4574    0.4683   -0.3166 C.2        1 <1>        0.000
      2 O4         -0.4238   -0.5505   -0.4580 O.3        1 <1>        0.000
      3 O5          1.5484    0.6041    0.2334 O.2        1 <1>        0.000
      4 O6         -0.1252   -1.8055    0.1533 O.3        1 <1>        0.000
      5 H           0.1200    1.3824   -0.8052 H.spc      1 <1>        0.000
      6 H          -0.8340   -2.4263   -0.0304 H.spc      1 <1>        0.000
@<TRIPOS>BOND
     1    1    2 1  
     2    1    3 2  
     3    2    4 1  
     4    1    5 1  
     5    4    6 1  
