#      Rotatable Fragment
#      Build by yxyuan
#
# Name:          frag4-322-271/48856
# Creation time: Sat Jun  5 12:52:36 2010


@<TRIPOS>MOLECULE
frag4-322-271/48856
   22    23     1     1     1
SMALL
USER_CHARGES


@<TRIPOS>ATOM
      1 C2          4.5189   -1.6709   -1.9911 C.3        1 <1>        0.000
      2 C3          5.5722   -1.8151   -3.1076 C.3        1 <1>        0.000
      3 C4          6.9797   -1.6221   -2.5153 C.3        1 <1>        0.000
      4 C5          7.1294   -0.1747   -2.0062 C.3        1 <1>        0.000
      5 C6          5.9579    0.2753   -1.1426 C.ar       1 <1>        0.000
      6 C7          4.7293   -0.4260   -1.1385 C.ar       1 <1>        0.000
      7 C8          3.6858    0.0346   -0.3262 C.ar       1 <1>        0.000
      8 C9          3.8369    1.1661    0.4713 C.ar       1 <1>        0.000
      9 C10         5.0488    1.8581    0.4669 C.ar       1 <1>        0.000
     10 C11         6.0951    1.4119   -0.3363 C.ar       1 <1>        0.000
     11 H           3.5401   -1.5903   -2.4639 H.spc      1 <1>        0.000
     12 H           4.6025   -2.5403   -1.3389 H.spc      1 <1>        0.000
     13 H           5.4980   -2.8084   -3.5503 H.spc      1 <1>        0.000
     14 H           5.3944   -1.0604   -3.8737 H.spc      1 <1>        0.000
     15 H           7.1231   -2.3153   -1.6864 H.spc      1 <1>        0.000
     16 H           7.7272   -1.8156   -3.2847 H.spc      1 <1>        0.000
     17 H           7.1725    0.4809   -2.8759 H.spc      1 <1>        0.000
     18 H           8.0304   -0.1289   -1.3944 H.spc      1 <1>        0.000
     19 H           2.7374   -0.5027   -0.3180 H.spc      1 <1>        0.000
     20 H           3.0125    1.5097    1.0961 H.spc      1 <1>        0.000
     21 H           5.1758    2.7438    1.0894 H.spc      1 <1>        0.000
     22 H           7.0387    1.9576   -0.3374 H.spc      1 <1>        0.000
@<TRIPOS>BOND
     1    7    8 ar 
     2    3    4 1  
     3    8    9 ar 
     4    2    3 1  
     5    1    6 1  
     6    9   10 ar 
     7    4    5 1  
     8    5    6 ar 
     9    1    2 1  
    10    6    7 ar 
    11    5   10 ar 
    12    1   11 1  
    13    1   12 1  
    14    2   13 1  
    15    2   14 1  
    16    3   15 1  
    17    3   16 1  
    18    4   17 1  
    19    4   18 1  
    20    7   19 1  
    21    8   20 1  
    22    9   21 1  
    23   10   22 1  
# Name:          frag4-322-271/48856 -- energy: -1.598536
# Creation time: Sat Jun  5 12:52:36 2010


@<TRIPOS>MOLECULE
frag4-322-271/48856 -- energy: -1.598536
   22    23     1     1     1
SMALL
USER_CHARGES


@<TRIPOS>ATOM
      1 C2          4.5189   -1.6709   -1.9911 C.3        1 <1>        0.000
      2 C3          5.5722   -1.8151   -3.1076 C.3        1 <1>        0.000
      3 C4          6.9797   -1.6221   -2.5153 C.3        1 <1>        0.000
      4 C5          7.1294   -0.1747   -2.0062 C.3        1 <1>        0.000
      5 C6          5.9579    0.2753   -1.1426 C.ar       1 <1>        0.000
      6 C7          4.7293   -0.4260   -1.1385 C.ar       1 <1>        0.000
      7 C8          3.6858    0.0346   -0.3262 C.ar       1 <1>        0.000
      8 C9          3.8369    1.1661    0.4713 C.ar       1 <1>        0.000
      9 C10         5.0488    1.8581    0.4669 C.ar       1 <1>        0.000
     10 C11         6.0951    1.4119   -0.3363 C.ar       1 <1>        0.000
     11 H           3.5401   -1.5903   -2.4639 H.spc      1 <1>        0.000
     12 H           4.6025   -2.5403   -1.3389 H.spc      1 <1>        0.000
     13 H           5.4980   -2.8084   -3.5503 H.spc      1 <1>        0.000
     14 H           5.3944   -1.0604   -3.8737 H.spc      1 <1>        0.000
     15 H           7.1231   -2.3153   -1.6864 H.spc      1 <1>        0.000
     16 H           7.7272   -1.8156   -3.2847 H.spc      1 <1>        0.000
     17 H           7.1725    0.4809   -2.8759 H.spc      1 <1>        0.000
     18 H           8.0304   -0.1289   -1.3944 H.spc      1 <1>        0.000
     19 H           2.7374   -0.5027   -0.3180 H.spc      1 <1>        0.000
     20 H           3.0125    1.5097    1.0961 H.spc      1 <1>        0.000
     21 H           5.1758    2.7438    1.0894 H.spc      1 <1>        0.000
     22 H           7.0387    1.9576   -0.3374 H.spc      1 <1>        0.000
@<TRIPOS>BOND
     1    7    8 ar 
     2    3    4 1  
     3    8    9 ar 
     4    2    3 1  
     5    1    6 1  
     6    9   10 ar 
     7    4    5 1  
     8    5    6 ar 
     9    1    2 1  
    10    6    7 ar 
    11    5   10 ar 
    12    1   11 1  
    13    1   12 1  
    14    2   13 1  
    15    2   14 1  
    16    3   15 1  
    17    3   16 1  
    18    4   17 1  
    19    4   18 1  
    20    7   19 1  
    21    8   20 1  
    22    9   21 1  
    23   10   22 1  
