#      Rotatable Fragment
#      Build by yxyuan
#
# Name:          frag4-360-335/150395
# Creation time: Sat Jun  5 12:53:32 2010


@<TRIPOS>MOLECULE
frag4-360-335/150395
   18    19     1     1     1
SMALL
USER_CHARGES


@<TRIPOS>ATOM
      1 C1          1.8742    0.9009    0.0983 C.3        1 <1>        0.000
      2 C2          0.3963    0.7328    0.0694 C.ar       1 <1>        0.000
      3 C3          2.5024   -0.4437   -0.0164 C.3        1 <1>        0.000
      4 C5          0.2655   -0.7489   -0.0653 C.ar       1 <1>        0.000
      5 C6         -0.7254    1.5974    0.1373 C.ar       1 <1>        0.000
      6 N1          1.5222   -1.3917   -0.1112 N.pl3      1 <1>        0.000
      7 C8         -1.1008   -1.2593   -0.1243 C.ar       1 <1>        0.000
      8 C9         -2.0442    1.0129    0.0728 C.ar       1 <1>        0.000
      9 C12        -2.2387   -0.3892   -0.0561 C.ar       1 <1>        0.000
     10 H           2.1774    1.3758    1.0314 H.spc      1 <1>        0.000
     11 H           2.1938    1.5337   -0.7296 H.spc      1 <1>        0.000
     12 H           3.1146   -0.6376    0.8644 H.spc      1 <1>        0.000
     13 H           3.1319   -0.4785   -0.9056 H.spc      1 <1>        0.000
     14 H          -0.5956    2.6752    0.2356 H.spc      1 <1>        0.000
     15 H           1.6733   -2.3965   -0.2003 H.spc      1 <1>        0.000
     16 H          -1.2608   -2.3330   -0.2231 H.spc      1 <1>        0.000
     17 H          -2.9156    1.6657    0.1244 H.spc      1 <1>        0.000
     18 H          -3.2470   -0.8007   -0.1028 H.spc      1 <1>        0.000
@<TRIPOS>BOND
     1    7    9 ar 
     2    8    9 ar 
     3    1    2 1  
     4    1    3 1  
     5    2    4 ar 
     6    3    6 1  
     7    2    5 ar 
     8    4    7 ar 
     9    4    6 1  
    10    5    8 ar 
    11    1   10 1  
    12    1   11 1  
    13    3   12 1  
    14    3   13 1  
    15    5   14 1  
    16    6   15 1  
    17    7   16 1  
    18    8   17 1  
    19    9   18 1  
# Name:          frag4-360-335/150395 -- energy: -1.150427
# Creation time: Sat Jun  5 12:53:32 2010


@<TRIPOS>MOLECULE
frag4-360-335/150395 -- energy: -1.150427
   18    19     1     1     1
SMALL
USER_CHARGES


@<TRIPOS>ATOM
      1 C1          1.8742    0.9009    0.0983 C.3        1 <1>        0.000
      2 C2          0.3963    0.7328    0.0694 C.ar       1 <1>        0.000
      3 C3          2.5024   -0.4437   -0.0164 C.3        1 <1>        0.000
      4 C5          0.2655   -0.7489   -0.0653 C.ar       1 <1>        0.000
      5 C6         -0.7254    1.5974    0.1373 C.ar       1 <1>        0.000
      6 N1          1.5222   -1.3917   -0.1112 N.pl3      1 <1>        0.000
      7 C8         -1.1008   -1.2593   -0.1243 C.ar       1 <1>        0.000
      8 C9         -2.0442    1.0129    0.0728 C.ar       1 <1>        0.000
      9 C12        -2.2387   -0.3892   -0.0561 C.ar       1 <1>        0.000
     10 H           2.1774    1.3758    1.0314 H.spc      1 <1>        0.000
     11 H           2.1938    1.5337   -0.7296 H.spc      1 <1>        0.000
     12 H           3.1146   -0.6376    0.8644 H.spc      1 <1>        0.000
     13 H           3.1319   -0.4785   -0.9056 H.spc      1 <1>        0.000
     14 H          -0.5956    2.6752    0.2356 H.spc      1 <1>        0.000
     15 H           1.6733   -2.3965   -0.2003 H.spc      1 <1>        0.000
     16 H          -1.2608   -2.3330   -0.2231 H.spc      1 <1>        0.000
     17 H          -2.9156    1.6657    0.1244 H.spc      1 <1>        0.000
     18 H          -3.2470   -0.8007   -0.1028 H.spc      1 <1>        0.000
@<TRIPOS>BOND
     1    7    9 ar 
     2    8    9 ar 
     3    1    2 1  
     4    1    3 1  
     5    2    4 ar 
     6    3    6 1  
     7    2    5 ar 
     8    4    7 ar 
     9    4    6 1  
    10    5    8 ar 
    11    1   10 1  
    12    1   11 1  
    13    3   12 1  
    14    3   13 1  
    15    5   14 1  
    16    6   15 1  
    17    7   16 1  
    18    8   17 1  
    19    9   18 1  
