#      Rotatable Fragment
#      Build by yxyuan
#
# Name:          frag4-322-762/150395
# Creation time: Sat Jun  5 12:53:30 2010


@<TRIPOS>MOLECULE
frag4-322-762/150395
   12    12     1     1     1
SMALL
USER_CHARGES


@<TRIPOS>ATOM
      1 N1          1.3369   -0.1559   -0.1059 N.3        1 <1>        0.000
      2 C2          1.6690    1.1105   -0.6200 C.3        1 <1>        0.000
      3 C3          2.5574   -0.7777    0.1468 C.3        1 <1>        0.000
      4 C6          3.1439    1.1942   -0.2394 C.3        1 <1>        0.000
      5 O1          3.6381   -0.0256    0.2124 O.3        1 <1>        0.000
      6 H           0.7698   -0.6921   -0.7626 H.spc      1 <1>        0.000
      7 H           1.0617    1.9236   -0.2224 H.spc      1 <1>        0.000
      8 H           1.4799    1.2190   -1.6880 H.spc      1 <1>        0.000
      9 H           2.7216   -1.4435   -0.7005 H.spc      1 <1>        0.000
     10 H           2.4547   -1.2204    1.1376 H.spc      1 <1>        0.000
     11 H           3.2464    1.9217    0.5658 H.spc      1 <1>        0.000
     12 H           3.7081    1.4820   -1.1265 H.spc      1 <1>        0.000
@<TRIPOS>BOND
     1    1    2 1  
     2    1    3 1  
     3    2    4 1  
     4    3    5 1  
     5    4    5 1  
     6    1    6 1  
     7    2    7 1  
     8    2    8 1  
     9    3    9 1  
    10    3   10 1  
    11    4   11 1  
    12    4   12 1  
# Name:          frag4-322-762/150395 -- energy: -0.582314
# Creation time: Sat Jun  5 12:53:30 2010


@<TRIPOS>MOLECULE
frag4-322-762/150395 -- energy: -0.582314
   12    12     1     1     1
SMALL
USER_CHARGES


@<TRIPOS>ATOM
      1 N1          1.3369   -0.1559   -0.1059 N.3        1 <1>        0.000
      2 C2          1.6690    1.1105   -0.6200 C.3        1 <1>        0.000
      3 C3          2.5574   -0.7777    0.1468 C.3        1 <1>        0.000
      4 C6          3.1439    1.1942   -0.2394 C.3        1 <1>        0.000
      5 O1          3.6381   -0.0256    0.2124 O.3        1 <1>        0.000
      6 H           0.7698   -0.6921   -0.7626 H.spc      1 <1>        0.000
      7 H           1.0617    1.9236   -0.2224 H.spc      1 <1>        0.000
      8 H           1.4799    1.2190   -1.6880 H.spc      1 <1>        0.000
      9 H           2.7216   -1.4435   -0.7005 H.spc      1 <1>        0.000
     10 H           2.4547   -1.2204    1.1376 H.spc      1 <1>        0.000
     11 H           3.2464    1.9217    0.5658 H.spc      1 <1>        0.000
     12 H           3.7081    1.4820   -1.1265 H.spc      1 <1>        0.000
@<TRIPOS>BOND
     1    1    2 1  
     2    1    3 1  
     3    2    4 1  
     4    3    5 1  
     5    4    5 1  
     6    1    6 1  
     7    2    7 1  
     8    2    8 1  
     9    3    9 1  
    10    3   10 1  
    11    4   11 1  
    12    4   12 1  
