#      Rotatable Fragment
#      Build by yxyuan
#
# Name:          frag3-097-1076/31924
# Creation time: Sat Jun  5 12:51:59 2010


@<TRIPOS>MOLECULE
frag3-097-1076/31924
    9     8     1     1     1
SMALL
USER_CHARGES


@<TRIPOS>ATOM
      1 N6          1.1375    0.6351   -0.0682 N.pl3      1 <1>        0.000
      2 C25         0.0975   -0.1963    0.0945 C.cat      1 <1>        0.000
      3 N7         -1.1074    0.2102    0.2366 N.pl3      1 <1>        0.000
      4 N8          0.4820   -1.4843    0.0769 N.pl3      1 <1>        0.000
      5 H           0.9866    1.6438   -0.0829 H.spc      1 <1>        0.000
      6 H           2.0792    0.2586   -0.1773 H.spc      1 <1>        0.000
      7 H          -1.8637   -0.4651    0.3481 H.spc      1 <1>        0.000
      8 H          -0.2113   -2.2250    0.1820 H.spc      1 <1>        0.000
      9 H           1.4671   -1.7209   -0.0416 H.spc      1 <1>        0.000
@<TRIPOS>BOND
     1    1    2 ar 
     2    2    3 ar 
     3    2    4 ar 
     4    1    5 1  
     5    1    6 1  
     6    3    7 1  
     7    4    8 1  
     8    4    9 1  
# Name:          frag3-097-1076/31924 -- energy: -0.159435
# Creation time: Sat Jun  5 12:51:59 2010


@<TRIPOS>MOLECULE
frag3-097-1076/31924 -- energy: -0.159435
    9     8     1     1     1
SMALL
USER_CHARGES


@<TRIPOS>ATOM
      1 N6          1.1375    0.6351   -0.0682 N.pl3      1 <1>        0.000
      2 C25         0.0975   -0.1963    0.0945 C.cat      1 <1>        0.000
      3 N7         -1.1074    0.2102    0.2366 N.pl3      1 <1>        0.000
      4 N8          0.4820   -1.4843    0.0769 N.pl3      1 <1>        0.000
      5 H           0.9866    1.6438   -0.0829 H.spc      1 <1>        0.000
      6 H           2.0792    0.2586   -0.1773 H.spc      1 <1>        0.000
      7 H          -1.8637   -0.4651    0.3481 H.spc      1 <1>        0.000
      8 H          -0.2113   -2.2250    0.1820 H.spc      1 <1>        0.000
      9 H           1.4671   -1.7209   -0.0416 H.spc      1 <1>        0.000
@<TRIPOS>BOND
     1    1    2 ar 
     2    2    3 ar 
     3    2    4 ar 
     4    1    5 1  
     5    1    6 1  
     6    3    7 1  
     7    4    8 1  
     8    4    9 1  
