#      Rotatable Fragment
#      Build by yxyuan
#
# Name:          frag2-052-15/92655
# Creation time: Sat Jun  5 12:51:57 2010


@<TRIPOS>MOLECULE
frag2-052-15/92655
   16    17     1     1     1
SMALL
USER_CHARGES


@<TRIPOS>ATOM
      1 C4          1.7867    1.1839   -0.0255 C.ar       1 <1>        0.000
      2 N4          2.8588    0.3315    0.0193 N.ar       1 <1>        0.000
      3 N5          2.7197   -0.9307    0.0725 N.ar       1 <1>        0.000
      4 C5          1.4916   -1.5360    0.0753 C.ar       1 <1>        0.000
      5 C6          0.3444   -0.7268    0.0317 C.ar       1 <1>        0.000
      6 C7          0.4917    0.6385   -0.0192 C.ar       1 <1>        0.000
      7 C8         -0.6437    1.4790   -0.0642 C.ar       1 <1>        0.000
      8 C9         -1.9181    0.9063   -0.0562 C.ar       1 <1>        0.000
      9 C10        -2.0668   -0.4778   -0.0046 C.ar       1 <1>        0.000
     10 C11        -0.9425   -1.3076    0.0396 C.ar       1 <1>        0.000
     11 H           1.9355    2.2630   -0.0652 H.spc      1 <1>        0.000
     12 H           1.4061   -2.6221    0.1106 H.spc      1 <1>        0.000
     13 H          -0.5264    2.5619   -0.1047 H.spc      1 <1>        0.000
     14 H          -2.8002    1.5456   -0.0905 H.spc      1 <1>        0.000
     15 H          -3.0648   -0.9161    0.0013 H.spc      1 <1>        0.000
     16 H          -1.0581   -2.3907    0.0797 H.spc      1 <1>        0.000
@<TRIPOS>BOND
     1    8    9 ar 
     2    9   10 ar 
     3    1    2 ar 
     4    2    3 ar 
     5    1    6 ar 
     6    3    4 ar 
     7    4    5 ar 
     8    5    6 ar 
     9    5   10 ar 
    10    6    7 ar 
    11    7    8 ar 
    12    1   11 1  
    13    4   12 1  
    14    7   13 1  
    15    8   14 1  
    16    9   15 1  
    17   10   16 1  
# Name:          frag2-052-15/92655 -- energy: -0.044976
# Creation time: Sat Jun  5 12:51:57 2010


@<TRIPOS>MOLECULE
frag2-052-15/92655 -- energy: -0.044976
   16    17     1     1     1
SMALL
USER_CHARGES


@<TRIPOS>ATOM
      1 C4          1.7867    1.1839   -0.0255 C.ar       1 <1>        0.000
      2 N4          2.8588    0.3315    0.0193 N.ar       1 <1>        0.000
      3 N5          2.7197   -0.9307    0.0725 N.ar       1 <1>        0.000
      4 C5          1.4916   -1.5360    0.0753 C.ar       1 <1>        0.000
      5 C6          0.3444   -0.7268    0.0317 C.ar       1 <1>        0.000
      6 C7          0.4917    0.6385   -0.0192 C.ar       1 <1>        0.000
      7 C8         -0.6437    1.4790   -0.0642 C.ar       1 <1>        0.000
      8 C9         -1.9181    0.9063   -0.0562 C.ar       1 <1>        0.000
      9 C10        -2.0668   -0.4778   -0.0046 C.ar       1 <1>        0.000
     10 C11        -0.9425   -1.3076    0.0396 C.ar       1 <1>        0.000
     11 H           1.9355    2.2630   -0.0652 H.spc      1 <1>        0.000
     12 H           1.4061   -2.6221    0.1106 H.spc      1 <1>        0.000
     13 H          -0.5264    2.5619   -0.1047 H.spc      1 <1>        0.000
     14 H          -2.8002    1.5456   -0.0905 H.spc      1 <1>        0.000
     15 H          -3.0648   -0.9161    0.0013 H.spc      1 <1>        0.000
     16 H          -1.0581   -2.3907    0.0797 H.spc      1 <1>        0.000
@<TRIPOS>BOND
     1    8    9 ar 
     2    9   10 ar 
     3    1    2 ar 
     4    2    3 ar 
     5    1    6 ar 
     6    3    4 ar 
     7    4    5 ar 
     8    5    6 ar 
     9    5   10 ar 
    10    6    7 ar 
    11    7    8 ar 
    12    1   11 1  
    13    4   12 1  
    14    7   13 1  
    15    8   14 1  
    16    9   15 1  
    17   10   16 1  
