#      Rotatable Fragment
#      Build by yxyuan
#
# Name:          frag3-257-3/31924
# Creation time: Sat Jun  5 12:52:40 2010


@<TRIPOS>MOLECULE
frag3-257-3/31924
    8     7     1     1     1
SMALL
USER_CHARGES


@<TRIPOS>ATOM
      1 N1         -0.5951    0.1030   -0.3014 N.am       1 <1>        0.000
      2 O1         -1.7658   -0.3938    0.2039 O.3        1 <1>        0.000
      3 C1          0.6357   -0.2331    0.1807 C.2        1 <1>        0.000
      4 O2          1.6727   -0.0045   -0.3948 O.2        1 <1>        0.000
      5 O3          0.6669   -0.8802    1.3825 O.3        1 <1>        0.000
      6 H          -0.6457    0.7598   -1.0802 H.spc      1 <1>        0.000
      7 H          -2.5057   -0.0243   -0.2836 H.spc      1 <1>        0.000
      8 H          -0.2290   -0.9870    1.7105 H.spc      1 <1>        0.000
@<TRIPOS>BOND
     1    1    2 1  
     2    1    3 am 
     3    3    4 2  
     4    3    5 1  
     5    1    6 1  
     6    2    7 1  
     7    5    8 1  
# Name:          frag3-257-3/31924 -- energy: 0.141006
# Creation time: Sat Jun  5 12:52:40 2010


@<TRIPOS>MOLECULE
frag3-257-3/31924 -- energy: 0.141006
    8     7     1     1     1
SMALL
USER_CHARGES


@<TRIPOS>ATOM
      1 N1         -0.5951    0.1030   -0.3014 N.am       1 <1>        0.000
      2 O1         -1.7658   -0.3938    0.2039 O.3        1 <1>        0.000
      3 C1          0.6357   -0.2331    0.1807 C.2        1 <1>        0.000
      4 O2          1.6727   -0.0045   -0.3948 O.2        1 <1>        0.000
      5 O3          0.6669   -0.8802    1.3825 O.3        1 <1>        0.000
      6 H          -0.6457    0.7598   -1.0802 H.spc      1 <1>        0.000
      7 H          -2.5057   -0.0243   -0.2836 H.spc      1 <1>        0.000
      8 H          -0.2290   -0.9870    1.7105 H.spc      1 <1>        0.000
@<TRIPOS>BOND
     1    1    2 1  
     2    1    3 am 
     3    3    4 2  
     4    3    5 1  
     5    1    6 1  
     6    2    7 1  
     7    5    8 1  
