#      Rotatable Fragment
#      Build by yxyuan
#
# Name:          frag5-565-46/41815
# Creation time: Sat Jun  5 12:52:54 2010


@<TRIPOS>MOLECULE
frag5-565-46/41815
   22    23     1     1     1
SMALL
USER_CHARGES


@<TRIPOS>ATOM
      1 C14        -1.2441   -2.2758   -0.8083 C.ar       1 <1>        0.000
      2 C15        -1.3922   -1.2419    0.1195 C.ar       1 <1>        0.000
      3 C16        -2.6235   -0.6072    0.2618 C.ar       1 <1>        0.000
      4 C17        -3.7239   -0.9857   -0.5250 C.ar       1 <1>        0.000
      5 C18        -3.5568   -2.0236   -1.4565 C.ar       1 <1>        0.000
      6 C19        -2.3299   -2.6678   -1.5951 C.ar       1 <1>        0.000
      7 C20        -5.0163   -0.3133   -0.3772 C.ar       1 <1>        0.000
      8 C21        -5.7999   -0.0086   -1.5023 C.ar       1 <1>        0.000
      9 C22        -7.0270    0.6354   -1.3644 C.ar       1 <1>        0.000
     10 C23        -7.4960    0.9769   -0.0936 C.ar       1 <1>        0.000
     11 C24        -6.7311    0.6765    1.0361 C.ar       1 <1>        0.000
     12 C25        -5.5001    0.0414    0.8929 C.ar       1 <1>        0.000
     13 H          -0.2821   -2.7763   -0.9182 H.spc      1 <1>        0.000
     14 H          -0.5449   -0.9324    0.7313 H.spc      1 <1>        0.000
     15 H          -2.7348    0.1935    0.9930 H.spc      1 <1>        0.000
     16 H          -4.3981   -2.3287   -2.0788 H.spc      1 <1>        0.000
     17 H          -2.2169   -3.4769   -2.3166 H.spc      1 <1>        0.000
     18 H          -5.4431   -0.2796   -2.4960 H.spc      1 <1>        0.000
     19 H          -7.6208    0.8727   -2.2471 H.spc      1 <1>        0.000
     20 H          -8.4580    1.4774    0.0164 H.spc      1 <1>        0.000
     21 H          -7.0974    0.9389    2.0286 H.spc      1 <1>        0.000
     22 H          -4.9044   -0.1833    1.7776 H.spc      1 <1>        0.000
@<TRIPOS>BOND
     1    1    6 ar 
     2    4    5 ar 
     3    9   10 ar 
     4    7    8 ar 
     5   10   11 ar 
     6    7   12 ar 
     7   11   12 ar 
     8    4    7 1  
     9    3    4 ar 
    10    5    6 ar 
    11    2    3 ar 
    12    1    2 ar 
    13    8    9 ar 
    14    1   13 1  
    15    2   14 1  
    16    3   15 1  
    17    5   16 1  
    18    6   17 1  
    19    8   18 1  
    20    9   19 1  
    21   10   20 1  
    22   11   21 1  
    23   12   22 1  
# Name:          frag5-565-46/41815
# Creation time: Sat Jun  5 12:52:54 2010


@<TRIPOS>MOLECULE
frag5-565-46/41815
   22    23     1     1     1
SMALL
USER_CHARGES


@<TRIPOS>ATOM
      1 C14        -1.2441   -2.2758   -0.8084 C.ar       1 <1>        0.000
      2 C15        -2.0248   -2.0063   -1.9352 C.ar       1 <1>        0.000
      3 C16        -3.2513   -1.3626   -1.7928 C.ar       1 <1>        0.000
      4 C17        -3.7241   -0.9857   -0.5248 C.ar       1 <1>        0.000
      5 C18        -2.9289   -1.2683    0.5981 C.ar       1 <1>        0.000
      6 C19        -1.6973   -1.9033    0.4595 C.ar       1 <1>        0.000
      7 C20        -5.0162   -0.3135   -0.3771 C.ar       1 <1>        0.000
      8 C21        -6.1100   -0.6750   -1.1808 C.ar       1 <1>        0.000
      9 C22        -7.3385   -0.0335   -1.0454 C.ar       1 <1>        0.000
     10 C23        -7.4960    0.9769   -0.0937 C.ar       1 <1>        0.000
     11 C24        -6.4196    1.3454    0.7169 C.ar       1 <1>        0.000
     12 C25        -5.1903    0.7079    0.5715 C.ar       1 <1>        0.000
     13 H          -0.2821   -2.7763   -0.9184 H.spc      1 <1>        0.000
     14 H          -1.6742   -2.2996   -2.9247 H.spc      1 <1>        0.000
     15 H          -3.8523   -1.1484   -2.6766 H.spc      1 <1>        0.000
     16 H          -3.2804   -0.9869    1.5908 H.spc      1 <1>        0.000
     17 H          -1.0876   -2.1095    1.3392 H.spc      1 <1>        0.000
     18 H          -5.9957   -1.4679   -1.9200 H.spc      1 <1>        0.000
     19 H          -8.1763   -0.3194   -1.6813 H.spc      1 <1>        0.000
     20 H          -8.4580    1.4774    0.0163 H.spc      1 <1>        0.000
     21 H          -6.5419    2.1311    1.4624 H.spc      1 <1>        0.000
     22 H          -4.3522    1.0052    1.2019 H.spc      1 <1>        0.000
@<TRIPOS>BOND
     1    1    6 ar 
     2    4    5 ar 
     3    9   10 ar 
     4    7    8 ar 
     5   10   11 ar 
     6    7   12 ar 
     7   11   12 ar 
     8    4    7 1  
     9    3    4 ar 
    10    5    6 ar 
    11    2    3 ar 
    12    1    2 ar 
    13    8    9 ar 
    14    1   13 1  
    15    2   14 1  
    16    3   15 1  
    17    5   16 1  
    18    6   17 1  
    19    8   18 1  
    20    9   19 1  
    21   10   20 1  
    22   11   21 1  
    23   12   22 1  
# Name:          frag5-565-46/41815 -- energy: -0.963703
# Creation time: Sat Jun  5 12:52:54 2010


@<TRIPOS>MOLECULE
frag5-565-46/41815 -- energy: -0.963703
   22    23     1     1     1
SMALL
USER_CHARGES


@<TRIPOS>ATOM
      1 C14        -1.2441   -2.2758   -0.8083 C.ar       1 <1>        0.000
      2 C15        -1.3922   -1.2419    0.1195 C.ar       1 <1>        0.000
      3 C16        -2.6235   -0.6072    0.2618 C.ar       1 <1>        0.000
      4 C17        -3.7239   -0.9857   -0.5250 C.ar       1 <1>        0.000
      5 C18        -3.5568   -2.0236   -1.4565 C.ar       1 <1>        0.000
      6 C19        -2.3299   -2.6678   -1.5951 C.ar       1 <1>        0.000
      7 C20        -5.0163   -0.3133   -0.3772 C.ar       1 <1>        0.000
      8 C21        -5.7999   -0.0086   -1.5023 C.ar       1 <1>        0.000
      9 C22        -7.0270    0.6354   -1.3644 C.ar       1 <1>        0.000
     10 C23        -7.4960    0.9769   -0.0936 C.ar       1 <1>        0.000
     11 C24        -6.7311    0.6765    1.0361 C.ar       1 <1>        0.000
     12 C25        -5.5001    0.0414    0.8929 C.ar       1 <1>        0.000
     13 H          -0.2821   -2.7763   -0.9182 H.spc      1 <1>        0.000
     14 H          -0.5449   -0.9324    0.7313 H.spc      1 <1>        0.000
     15 H          -2.7348    0.1935    0.9930 H.spc      1 <1>        0.000
     16 H          -4.3981   -2.3287   -2.0788 H.spc      1 <1>        0.000
     17 H          -2.2169   -3.4769   -2.3166 H.spc      1 <1>        0.000
     18 H          -5.4431   -0.2796   -2.4960 H.spc      1 <1>        0.000
     19 H          -7.6208    0.8727   -2.2471 H.spc      1 <1>        0.000
     20 H          -8.4580    1.4774    0.0164 H.spc      1 <1>        0.000
     21 H          -7.0974    0.9389    2.0286 H.spc      1 <1>        0.000
     22 H          -4.9044   -0.1833    1.7776 H.spc      1 <1>        0.000
@<TRIPOS>BOND
     1    1    6 ar 
     2    4    5 ar 
     3    9   10 ar 
     4    7    8 ar 
     5   10   11 ar 
     6    7   12 ar 
     7   11   12 ar 
     8    4    7 1  
     9    3    4 ar 
    10    5    6 ar 
    11    2    3 ar 
    12    1    2 ar 
    13    8    9 ar 
    14    1   13 1  
    15    2   14 1  
    16    3   15 1  
    17    5   16 1  
    18    6   17 1  
    19    8   18 1  
    20    9   19 1  
    21   10   20 1  
    22   11   21 1  
    23   12   22 1  
# Name:          frag5-565-46/41815 -- energy: -0.934925
# Creation time: Sat Jun  5 12:52:54 2010


@<TRIPOS>MOLECULE
frag5-565-46/41815 -- energy: -0.934925
   22    23     1     1     1
SMALL
USER_CHARGES


@<TRIPOS>ATOM
      1 C14        -1.2441   -2.2758   -0.8084 C.ar       1 <1>        0.000
      2 C15        -2.0248   -2.0063   -1.9352 C.ar       1 <1>        0.000
      3 C16        -3.2513   -1.3626   -1.7928 C.ar       1 <1>        0.000
      4 C17        -3.7241   -0.9857   -0.5248 C.ar       1 <1>        0.000
      5 C18        -2.9289   -1.2683    0.5981 C.ar       1 <1>        0.000
      6 C19        -1.6973   -1.9033    0.4595 C.ar       1 <1>        0.000
      7 C20        -5.0162   -0.3135   -0.3771 C.ar       1 <1>        0.000
      8 C21        -6.1100   -0.6750   -1.1808 C.ar       1 <1>        0.000
      9 C22        -7.3385   -0.0335   -1.0454 C.ar       1 <1>        0.000
     10 C23        -7.4960    0.9769   -0.0937 C.ar       1 <1>        0.000
     11 C24        -6.4196    1.3454    0.7169 C.ar       1 <1>        0.000
     12 C25        -5.1903    0.7079    0.5715 C.ar       1 <1>        0.000
     13 H          -0.2821   -2.7763   -0.9184 H.spc      1 <1>        0.000
     14 H          -1.6742   -2.2996   -2.9247 H.spc      1 <1>        0.000
     15 H          -3.8523   -1.1484   -2.6766 H.spc      1 <1>        0.000
     16 H          -3.2804   -0.9869    1.5908 H.spc      1 <1>        0.000
     17 H          -1.0876   -2.1095    1.3392 H.spc      1 <1>        0.000
     18 H          -5.9957   -1.4679   -1.9200 H.spc      1 <1>        0.000
     19 H          -8.1763   -0.3194   -1.6813 H.spc      1 <1>        0.000
     20 H          -8.4580    1.4774    0.0163 H.spc      1 <1>        0.000
     21 H          -6.5419    2.1311    1.4624 H.spc      1 <1>        0.000
     22 H          -4.3522    1.0052    1.2019 H.spc      1 <1>        0.000
@<TRIPOS>BOND
     1    1    6 ar 
     2    4    5 ar 
     3    9   10 ar 
     4    7    8 ar 
     5   10   11 ar 
     6    7   12 ar 
     7   11   12 ar 
     8    4    7 1  
     9    3    4 ar 
    10    5    6 ar 
    11    2    3 ar 
    12    1    2 ar 
    13    8    9 ar 
    14    1   13 1  
    15    2   14 1  
    16    3   15 1  
    17    5   16 1  
    18    6   17 1  
    19    8   18 1  
    20    9   19 1  
    21   10   20 1  
    22   11   21 1  
    23   12   22 1  
