#      Rotatable Fragment
#      Build by yxyuan
#
# Name:          frag5-557-53/41815
# Creation time: Sat Jun  5 12:52:53 2010


@<TRIPOS>MOLECULE
frag5-557-53/41815
   32    34     1     1     1
SMALL
USER_CHARGES


@<TRIPOS>ATOM
      1 O6         -2.1103   -1.6231   -3.2197 O.3        1 <1>        0.000
      2 C7         -1.1518   -0.8943   -2.6280 C.ar       1 <1>        0.000
      3 C8         -0.1234   -1.5548   -1.9009 C.ar       1 <1>        0.000
      4 C9          0.8160   -0.7389   -1.2503 C.ar       1 <1>        0.000
      5 C10         0.8786    0.6590   -1.3024 C.ar       1 <1>        0.000
      6 C11        -0.1052    1.2583   -2.0860 C.ar       1 <1>        0.000
      7 C12        -1.0753    0.5026   -2.7311 C.ar       1 <1>        0.000
      8 C21         4.5922    3.8791    1.7055 C.ar       1 <1>        0.000
      9 C13         1.8645    1.4309   -0.5471 C.ar       1 <1>        0.000
     10 C14         3.1798    1.3246   -0.8379 C.ar       1 <1>        0.000
     11 C15         4.1854    2.1445   -0.0856 C.ar       1 <1>        0.000
     12 C16         3.7613    2.9894    0.8666 C.ar       1 <1>        0.000
     13 C17         2.2905    3.0143    1.0834 C.ar       1 <1>        0.000
     14 C18         1.7819    3.9646    2.0969 C.ar       1 <1>        0.000
     15 C19         2.5724    4.7733    2.8098 C.ar       1 <1>        0.000
     16 C20         3.9903    4.6979    2.5967 C.ar       1 <1>        0.000
     17 O7          5.9269    3.8155    1.5359 O.3        1 <1>        0.000
     18 O8          2.0696    5.6581    3.7123 O.3        1 <1>        0.000
     19 O9          1.4994    2.2638    0.4149 O.3        1 <1>        0.000
     20 O10         5.3089    1.9736   -0.4012 O.2        1 <1>        0.000
     21 O11         3.5931    0.4702   -1.8425 O.3        1 <1>        0.000
     22 O17        -0.1113   -2.8965   -1.8270 O.3        1 <1>        0.000
     23 H          -1.9739   -2.5520   -3.0195 H.spc      1 <1>        0.000
     24 H           1.5701   -1.2428   -0.6457 H.spc      1 <1>        0.000
     25 H          -0.1136    2.3428   -2.1950 H.spc      1 <1>        0.000
     26 H          -1.8119    1.0191   -3.3465 H.spc      1 <1>        0.000
     27 H           0.7068    4.0076    2.2714 H.spc      1 <1>        0.000
     28 H           4.6272    5.3478    3.1968 H.spc      1 <1>        0.000
     29 H           6.3540    4.4351    2.1320 H.spc      1 <1>        0.000
     30 H           1.1128    5.5824    3.7341 H.spc      1 <1>        0.000
     31 H           4.5489    0.5109   -1.9226 H.spc      1 <1>        0.000
     32 H           0.6421   -3.1803   -1.3041 H.spc      1 <1>        0.000
@<TRIPOS>BOND
     1    2    7 ar 
     2   12    8 ar 
     3   13   14 ar 
     4    2    3 ar 
     5   15   16 ar 
     6   15   18 1  
     7    3   22 1  
     8   13   19 ar 
     9    4    5 ar 
    10    5    6 ar 
    11    9   10 ar 
    12    1    2 1  
    13    5    9 1  
    14   14   15 ar 
    15   11   20 2  
    16    6    7 ar 
    17    9   19 ar 
    18    3    4 ar 
    19   10   21 1  
    20   11   12 ar 
    21   12   13 ar 
    22   16    8 ar 
    23    8   17 1  
    24   10   11 ar 
    25    1   23 1  
    26    4   24 1  
    27    6   25 1  
    28    7   26 1  
    29   14   27 1  
    30   16   28 1  
    31   17   29 1  
    32   18   30 1  
    33   21   31 1  
    34   22   32 1  
# Name:          frag5-557-53/41815
# Creation time: Sat Jun  5 12:52:53 2010


@<TRIPOS>MOLECULE
frag5-557-53/41815
   32    34     1     1     1
SMALL
USER_CHARGES


@<TRIPOS>ATOM
      1 O6         -2.0031   -2.0112   -2.9370 O.3        1 <1>        0.000
      2 C7         -1.1295   -1.1972   -2.3265 C.ar       1 <1>        0.000
      3 C8         -0.0509   -0.6477   -3.0678 C.ar       1 <1>        0.000
      4 C9          0.8791    0.1244   -2.3541 C.ar       1 <1>        0.000
      5 C10         0.8250    0.4538   -0.9933 C.ar       1 <1>        0.000
      6 C11        -0.3009   -0.0257   -0.3331 C.ar       1 <1>        0.000
      7 C12        -1.2360   -0.8235   -0.9815 C.ar       1 <1>        0.000
      8 C21         4.6106    3.8835    1.6722 C.ar       1 <1>        0.000
      9 C13         1.8185    1.2907   -0.3262 C.ar       1 <1>        0.000
     10 C14         3.1360    1.0259   -0.4765 C.ar       1 <1>        0.000
     11 C15         4.1528    1.8829    0.2009 C.ar       1 <1>        0.000
     12 C16         3.7541    2.9250    0.9420 C.ar       1 <1>        0.000
     13 C17         2.2808    3.1115    1.0191 C.ar       1 <1>        0.000
     14 C18         1.7982    4.2740    1.7949 C.ar       1 <1>        0.000
     15 C19         2.6097    5.1352    2.4062 C.ar       1 <1>        0.000
     16 C20         4.0278    4.9048    2.3331 C.ar       1 <1>        0.000
     17 O7          5.9466    3.6823    1.6303 O.3        1 <1>        0.000
     18 O8          2.1450    6.1970    3.1194 O.3        1 <1>        0.000
     19 O9          1.4713    2.3108    0.4431 O.3        1 <1>        0.000
     20 O10         5.2800    1.5739    0.0276 O.2        1 <1>        0.000
     21 O11         3.5455   -0.0422   -1.2532 O.3        1 <1>        0.000
     22 O17         0.0726   -0.9162   -4.3775 O.3        1 <1>        0.000
     23 H          -1.7401   -2.1323   -3.8523 H.spc      1 <1>        0.000
     24 H           1.7309    0.5070   -2.9163 H.spc      1 <1>        0.000
     25 H          -0.4533    0.2297    0.7155 H.spc      1 <1>        0.000
     26 H          -2.0968   -1.1765   -0.4136 H.spc      1 <1>        0.000
     27 H           0.7227    4.4345    1.8704 H.spc      1 <1>        0.000
     28 H           4.6802    5.6082    2.8505 H.spc      1 <1>        0.000
     29 H           6.3882    4.3663    2.1389 H.spc      1 <1>        0.000
     30 H           1.1863    6.2168    3.0738 H.spc      1 <1>        0.000
     31 H           4.5044   -0.0873   -1.2533 H.spc      1 <1>        0.000
     32 H           0.8491   -0.4696   -4.7227 H.spc      1 <1>        0.000
@<TRIPOS>BOND
     1    2    7 ar 
     2   12    8 ar 
     3   13   14 ar 
     4    2    3 ar 
     5   15   16 ar 
     6   15   18 1  
     7    3   22 1  
     8   13   19 ar 
     9    4    5 ar 
    10    5    6 ar 
    11    9   10 ar 
    12    1    2 1  
    13    5    9 1  
    14   14   15 ar 
    15   11   20 2  
    16    6    7 ar 
    17    9   19 ar 
    18    3    4 ar 
    19   10   21 1  
    20   11   12 ar 
    21   12   13 ar 
    22   16    8 ar 
    23    8   17 1  
    24   10   11 ar 
    25    1   23 1  
    26    4   24 1  
    27    6   25 1  
    28    7   26 1  
    29   14   27 1  
    30   16   28 1  
    31   17   29 1  
    32   18   30 1  
    33   21   31 1  
    34   22   32 1  
# Name:          frag5-557-53/41815
# Creation time: Sat Jun  5 12:52:53 2010


@<TRIPOS>MOLECULE
frag5-557-53/41815
   32    34     1     1     1
SMALL
USER_CHARGES


@<TRIPOS>ATOM
      1 O6         -1.9275   -1.7193   -3.3585 O.3        1 <1>        0.000
      2 C7         -0.9733   -0.9963   -2.7473 C.ar       1 <1>        0.000
      3 C8         -0.6642   -1.2683   -1.3800 C.ar       1 <1>        0.000
      4 C9          0.2911   -0.4423   -0.7620 C.ar       1 <1>        0.000
      5 C10         1.0134    0.5787   -1.3937 C.ar       1 <1>        0.000
      6 C11         0.7274    0.7635   -2.7473 C.ar       1 <1>        0.000
      7 C12        -0.2258   -0.0040   -3.3949 C.ar       1 <1>        0.000
      8 C21         4.5418    3.9665    1.6669 C.ar       1 <1>        0.000
      9 C13         1.9571    1.4072   -0.6341 C.ar       1 <1>        0.000
     10 C14         3.2415    1.5132   -1.0407 C.ar       1 <1>        0.000
     11 C15         4.2020    2.3840   -0.2802 C.ar       1 <1>        0.000
     12 C16         3.7552    3.0569    0.7989 C.ar       1 <1>        0.000
     13 C17         2.3195    2.8594    1.1414 C.ar       1 <1>        0.000
     14 C18         1.7964    3.6215    2.2918 C.ar       1 <1>        0.000
     15 C19         2.5408    4.4589    3.0271 C.ar       1 <1>        0.000
     16 C20         3.9289    4.6079    2.6887 C.ar       1 <1>        0.000
     17 O7          5.8491    4.1132    1.3755 O.3        1 <1>        0.000
     18 O8          2.0144    5.1628    4.0638 O.3        1 <1>        0.000
     19 O9          1.5825    2.0674    0.4534 O.3        1 <1>        0.000
     20 O10         5.3103    2.4171   -0.7030 O.2        1 <1>        0.000
     21 O11         3.6566    0.8271   -2.1622 O.3        1 <1>        0.000
     22 O17        -1.3040   -2.2634   -0.7417 O.3        1 <1>        0.000
     23 H          -2.3093   -2.3381   -2.7317 H.spc      1 <1>        0.000
     24 H           0.4861   -0.6103    0.2972 H.spc      1 <1>        0.000
     25 H           1.2660    1.5285   -3.3066 H.spc      1 <1>        0.000
     26 H          -0.4025    0.1717   -4.4560 H.spc      1 <1>        0.000
     27 H           0.7469    3.4964    2.5581 H.spc      1 <1>        0.000
     28 H           4.5298    5.2841    3.2968 H.spc      1 <1>        0.000
     29 H           6.2491    4.7212    2.0016 H.spc      1 <1>        0.000
     30 H           1.0830    4.9486    4.1544 H.spc      1 <1>        0.000
     31 H           4.5870    1.0046   -2.3184 H.spc      1 <1>        0.000
     32 H          -0.9865   -2.3182    0.1626 H.spc      1 <1>        0.000
@<TRIPOS>BOND
     1    2    7 ar 
     2   12    8 ar 
     3   13   14 ar 
     4    2    3 ar 
     5   15   16 ar 
     6   15   18 1  
     7    3   22 1  
     8   13   19 ar 
     9    4    5 ar 
    10    5    6 ar 
    11    9   10 ar 
    12    1    2 1  
    13    5    9 1  
    14   14   15 ar 
    15   11   20 2  
    16    6    7 ar 
    17    9   19 ar 
    18    3    4 ar 
    19   10   21 1  
    20   11   12 ar 
    21   12   13 ar 
    22   16    8 ar 
    23    8   17 1  
    24   10   11 ar 
    25    1   23 1  
    26    4   24 1  
    27    6   25 1  
    28    7   26 1  
    29   14   27 1  
    30   16   28 1  
    31   17   29 1  
    32   18   30 1  
    33   21   31 1  
    34   22   32 1  
# Name:          frag5-557-53/41815
# Creation time: Sat Jun  5 12:52:53 2010


@<TRIPOS>MOLECULE
frag5-557-53/41815
   32    34     1     1     1
SMALL
USER_CHARGES


@<TRIPOS>ATOM
      1 O6         -1.7103   -1.9577   -3.3702 O.3        1 <1>        0.000
      2 C7         -0.8081   -1.2206   -2.7131 C.ar       1 <1>        0.000
      3 C8         -1.1206   -0.6917   -1.4378 C.ar       1 <1>        0.000
      4 C9         -0.1484    0.1383   -0.8467 C.ar       1 <1>        0.000
      5 C10         1.1249    0.4410   -1.3476 C.ar       1 <1>        0.000
      6 C11         1.3817   -0.1804   -2.5588 C.ar       1 <1>        0.000
      7 C12         0.4673   -0.9767   -3.2087 C.ar       1 <1>        0.000
      8 C21         4.5001    4.0511    1.6033 C.ar       1 <1>        0.000
      9 C13         2.0276    1.3245   -0.6059 C.ar       1 <1>        0.000
     10 C14         3.2844    1.5604   -1.0508 C.ar       1 <1>        0.000
     11 C15         4.1781    2.4866   -0.3299 C.ar       1 <1>        0.000
     12 C16         3.7486    3.1054    0.7656 C.ar       1 <1>        0.000
     13 C17         2.3551    2.7734    1.1616 C.ar       1 <1>        0.000
     14 C18         1.8157    3.4627    2.3511 C.ar       1 <1>        0.000
     15 C19         2.5256    4.3475    3.0623 C.ar       1 <1>        0.000
     16 C20         3.8768    4.6076    2.6627 C.ar       1 <1>        0.000
     17 O7          5.7824    4.2978    1.2792 O.3        1 <1>        0.000
     18 O8          2.0118    4.9997    4.1356 O.3        1 <1>        0.000
     19 O9          1.6411    1.9424    0.4986 O.3        1 <1>        0.000
     20 O10         5.2461    2.5977   -0.8203 O.2        1 <1>        0.000
     21 O11         3.7651    0.9598   -2.1911 O.3        1 <1>        0.000
     22 O17        -2.3115   -0.9571   -0.8768 O.3        1 <1>        0.000
     23 H          -2.5206   -2.0017   -2.8573 H.spc      1 <1>        0.000
     24 H          -0.4160    0.5959    0.1058 H.spc      1 <1>        0.000
     25 H           2.3578   -0.0308   -3.0203 H.spc      1 <1>        0.000
     26 H           0.7557   -1.4366   -4.1539 H.spc      1 <1>        0.000
     27 H           0.7952    3.2415    2.6637 H.spc      1 <1>        0.000
     28 H           4.4487    5.3138    3.2646 H.spc      1 <1>        0.000
     29 H           6.1532    4.9275    1.9018 H.spc      1 <1>        0.000
     30 H           1.1042    4.7195    4.2746 H.spc      1 <1>        0.000
     31 H           4.6681    1.2465   -2.3461 H.spc      1 <1>        0.000
     32 H          -2.3633   -0.5270   -0.0201 H.spc      1 <1>        0.000
@<TRIPOS>BOND
     1    2    7 ar 
     2   12    8 ar 
     3   13   14 ar 
     4    2    3 ar 
     5   15   16 ar 
     6   15   18 1  
     7    3   22 1  
     8   13   19 ar 
     9    4    5 ar 
    10    5    6 ar 
    11    9   10 ar 
    12    1    2 1  
    13    5    9 1  
    14   14   15 ar 
    15   11   20 2  
    16    6    7 ar 
    17    9   19 ar 
    18    3    4 ar 
    19   10   21 1  
    20   11   12 ar 
    21   12   13 ar 
    22   16    8 ar 
    23    8   17 1  
    24   10   11 ar 
    25    1   23 1  
    26    4   24 1  
    27    6   25 1  
    28    7   26 1  
    29   14   27 1  
    30   16   28 1  
    31   17   29 1  
    32   18   30 1  
    33   21   31 1  
    34   22   32 1  
# Name:          frag5-557-53/41815
# Creation time: Sat Jun  5 12:52:53 2010


@<TRIPOS>MOLECULE
frag5-557-53/41815
   32    34     1     1     1
SMALL
USER_CHARGES


@<TRIPOS>ATOM
      1 O6         -2.1589   -1.7523   -3.0352 O.3        1 <1>        0.000
      2 C7         -1.2255   -0.9966   -2.4483 C.ar       1 <1>        0.000
      3 C8          0.1269   -1.2965   -2.6487 C.ar       1 <1>        0.000
      4 C9          1.0258   -0.5028   -1.9430 C.ar       1 <1>        0.000
      5 C10         0.7880    0.6012   -1.1206 C.ar       1 <1>        0.000
      6 C11        -0.5627    0.9031   -1.0284 C.ar       1 <1>        0.000
      7 C12        -1.5245    0.1318   -1.6733 C.ar       1 <1>        0.000
      8 C21         4.6209    3.8373    1.7020 C.ar       1 <1>        0.000
      9 C13         1.8049    1.3858   -0.4202 C.ar       1 <1>        0.000
     10 C14         3.1301    1.1392   -0.5767 C.ar       1 <1>        0.000
     11 C15         4.1322    1.9388    0.1377 C.ar       1 <1>        0.000
     12 C16         3.7494    2.9353    0.9346 C.ar       1 <1>        0.000
     13 C17         2.2819    3.1222    1.0241 C.ar       1 <1>        0.000
     14 C18         1.7996    4.2369    1.8591 C.ar       1 <1>        0.000
     15 C19         2.6280    5.0612    2.5187 C.ar       1 <1>        0.000
     16 C20         4.0379    4.8197    2.4213 C.ar       1 <1>        0.000
     17 O7          5.9536    3.6275    1.6615 O.3        1 <1>        0.000
     18 O8          2.1794    6.0943    3.2754 O.3        1 <1>        0.000
     19 O9          1.4567    2.3608    0.4037 O.3        1 <1>        0.000
     20 O10         5.2565    1.6241   -0.0476 O.2        1 <1>        0.000
     21 O11         3.6128    0.1385   -1.3857 O.3        1 <1>        0.000
     22 O17         0.5204   -2.2976   -3.4483 O.3        1 <1>        0.000
     23 H          -1.7349   -2.4688   -3.5132 H.spc      1 <1>        0.000
     24 H           2.0734   -0.7849   -2.0476 H.spc      1 <1>        0.000
     25 H          -0.8775    1.7634   -0.4378 H.spc      1 <1>        0.000
     26 H          -2.5701    0.4219   -1.5697 H.spc      1 <1>        0.000
     27 H           0.7250    4.3985    1.9444 H.spc      1 <1>        0.000
     28 H           4.6965    5.4876    2.9765 H.spc      1 <1>        0.000
     29 H           6.3965    4.2847    2.2033 H.spc      1 <1>        0.000
     30 H           1.2205    6.1234    3.2391 H.spc      1 <1>        0.000
     31 H           4.5722    0.1369   -1.3529 H.spc      1 <1>        0.000
     32 H           1.4793   -2.3427   -3.4545 H.spc      1 <1>        0.000
@<TRIPOS>BOND
     1    2    7 ar 
     2   12    8 ar 
     3   13   14 ar 
     4    2    3 ar 
     5   15   16 ar 
     6   15   18 1  
     7    3   22 1  
     8   13   19 ar 
     9    4    5 ar 
    10    5    6 ar 
    11    9   10 ar 
    12    1    2 1  
    13    5    9 1  
    14   14   15 ar 
    15   11   20 2  
    16    6    7 ar 
    17    9   19 ar 
    18    3    4 ar 
    19   10   21 1  
    20   11   12 ar 
    21   12   13 ar 
    22   16    8 ar 
    23    8   17 1  
    24   10   11 ar 
    25    1   23 1  
    26    4   24 1  
    27    6   25 1  
    28    7   26 1  
    29   14   27 1  
    30   16   28 1  
    31   17   29 1  
    32   18   30 1  
    33   21   31 1  
    34   22   32 1  
# Name:          frag5-557-53/41815
# Creation time: Sat Jun  5 12:52:53 2010


@<TRIPOS>MOLECULE
frag5-557-53/41815
   32    34     1     1     1
SMALL
USER_CHARGES


@<TRIPOS>ATOM
      1 O6         -1.7001   -2.2439   -3.0390 O.3        1 <1>        0.000
      2 C7         -0.8622   -1.4298   -2.3853 C.ar       1 <1>        0.000
      3 C8         -0.8479   -0.0454   -2.6793 C.ar       1 <1>        0.000
      4 C9          0.1131    0.7329   -2.0021 C.ar       1 <1>        0.000
      5 C10         1.0167    0.2967   -1.0246 C.ar       1 <1>        0.000
      6 C11         0.9047   -1.0508   -0.7146 C.ar       1 <1>        0.000
      7 C12        -0.0061   -1.8731   -1.3676 C.ar       1 <1>        0.000
      8 C21         4.5574    4.0069    1.5846 C.ar       1 <1>        0.000
      9 C13         1.9517    1.2113   -0.3683 C.ar       1 <1>        0.000
     10 C14         3.2629    1.1703   -0.6946 C.ar       1 <1>        0.000
     11 C15         4.2167    2.1073   -0.0405 C.ar       1 <1>        0.000
     12 C16         3.7665    3.0008    0.8492 C.ar       1 <1>        0.000
     13 C17         2.3037    2.9437    1.1042 C.ar       1 <1>        0.000
     14 C18         1.7500    3.9294    2.0529 C.ar       1 <1>        0.000
     15 C19         2.4981    4.8467    2.6680 C.ar       1 <1>        0.000
     16 C20         3.9119    4.8511    2.4165 C.ar       1 <1>        0.000
     17 O7          5.8898    4.0487    1.3691 O.3        1 <1>        0.000
     18 O8          1.9755    5.7475    3.5426 O.3        1 <1>        0.000
     19 O9          1.5477    2.0907    0.5266 O.3        1 <1>        0.000
     20 O10         5.3429    2.0186   -0.3687 O.2        1 <1>        0.000
     21 O11         3.7064    0.2782   -1.6577 O.3        1 <1>        0.000
     22 O17        -1.6659    0.4739   -3.6090 O.3        1 <1>        0.000
     23 H          -2.1911   -1.7390   -3.6914 H.spc      1 <1>        0.000
     24 H           0.1578    1.7890   -2.2681 H.spc      1 <1>        0.000
     25 H           1.5455   -1.4744    0.0587 H.spc      1 <1>        0.000
     26 H          -0.0575   -2.9210   -1.0719 H.spc      1 <1>        0.000
     27 H           0.6802    3.9068    2.2606 H.spc      1 <1>        0.000
     28 H           4.5118    5.5960    2.9394 H.spc      1 <1>        0.000
     29 H           6.2781    4.7430    1.9064 H.spc      1 <1>        0.000
     30 H           1.0260    5.6194    3.6031 H.spc      1 <1>        0.000
     31 H           4.6548    0.3758   -1.7702 H.spc      1 <1>        0.000
     32 H          -1.5172    1.4202   -3.6718 H.spc      1 <1>        0.000
@<TRIPOS>BOND
     1    2    7 ar 
     2   12    8 ar 
     3   13   14 ar 
     4    2    3 ar 
     5   15   16 ar 
     6   15   18 1  
     7    3   22 1  
     8   13   19 ar 
     9    4    5 ar 
    10    5    6 ar 
    11    9   10 ar 
    12    1    2 1  
    13    5    9 1  
    14   14   15 ar 
    15   11   20 2  
    16    6    7 ar 
    17    9   19 ar 
    18    3    4 ar 
    19   10   21 1  
    20   11   12 ar 
    21   12   13 ar 
    22   16    8 ar 
    23    8   17 1  
    24   10   11 ar 
    25    1   23 1  
    26    4   24 1  
    27    6   25 1  
    28    7   26 1  
    29   14   27 1  
    30   16   28 1  
    31   17   29 1  
    32   18   30 1  
    33   21   31 1  
    34   22   32 1  
# Name:          frag5-557-53/41815 -- energy: -1.687934
# Creation time: Sat Jun  5 12:52:53 2010


@<TRIPOS>MOLECULE
frag5-557-53/41815 -- energy: -1.687934
   32    34     1     1     1
SMALL
USER_CHARGES


@<TRIPOS>ATOM
      1 O6         -2.1103   -1.6231   -3.2197 O.3        1 <1>        0.000
      2 C7         -1.1518   -0.8943   -2.6280 C.ar       1 <1>        0.000
      3 C8         -0.1234   -1.5548   -1.9009 C.ar       1 <1>        0.000
      4 C9          0.8160   -0.7389   -1.2503 C.ar       1 <1>        0.000
      5 C10         0.8786    0.6590   -1.3024 C.ar       1 <1>        0.000
      6 C11        -0.1052    1.2583   -2.0860 C.ar       1 <1>        0.000
      7 C12        -1.0753    0.5026   -2.7311 C.ar       1 <1>        0.000
      8 C21         4.5922    3.8791    1.7055 C.ar       1 <1>        0.000
      9 C13         1.8645    1.4309   -0.5471 C.ar       1 <1>        0.000
     10 C14         3.1798    1.3246   -0.8379 C.ar       1 <1>        0.000
     11 C15         4.1854    2.1445   -0.0856 C.ar       1 <1>        0.000
     12 C16         3.7613    2.9894    0.8666 C.ar       1 <1>        0.000
     13 C17         2.2905    3.0143    1.0834 C.ar       1 <1>        0.000
     14 C18         1.7819    3.9646    2.0969 C.ar       1 <1>        0.000
     15 C19         2.5724    4.7733    2.8098 C.ar       1 <1>        0.000
     16 C20         3.9903    4.6979    2.5967 C.ar       1 <1>        0.000
     17 O7          5.9269    3.8155    1.5359 O.3        1 <1>        0.000
     18 O8          2.0696    5.6581    3.7123 O.3        1 <1>        0.000
     19 O9          1.4994    2.2638    0.4149 O.3        1 <1>        0.000
     20 O10         5.3089    1.9736   -0.4012 O.2        1 <1>        0.000
     21 O11         3.5931    0.4702   -1.8425 O.3        1 <1>        0.000
     22 O17        -0.1113   -2.8965   -1.8270 O.3        1 <1>        0.000
     23 H          -1.9739   -2.5520   -3.0195 H.spc      1 <1>        0.000
     24 H           1.5701   -1.2428   -0.6457 H.spc      1 <1>        0.000
     25 H          -0.1136    2.3428   -2.1950 H.spc      1 <1>        0.000
     26 H          -1.8119    1.0191   -3.3465 H.spc      1 <1>        0.000
     27 H           0.7068    4.0076    2.2714 H.spc      1 <1>        0.000
     28 H           4.6272    5.3478    3.1968 H.spc      1 <1>        0.000
     29 H           6.3540    4.4351    2.1320 H.spc      1 <1>        0.000
     30 H           1.1128    5.5824    3.7341 H.spc      1 <1>        0.000
     31 H           4.5489    0.5109   -1.9226 H.spc      1 <1>        0.000
     32 H           0.6421   -3.1803   -1.3041 H.spc      1 <1>        0.000
@<TRIPOS>BOND
     1    2    7 ar 
     2   12    8 ar 
     3   13   14 ar 
     4    2    3 ar 
     5   15   16 ar 
     6   15   18 1  
     7    3   22 1  
     8   13   19 ar 
     9    4    5 ar 
    10    5    6 ar 
    11    9   10 ar 
    12    1    2 1  
    13    5    9 1  
    14   14   15 ar 
    15   11   20 2  
    16    6    7 ar 
    17    9   19 ar 
    18    3    4 ar 
    19   10   21 1  
    20   11   12 ar 
    21   12   13 ar 
    22   16    8 ar 
    23    8   17 1  
    24   10   11 ar 
    25    1   23 1  
    26    4   24 1  
    27    6   25 1  
    28    7   26 1  
    29   14   27 1  
    30   16   28 1  
    31   17   29 1  
    32   18   30 1  
    33   21   31 1  
    34   22   32 1  
# Name:          frag5-557-53/41815 -- energy: -1.531704
# Creation time: Sat Jun  5 12:52:53 2010


@<TRIPOS>MOLECULE
frag5-557-53/41815 -- energy: -1.531704
   32    34     1     1     1
SMALL
USER_CHARGES


@<TRIPOS>ATOM
      1 O6         -2.0031   -2.0112   -2.9370 O.3        1 <1>        0.000
      2 C7         -1.1295   -1.1972   -2.3265 C.ar       1 <1>        0.000
      3 C8         -0.0509   -0.6477   -3.0678 C.ar       1 <1>        0.000
      4 C9          0.8791    0.1244   -2.3541 C.ar       1 <1>        0.000
      5 C10         0.8250    0.4538   -0.9933 C.ar       1 <1>        0.000
      6 C11        -0.3009   -0.0257   -0.3331 C.ar       1 <1>        0.000
      7 C12        -1.2360   -0.8235   -0.9815 C.ar       1 <1>        0.000
      8 C21         4.6106    3.8835    1.6722 C.ar       1 <1>        0.000
      9 C13         1.8185    1.2907   -0.3262 C.ar       1 <1>        0.000
     10 C14         3.1360    1.0259   -0.4765 C.ar       1 <1>        0.000
     11 C15         4.1528    1.8829    0.2009 C.ar       1 <1>        0.000
     12 C16         3.7541    2.9250    0.9420 C.ar       1 <1>        0.000
     13 C17         2.2808    3.1115    1.0191 C.ar       1 <1>        0.000
     14 C18         1.7982    4.2740    1.7949 C.ar       1 <1>        0.000
     15 C19         2.6097    5.1352    2.4062 C.ar       1 <1>        0.000
     16 C20         4.0278    4.9048    2.3331 C.ar       1 <1>        0.000
     17 O7          5.9466    3.6823    1.6303 O.3        1 <1>        0.000
     18 O8          2.1450    6.1970    3.1194 O.3        1 <1>        0.000
     19 O9          1.4713    2.3108    0.4431 O.3        1 <1>        0.000
     20 O10         5.2800    1.5739    0.0276 O.2        1 <1>        0.000
     21 O11         3.5455   -0.0422   -1.2532 O.3        1 <1>        0.000
     22 O17         0.0726   -0.9162   -4.3775 O.3        1 <1>        0.000
     23 H          -1.7401   -2.1323   -3.8523 H.spc      1 <1>        0.000
     24 H           1.7309    0.5070   -2.9163 H.spc      1 <1>        0.000
     25 H          -0.4533    0.2297    0.7155 H.spc      1 <1>        0.000
     26 H          -2.0968   -1.1765   -0.4136 H.spc      1 <1>        0.000
     27 H           0.7227    4.4345    1.8704 H.spc      1 <1>        0.000
     28 H           4.6802    5.6082    2.8505 H.spc      1 <1>        0.000
     29 H           6.3882    4.3663    2.1389 H.spc      1 <1>        0.000
     30 H           1.1863    6.2168    3.0738 H.spc      1 <1>        0.000
     31 H           4.5044   -0.0873   -1.2533 H.spc      1 <1>        0.000
     32 H           0.8491   -0.4696   -4.7227 H.spc      1 <1>        0.000
@<TRIPOS>BOND
     1    2    7 ar 
     2   12    8 ar 
     3   13   14 ar 
     4    2    3 ar 
     5   15   16 ar 
     6   15   18 1  
     7    3   22 1  
     8   13   19 ar 
     9    4    5 ar 
    10    5    6 ar 
    11    9   10 ar 
    12    1    2 1  
    13    5    9 1  
    14   14   15 ar 
    15   11   20 2  
    16    6    7 ar 
    17    9   19 ar 
    18    3    4 ar 
    19   10   21 1  
    20   11   12 ar 
    21   12   13 ar 
    22   16    8 ar 
    23    8   17 1  
    24   10   11 ar 
    25    1   23 1  
    26    4   24 1  
    27    6   25 1  
    28    7   26 1  
    29   14   27 1  
    30   16   28 1  
    31   17   29 1  
    32   18   30 1  
    33   21   31 1  
    34   22   32 1  
# Name:          frag5-557-53/41815 -- energy: -1.751991
# Creation time: Sat Jun  5 12:52:53 2010


@<TRIPOS>MOLECULE
frag5-557-53/41815 -- energy: -1.751991
   32    34     1     1     1
SMALL
USER_CHARGES


@<TRIPOS>ATOM
      1 O6         -1.9275   -1.7193   -3.3585 O.3        1 <1>        0.000
      2 C7         -0.9733   -0.9963   -2.7473 C.ar       1 <1>        0.000
      3 C8         -0.6642   -1.2683   -1.3800 C.ar       1 <1>        0.000
      4 C9          0.2911   -0.4423   -0.7620 C.ar       1 <1>        0.000
      5 C10         1.0134    0.5787   -1.3937 C.ar       1 <1>        0.000
      6 C11         0.7274    0.7635   -2.7473 C.ar       1 <1>        0.000
      7 C12        -0.2258   -0.0040   -3.3949 C.ar       1 <1>        0.000
      8 C21         4.5418    3.9665    1.6669 C.ar       1 <1>        0.000
      9 C13         1.9571    1.4072   -0.6341 C.ar       1 <1>        0.000
     10 C14         3.2415    1.5132   -1.0407 C.ar       1 <1>        0.000
     11 C15         4.2020    2.3840   -0.2802 C.ar       1 <1>        0.000
     12 C16         3.7552    3.0569    0.7989 C.ar       1 <1>        0.000
     13 C17         2.3195    2.8594    1.1414 C.ar       1 <1>        0.000
     14 C18         1.7964    3.6215    2.2918 C.ar       1 <1>        0.000
     15 C19         2.5408    4.4589    3.0271 C.ar       1 <1>        0.000
     16 C20         3.9289    4.6079    2.6887 C.ar       1 <1>        0.000
     17 O7          5.8491    4.1132    1.3755 O.3        1 <1>        0.000
     18 O8          2.0144    5.1628    4.0638 O.3        1 <1>        0.000
     19 O9          1.5825    2.0674    0.4534 O.3        1 <1>        0.000
     20 O10         5.3103    2.4171   -0.7030 O.2        1 <1>        0.000
     21 O11         3.6566    0.8271   -2.1622 O.3        1 <1>        0.000
     22 O17        -1.3040   -2.2634   -0.7417 O.3        1 <1>        0.000
     23 H          -2.3093   -2.3381   -2.7317 H.spc      1 <1>        0.000
     24 H           0.4861   -0.6103    0.2972 H.spc      1 <1>        0.000
     25 H           1.2660    1.5285   -3.3066 H.spc      1 <1>        0.000
     26 H          -0.4025    0.1717   -4.4560 H.spc      1 <1>        0.000
     27 H           0.7469    3.4964    2.5581 H.spc      1 <1>        0.000
     28 H           4.5298    5.2841    3.2968 H.spc      1 <1>        0.000
     29 H           6.2491    4.7212    2.0016 H.spc      1 <1>        0.000
     30 H           1.0830    4.9486    4.1544 H.spc      1 <1>        0.000
     31 H           4.5870    1.0046   -2.3184 H.spc      1 <1>        0.000
     32 H          -0.9865   -2.3182    0.1626 H.spc      1 <1>        0.000
@<TRIPOS>BOND
     1    2    7 ar 
     2   12    8 ar 
     3   13   14 ar 
     4    2    3 ar 
     5   15   16 ar 
     6   15   18 1  
     7    3   22 1  
     8   13   19 ar 
     9    4    5 ar 
    10    5    6 ar 
    11    9   10 ar 
    12    1    2 1  
    13    5    9 1  
    14   14   15 ar 
    15   11   20 2  
    16    6    7 ar 
    17    9   19 ar 
    18    3    4 ar 
    19   10   21 1  
    20   11   12 ar 
    21   12   13 ar 
    22   16    8 ar 
    23    8   17 1  
    24   10   11 ar 
    25    1   23 1  
    26    4   24 1  
    27    6   25 1  
    28    7   26 1  
    29   14   27 1  
    30   16   28 1  
    31   17   29 1  
    32   18   30 1  
    33   21   31 1  
    34   22   32 1  
# Name:          frag5-557-53/41815 -- energy: -1.732736
# Creation time: Sat Jun  5 12:52:53 2010


@<TRIPOS>MOLECULE
frag5-557-53/41815 -- energy: -1.732736
   32    34     1     1     1
SMALL
USER_CHARGES


@<TRIPOS>ATOM
      1 O6         -1.7001   -2.2439   -3.0390 O.3        1 <1>        0.000
      2 C7         -0.8622   -1.4298   -2.3853 C.ar       1 <1>        0.000
      3 C8         -0.8479   -0.0454   -2.6793 C.ar       1 <1>        0.000
      4 C9          0.1131    0.7329   -2.0021 C.ar       1 <1>        0.000
      5 C10         1.0167    0.2967   -1.0246 C.ar       1 <1>        0.000
      6 C11         0.9047   -1.0508   -0.7146 C.ar       1 <1>        0.000
      7 C12        -0.0061   -1.8731   -1.3676 C.ar       1 <1>        0.000
      8 C21         4.5574    4.0069    1.5846 C.ar       1 <1>        0.000
      9 C13         1.9517    1.2113   -0.3683 C.ar       1 <1>        0.000
     10 C14         3.2629    1.1703   -0.6946 C.ar       1 <1>        0.000
     11 C15         4.2167    2.1073   -0.0405 C.ar       1 <1>        0.000
     12 C16         3.7665    3.0008    0.8492 C.ar       1 <1>        0.000
     13 C17         2.3037    2.9437    1.1042 C.ar       1 <1>        0.000
     14 C18         1.7500    3.9294    2.0529 C.ar       1 <1>        0.000
     15 C19         2.4981    4.8467    2.6680 C.ar       1 <1>        0.000
     16 C20         3.9119    4.8511    2.4165 C.ar       1 <1>        0.000
     17 O7          5.8898    4.0487    1.3691 O.3        1 <1>        0.000
     18 O8          1.9755    5.7475    3.5426 O.3        1 <1>        0.000
     19 O9          1.5477    2.0907    0.5266 O.3        1 <1>        0.000
     20 O10         5.3429    2.0186   -0.3687 O.2        1 <1>        0.000
     21 O11         3.7064    0.2782   -1.6577 O.3        1 <1>        0.000
     22 O17        -1.6659    0.4739   -3.6090 O.3        1 <1>        0.000
     23 H          -2.1911   -1.7390   -3.6914 H.spc      1 <1>        0.000
     24 H           0.1578    1.7890   -2.2681 H.spc      1 <1>        0.000
     25 H           1.5455   -1.4744    0.0587 H.spc      1 <1>        0.000
     26 H          -0.0575   -2.9210   -1.0719 H.spc      1 <1>        0.000
     27 H           0.6802    3.9068    2.2606 H.spc      1 <1>        0.000
     28 H           4.5118    5.5960    2.9394 H.spc      1 <1>        0.000
     29 H           6.2781    4.7430    1.9064 H.spc      1 <1>        0.000
     30 H           1.0260    5.6194    3.6031 H.spc      1 <1>        0.000
     31 H           4.6548    0.3758   -1.7702 H.spc      1 <1>        0.000
     32 H          -1.5172    1.4202   -3.6718 H.spc      1 <1>        0.000
@<TRIPOS>BOND
     1    2    7 ar 
     2   12    8 ar 
     3   13   14 ar 
     4    2    3 ar 
     5   15   16 ar 
     6   15   18 1  
     7    3   22 1  
     8   13   19 ar 
     9    4    5 ar 
    10    5    6 ar 
    11    9   10 ar 
    12    1    2 1  
    13    5    9 1  
    14   14   15 ar 
    15   11   20 2  
    16    6    7 ar 
    17    9   19 ar 
    18    3    4 ar 
    19   10   21 1  
    20   11   12 ar 
    21   12   13 ar 
    22   16    8 ar 
    23    8   17 1  
    24   10   11 ar 
    25    1   23 1  
    26    4   24 1  
    27    6   25 1  
    28    7   26 1  
    29   14   27 1  
    30   16   28 1  
    31   17   29 1  
    32   18   30 1  
    33   21   31 1  
    34   22   32 1  
