#      Rotatable Fragment
#      Build by yxyuan
#
# Name:          frag2-087-1/92655
# Creation time: Sat Jun  5 12:51:58 2010


@<TRIPOS>MOLECULE
frag2-087-1/92655
   30    33     1     1     1
SMALL
USER_CHARGES


@<TRIPOS>ATOM
      1 C1         -0.0305   -0.5307    0.4565 C.ar       1 <1>        0.000
      2 C2          0.0310    0.5216   -0.4678 C.ar       1 <1>        0.000
      3 C3          1.2756    1.0276   -0.8529 C.ar       1 <1>        0.000
      4 C4          2.4609    0.5036   -0.3264 C.ar       1 <1>        0.000
      5 C5          2.3997   -0.5500    0.5952 C.ar       1 <1>        0.000
      6 C6          1.1544   -1.0583    0.9775 C.ar       1 <1>        0.000
      7 C7          3.5890   -1.0760    1.1208 C.ar       1 <1>        0.000
      8 C8          4.8230   -0.5569    0.7382 C.ar       1 <1>        0.000
      9 C17        -4.8246    0.5678   -0.7244 C.ar       1 <1>        0.000
     10 C9          4.8835    0.4882   -0.1753 C.ar       1 <1>        0.000
     11 C10         3.7098    1.0151   -0.7073 C.ar       1 <1>        0.000
     12 C11        -1.1540    1.0478   -0.9910 C.ar       1 <1>        0.000
     13 C12        -2.3992    0.5453   -0.6017 C.ar       1 <1>        0.000
     14 C13        -2.4607   -0.5072    0.3216 C.ar       1 <1>        0.000
     15 C14        -1.2750   -1.0370    0.8415 C.ar       1 <1>        0.000
     16 C15        -3.7097   -1.0117    0.7105 C.ar       1 <1>        0.000
     17 C16        -4.8836   -0.4751    0.1913 C.ar       1 <1>        0.000
     18 C18        -3.5890    1.0764   -1.1210 C.ar       1 <1>        0.000
     19 H           1.3234    1.8431   -1.5746 H.spc      1 <1>        0.000
     20 H           1.1069   -1.8790    1.6932 H.spc      1 <1>        0.000
     21 H           3.5468   -1.8983    1.8350 H.spc      1 <1>        0.000
     22 H           5.7413   -0.9703    1.1552 H.spc      1 <1>        0.000
     23 H          -5.7438    0.9881   -1.1324 H.spc      1 <1>        0.000
     24 H           5.8491    0.8953   -0.4752 H.spc      1 <1>        0.000
     25 H           3.7621    1.8326   -1.4264 H.spc      1 <1>        0.000
     26 H          -1.1063    1.8624   -1.7136 H.spc      1 <1>        0.000
     27 H          -1.3224   -1.8572    1.5578 H.spc      1 <1>        0.000
     28 H          -3.7615   -1.8320    1.4264 H.spc      1 <1>        0.000
     29 H          -5.8494   -0.8729    0.5030 H.spc      1 <1>        0.000
     30 H          -3.5470    1.8938   -1.8408 H.spc      1 <1>        0.000
@<TRIPOS>BOND
     1    5    6 ar 
     2    2   12 ar 
     3    3    4 ar 
     4   14   16 ar 
     5   13   14 ar 
     6   14   15 ar 
     7    9   18 ar 
     8    5    7 ar 
     9    8   10 ar 
    10    7    8 ar 
    11    4   11 ar 
    12   12   13 ar 
    13    4    5 ar 
    14   13   18 ar 
    15    1    2 ar 
    16    2    3 ar 
    17   10   11 ar 
    18   16   17 ar 
    19   17    9 ar 
    20    1   15 ar 
    21    1    6 ar 
    22    3   19 1  
    23    6   20 1  
    24    7   21 1  
    25    8   22 1  
    26    9   23 1  
    27   10   24 1  
    28   11   25 1  
    29   12   26 1  
    30   15   27 1  
    31   16   28 1  
    32   17   29 1  
    33   18   30 1  
# Name:          frag2-087-1/92655 -- energy: -1.253153
# Creation time: Sat Jun  5 12:51:58 2010


@<TRIPOS>MOLECULE
frag2-087-1/92655 -- energy: -1.253153
   30    33     1     1     1
SMALL
USER_CHARGES


@<TRIPOS>ATOM
      1 C1         -0.0305   -0.5307    0.4565 C.ar       1 <1>        0.000
      2 C2          0.0310    0.5216   -0.4678 C.ar       1 <1>        0.000
      3 C3          1.2756    1.0276   -0.8529 C.ar       1 <1>        0.000
      4 C4          2.4609    0.5036   -0.3264 C.ar       1 <1>        0.000
      5 C5          2.3997   -0.5500    0.5952 C.ar       1 <1>        0.000
      6 C6          1.1544   -1.0583    0.9775 C.ar       1 <1>        0.000
      7 C7          3.5890   -1.0760    1.1208 C.ar       1 <1>        0.000
      8 C8          4.8230   -0.5569    0.7382 C.ar       1 <1>        0.000
      9 C17        -4.8246    0.5678   -0.7244 C.ar       1 <1>        0.000
     10 C9          4.8835    0.4882   -0.1753 C.ar       1 <1>        0.000
     11 C10         3.7098    1.0151   -0.7073 C.ar       1 <1>        0.000
     12 C11        -1.1540    1.0478   -0.9910 C.ar       1 <1>        0.000
     13 C12        -2.3992    0.5453   -0.6017 C.ar       1 <1>        0.000
     14 C13        -2.4607   -0.5072    0.3216 C.ar       1 <1>        0.000
     15 C14        -1.2750   -1.0370    0.8415 C.ar       1 <1>        0.000
     16 C15        -3.7097   -1.0117    0.7105 C.ar       1 <1>        0.000
     17 C16        -4.8836   -0.4751    0.1913 C.ar       1 <1>        0.000
     18 C18        -3.5890    1.0764   -1.1210 C.ar       1 <1>        0.000
     19 H           1.3234    1.8431   -1.5746 H.spc      1 <1>        0.000
     20 H           1.1069   -1.8790    1.6932 H.spc      1 <1>        0.000
     21 H           3.5468   -1.8983    1.8350 H.spc      1 <1>        0.000
     22 H           5.7413   -0.9703    1.1552 H.spc      1 <1>        0.000
     23 H          -5.7438    0.9881   -1.1324 H.spc      1 <1>        0.000
     24 H           5.8491    0.8953   -0.4752 H.spc      1 <1>        0.000
     25 H           3.7621    1.8326   -1.4264 H.spc      1 <1>        0.000
     26 H          -1.1063    1.8624   -1.7136 H.spc      1 <1>        0.000
     27 H          -1.3224   -1.8572    1.5578 H.spc      1 <1>        0.000
     28 H          -3.7615   -1.8320    1.4264 H.spc      1 <1>        0.000
     29 H          -5.8494   -0.8729    0.5030 H.spc      1 <1>        0.000
     30 H          -3.5470    1.8938   -1.8408 H.spc      1 <1>        0.000
@<TRIPOS>BOND
     1    5    6 ar 
     2    2   12 ar 
     3    3    4 ar 
     4   14   16 ar 
     5   13   14 ar 
     6   14   15 ar 
     7    9   18 ar 
     8    5    7 ar 
     9    8   10 ar 
    10    7    8 ar 
    11    4   11 ar 
    12   12   13 ar 
    13    4    5 ar 
    14   13   18 ar 
    15    1    2 ar 
    16    2    3 ar 
    17   10   11 ar 
    18   16   17 ar 
    19   17    9 ar 
    20    1   15 ar 
    21    1    6 ar 
    22    3   19 1  
    23    6   20 1  
    24    7   21 1  
    25    8   22 1  
    26    9   23 1  
    27   10   24 1  
    28   11   25 1  
    29   12   26 1  
    30   15   27 1  
    31   16   28 1  
    32   17   29 1  
    33   18   30 1  
