#      Rotatable Fragment
#      Build by yxyuan
#
# Name:          frag4-436-125/150395
# Creation time: Sat Jun  5 12:53:35 2010


@<TRIPOS>MOLECULE
frag4-436-125/150395
   22    24     1     1     1
SMALL
USER_CHARGES


@<TRIPOS>ATOM
      1 C1         -1.4345    0.4097    0.0497 C.2        1 <1>        0.000
      2 C2         -1.2177   -0.9359    0.0196 C.2        1 <1>        0.000
      3 C3         -2.7920    0.8999   -0.0798 C.2        1 <1>        0.000
      4 C4         -0.0708    1.0547    0.2937 C.3        1 <1>        0.000
      5 N1          0.0861   -1.2725    0.1017 N.pl3      1 <1>        0.000
      6 C5         -2.4109   -1.7971    0.0597 C.3        1 <1>        0.000
      7 C6         -3.9738    0.0128   -0.1921 C.2        1 <1>        0.000
      8 C7         -3.2172    2.1894   -0.1690 C.2        1 <1>        0.000
      9 C8          0.8984   -0.1379    0.3530 C.3        1 <1>        0.000
     10 C11        -3.7786   -1.3085   -0.1934 C.2        1 <1>        0.000
     11 N2         -5.0595    0.8218   -0.3385 N.2        1 <1>        0.000
     12 C12        -4.6650    2.0356   -0.3216 C.2        1 <1>        0.000
     13 H          -0.0519    1.6488    1.2074 H.spc      1 <1>        0.000
     14 H           0.1960    1.7660   -0.4880 H.spc      1 <1>        0.000
     15 H           0.4423   -2.2225   -0.0036 H.spc      1 <1>        0.000
     16 H          -2.4525   -2.1069    1.1039 H.spc      1 <1>        0.000
     17 H          -2.2416   -2.4862   -0.7677 H.spc      1 <1>        0.000
     18 H          -2.6282    3.1059   -0.1353 H.spc      1 <1>        0.000
     19 H           1.4040   -0.2043    1.3163 H.spc      1 <1>        0.000
     20 H           1.7041   -0.0445   -0.3751 H.spc      1 <1>        0.000
     21 H          -4.6009   -2.0006   -0.3750 H.spc      1 <1>        0.000
     22 H          -5.3455    2.8822   -0.4127 H.spc      1 <1>        0.000
@<TRIPOS>BOND
     1    1    4 1  
     2    4    9 1  
     3    8   12 1  
     4    2    6 1  
     5    3    8 2  
     6    6   10 1  
     7    5    9 1  
     8   11   12 2  
     9    7   10 2  
    10    3    7 1  
    11    2    5 1  
    12    1    2 2  
    13    1    3 1  
    14    7   11 1  
    15    4   13 1  
    16    4   14 1  
    17    5   15 1  
    18    6   16 1  
    19    6   17 1  
    20    8   18 1  
    21    9   19 1  
    22    9   20 1  
    23   10   21 1  
    24   12   22 1  
# Name:          frag4-436-125/150395 -- energy: -2.042337
# Creation time: Sat Jun  5 12:53:35 2010


@<TRIPOS>MOLECULE
frag4-436-125/150395 -- energy: -2.042337
   22    24     1     1     1
SMALL
USER_CHARGES


@<TRIPOS>ATOM
      1 C1         -1.4345    0.4097    0.0497 C.2        1 <1>        0.000
      2 C2         -1.2177   -0.9359    0.0196 C.2        1 <1>        0.000
      3 C3         -2.7920    0.8999   -0.0798 C.2        1 <1>        0.000
      4 C4         -0.0708    1.0547    0.2937 C.3        1 <1>        0.000
      5 N1          0.0861   -1.2725    0.1017 N.pl3      1 <1>        0.000
      6 C5         -2.4109   -1.7971    0.0597 C.3        1 <1>        0.000
      7 C6         -3.9738    0.0128   -0.1921 C.2        1 <1>        0.000
      8 C7         -3.2172    2.1894   -0.1690 C.2        1 <1>        0.000
      9 C8          0.8984   -0.1379    0.3530 C.3        1 <1>        0.000
     10 C11        -3.7786   -1.3085   -0.1934 C.2        1 <1>        0.000
     11 N2         -5.0595    0.8218   -0.3385 N.2        1 <1>        0.000
     12 C12        -4.6650    2.0356   -0.3216 C.2        1 <1>        0.000
     13 H          -0.0519    1.6488    1.2074 H.spc      1 <1>        0.000
     14 H           0.1960    1.7660   -0.4880 H.spc      1 <1>        0.000
     15 H           0.4423   -2.2225   -0.0036 H.spc      1 <1>        0.000
     16 H          -2.4525   -2.1069    1.1039 H.spc      1 <1>        0.000
     17 H          -2.2416   -2.4862   -0.7677 H.spc      1 <1>        0.000
     18 H          -2.6282    3.1059   -0.1353 H.spc      1 <1>        0.000
     19 H           1.4040   -0.2043    1.3163 H.spc      1 <1>        0.000
     20 H           1.7041   -0.0445   -0.3751 H.spc      1 <1>        0.000
     21 H          -4.6009   -2.0006   -0.3750 H.spc      1 <1>        0.000
     22 H          -5.3455    2.8822   -0.4127 H.spc      1 <1>        0.000
@<TRIPOS>BOND
     1    1    4 1  
     2    4    9 1  
     3    8   12 1  
     4    2    6 1  
     5    3    8 2  
     6    6   10 1  
     7    5    9 1  
     8   11   12 2  
     9    7   10 2  
    10    3    7 1  
    11    2    5 1  
    12    1    2 2  
    13    1    3 1  
    14    7   11 1  
    15    4   13 1  
    16    4   14 1  
    17    5   15 1  
    18    6   16 1  
    19    6   17 1  
    20    8   18 1  
    21    9   19 1  
    22    9   20 1  
    23   10   21 1  
    24   12   22 1  
