#      Rotatable Fragment
#      Build by yxyuan
#
# Name:          frag4-353-376/150395
# Creation time: Sat Jun  5 12:53:32 2010


@<TRIPOS>MOLECULE
frag4-353-376/150395
   15    16     1     1     1
SMALL
USER_CHARGES


@<TRIPOS>ATOM
      1 C4          1.9620    0.3004   -0.0158 C.3        1 <1>        0.000
      2 C7          0.8725    1.3094   -0.0794 C.2        1 <1>        0.000
      3 C8          1.6689   -1.1606    0.0810 C.2        1 <1>        0.000
      4 C12        -0.3962    0.8750   -0.0589 C.2        1 <1>        0.000
      5 C13         0.3784   -1.5705    0.1019 C.2        1 <1>        0.000
      6 C20        -0.6611   -0.5791   -0.0027 C.2        1 <1>        0.000
      7 N2         -1.6417    1.5090   -0.0796 N.2        1 <1>        0.000
      8 C21        -1.9946   -0.6596   -0.0386 C.2        1 <1>        0.000
      9 N3         -2.5853    0.5801   -0.1446 N.2        1 <1>        0.000
     10 H           2.4709    0.5261    0.9213 H.spc      1 <1>        0.000
     11 H           2.4661    0.4012   -0.9770 H.spc      1 <1>        0.000
     12 H           1.0986    2.3739   -0.1411 H.spc      1 <1>        0.000
     13 H           2.4810   -1.8858    0.1340 H.spc      1 <1>        0.000
     14 H           0.1317   -2.6280    0.1959 H.spc      1 <1>        0.000
     15 H          -2.5496   -1.5964    0.0103 H.spc      1 <1>        0.000
@<TRIPOS>BOND
     1    8    9 1  
     2    1    2 1  
     3    1    3 1  
     4    2    4 2  
     5    3    5 2  
     6    4    6 1  
     7    4    7 1  
     8    5    6 1  
     9    6    8 2  
    10    7    9 2  
    11    1   10 1  
    12    1   11 1  
    13    2   12 1  
    14    3   13 1  
    15    5   14 1  
    16    8   15 1  
# Name:          frag4-353-376/150395 -- energy: -0.738451
# Creation time: Sat Jun  5 12:53:32 2010


@<TRIPOS>MOLECULE
frag4-353-376/150395 -- energy: -0.738451
   15    16     1     1     1
SMALL
USER_CHARGES


@<TRIPOS>ATOM
      1 C4          1.9620    0.3004   -0.0158 C.3        1 <1>        0.000
      2 C7          0.8725    1.3094   -0.0794 C.2        1 <1>        0.000
      3 C8          1.6689   -1.1606    0.0810 C.2        1 <1>        0.000
      4 C12        -0.3962    0.8750   -0.0589 C.2        1 <1>        0.000
      5 C13         0.3784   -1.5705    0.1019 C.2        1 <1>        0.000
      6 C20        -0.6611   -0.5791   -0.0027 C.2        1 <1>        0.000
      7 N2         -1.6417    1.5090   -0.0796 N.2        1 <1>        0.000
      8 C21        -1.9946   -0.6596   -0.0386 C.2        1 <1>        0.000
      9 N3         -2.5853    0.5801   -0.1446 N.2        1 <1>        0.000
     10 H           2.4709    0.5261    0.9213 H.spc      1 <1>        0.000
     11 H           2.4661    0.4012   -0.9770 H.spc      1 <1>        0.000
     12 H           1.0986    2.3739   -0.1411 H.spc      1 <1>        0.000
     13 H           2.4810   -1.8858    0.1340 H.spc      1 <1>        0.000
     14 H           0.1317   -2.6280    0.1959 H.spc      1 <1>        0.000
     15 H          -2.5496   -1.5964    0.0103 H.spc      1 <1>        0.000
@<TRIPOS>BOND
     1    8    9 1  
     2    1    2 1  
     3    1    3 1  
     4    2    4 2  
     5    3    5 2  
     6    4    6 1  
     7    4    7 1  
     8    5    6 1  
     9    6    8 2  
    10    7    9 2  
    11    1   10 1  
    12    1   11 1  
    13    2   12 1  
    14    3   13 1  
    15    5   14 1  
    16    8   15 1  
