#      Rotatable Fragment
#      Build by yxyuan
#
# Name:          frag5-627-31/41815
# Creation time: Sat Jun  5 12:53:00 2010


@<TRIPOS>MOLECULE
frag5-627-31/41815
   12    12     1     1     1
SMALL
USER_CHARGES


@<TRIPOS>ATOM
      1 N2          3.3740    0.7363    0.0805 N.am       1 <1>        0.000
      2 C11         4.5751    1.1591   -0.3519 C.2        1 <1>        0.000
      3 C12         5.2413    2.0427    0.6628 C.3        1 <1>        0.000
      4 C13         4.2090    2.0848    1.8174 C.3        1 <1>        0.000
      5 C14         3.0948    1.2193    1.3041 C.2        1 <1>        0.000
      6 O1          2.0747    0.9990    1.9392 O.2        1 <1>        0.000
      7 O2          5.0833    0.8766   -1.4263 O.2        1 <1>        0.000
      8 H           2.7535    0.1266   -0.4520 H.spc      1 <1>        0.000
      9 H           5.4786    3.0319    0.2714 H.spc      1 <1>        0.000
     10 H           6.2139    1.6653    0.9786 H.spc      1 <1>        0.000
     11 H           3.8826    3.0970    2.0562 H.spc      1 <1>        0.000
     12 H           4.6181    1.7306    2.7636 H.spc      1 <1>        0.000
@<TRIPOS>BOND
     1    1    2 am 
     2    1    5 am 
     3    2    3 1  
     4    2    7 2  
     5    3    4 1  
     6    4    5 1  
     7    5    6 2  
     8    1    8 1  
     9    3    9 1  
    10    3   10 1  
    11    4   11 1  
    12    4   12 1  
# Name:          frag5-627-31/41815 -- energy: -0.775753
# Creation time: Sat Jun  5 12:53:00 2010


@<TRIPOS>MOLECULE
frag5-627-31/41815 -- energy: -0.775753
   12    12     1     1     1
SMALL
USER_CHARGES


@<TRIPOS>ATOM
      1 N2          3.3740    0.7363    0.0805 N.am       1 <1>        0.000
      2 C11         4.5751    1.1591   -0.3519 C.2        1 <1>        0.000
      3 C12         5.2413    2.0427    0.6628 C.3        1 <1>        0.000
      4 C13         4.2090    2.0848    1.8174 C.3        1 <1>        0.000
      5 C14         3.0948    1.2193    1.3041 C.2        1 <1>        0.000
      6 O1          2.0747    0.9990    1.9392 O.2        1 <1>        0.000
      7 O2          5.0833    0.8766   -1.4263 O.2        1 <1>        0.000
      8 H           2.7535    0.1266   -0.4520 H.spc      1 <1>        0.000
      9 H           5.4786    3.0319    0.2714 H.spc      1 <1>        0.000
     10 H           6.2139    1.6653    0.9786 H.spc      1 <1>        0.000
     11 H           3.8826    3.0970    2.0562 H.spc      1 <1>        0.000
     12 H           4.6181    1.7306    2.7636 H.spc      1 <1>        0.000
@<TRIPOS>BOND
     1    1    2 am 
     2    1    5 am 
     3    2    3 1  
     4    2    7 2  
     5    3    4 1  
     6    4    5 1  
     7    5    6 2  
     8    1    8 1  
     9    3    9 1  
    10    3   10 1  
    11    4   11 1  
    12    4   12 1  
