#      Rotatable Fragment
#      Build by yxyuan
#
# Name:          frag3-215-4/31924
# Creation time: Sat Jun  5 12:52:21 2010


@<TRIPOS>MOLECULE
frag3-215-4/31924
    7     6     1     1     1
SMALL
USER_CHARGES


@<TRIPOS>ATOM
      1 C2          6.9018    0.6368    2.9541 C.2        1 <1>        0.000
      2 O1          6.2912    0.2010    3.9305 O.2        1 <1>        0.000
      3 O2          6.5436    0.4266    1.7084 O.3        1 <1>        0.000
      4 N1          5.4489   -0.4885    1.5793 N.3        1 <1>        0.000
      5 H           7.7953    1.2343    3.1351 H.spc      1 <1>        0.000
      6 H           5.2214   -0.6075    0.5921 H.spc      1 <1>        0.000
      7 H           5.7111   -1.3891    1.9800 H.spc      1 <1>        0.000
@<TRIPOS>BOND
     1    1    3 1  
     2    1    2 2  
     3    3    4 1  
     4    1    5 1  
     5    4    6 1  
     6    4    7 1  
# Name:          frag3-215-4/31924
# Creation time: Sat Jun  5 12:52:21 2010


@<TRIPOS>MOLECULE
frag3-215-4/31924
    7     6     1     1     1
SMALL
USER_CHARGES


@<TRIPOS>ATOM
      1 C2          6.2692    0.5926    3.0613 C.2        1 <1>        0.000
      2 O1          6.8759    0.4229    4.0959 O.2        1 <1>        0.000
      3 O2          6.5719    0.0561    1.9032 O.3        1 <1>        0.000
      4 N1          5.4687   -0.2956    1.1119 N.3        1 <1>        0.000
      5 H           5.3978    1.2466    3.0956 H.spc      1 <1>        0.000
      6 H           5.7961   -0.7026    0.2358 H.spc      1 <1>        0.000
      7 H           4.8966   -0.9764    1.6116 H.spc      1 <1>        0.000
@<TRIPOS>BOND
     1    1    3 1  
     2    1    2 2  
     3    3    4 1  
     4    1    5 1  
     5    4    6 1  
     6    4    7 1  
# Name:          frag3-215-4/31924 -- energy: -0.015357
# Creation time: Sat Jun  5 12:52:21 2010


@<TRIPOS>MOLECULE
frag3-215-4/31924 -- energy: -0.015357
    7     6     1     1     1
SMALL
USER_CHARGES


@<TRIPOS>ATOM
      1 C2          6.9018    0.6368    2.9541 C.2        1 <1>        0.000
      2 O1          6.2912    0.2010    3.9305 O.2        1 <1>        0.000
      3 O2          6.5436    0.4266    1.7084 O.3        1 <1>        0.000
      4 N1          5.4489   -0.4885    1.5793 N.3        1 <1>        0.000
      5 H           7.7953    1.2343    3.1351 H.spc      1 <1>        0.000
      6 H           5.2214   -0.6075    0.5921 H.spc      1 <1>        0.000
      7 H           5.7111   -1.3891    1.9800 H.spc      1 <1>        0.000
@<TRIPOS>BOND
     1    1    3 1  
     2    1    2 2  
     3    3    4 1  
     4    1    5 1  
     5    4    6 1  
     6    4    7 1  
# Name:          frag3-215-4/31924 -- energy: -0.148099
# Creation time: Sat Jun  5 12:52:21 2010


@<TRIPOS>MOLECULE
frag3-215-4/31924 -- energy: -0.148099
    7     6     1     1     1
SMALL
USER_CHARGES


@<TRIPOS>ATOM
      1 C2          6.2692    0.5926    3.0613 C.2        1 <1>        0.000
      2 O1          6.8759    0.4229    4.0959 O.2        1 <1>        0.000
      3 O2          6.5719    0.0561    1.9032 O.3        1 <1>        0.000
      4 N1          5.4687   -0.2956    1.1119 N.3        1 <1>        0.000
      5 H           5.3978    1.2466    3.0956 H.spc      1 <1>        0.000
      6 H           5.7961   -0.7026    0.2358 H.spc      1 <1>        0.000
      7 H           4.8966   -0.9764    1.6116 H.spc      1 <1>        0.000
@<TRIPOS>BOND
     1    1    3 1  
     2    1    2 2  
     3    3    4 1  
     4    1    5 1  
     5    4    6 1  
     6    4    7 1  
