#      Rotatable Fragment
#      Build by yxyuan
#
# Name:          frag3-162-18/96164
# Creation time: Sat Jun  5 12:53:06 2010


@<TRIPOS>MOLECULE
frag3-162-18/96164
   10     9     1     1     1
SMALL
USER_CHARGES


@<TRIPOS>ATOM
      1 N2          1.8283   -0.0466   -0.3112 N.am       1 <1>        0.000
      2 C19         0.6289    0.4124    0.1617 C.2        1 <1>        0.000
      3 C20         0.5706    1.5917    1.1033 C.2        1 <1>        0.000
      4 O6         -0.4680   -0.0513   -0.0941 O.2        1 <1>        0.000
      5 N3         -0.3094    2.6177    0.8915 N.am       1 <1>        0.000
      6 O7          1.3585    1.5046    2.0300 O.2        1 <1>        0.000
      7 H           1.8552   -0.8497   -0.9395 H.spc      1 <1>        0.000
      8 H           2.6954    0.4144   -0.0354 H.spc      1 <1>        0.000
      9 H          -0.3443    3.4022    1.5424 H.spc      1 <1>        0.000
     10 H          -0.9305    2.5981    0.0827 H.spc      1 <1>        0.000
@<TRIPOS>BOND
     1    1    2 am 
     2    2    3 1  
     3    2    4 2  
     4    3    5 am 
     5    3    6 2  
     6    1    7 1  
     7    1    8 1  
     8    5    9 1  
     9    5   10 1  
# Name:          frag3-162-18/96164
# Creation time: Sat Jun  5 12:53:06 2010


@<TRIPOS>MOLECULE
frag3-162-18/96164
   10     9     1     1     1
SMALL
USER_CHARGES


@<TRIPOS>ATOM
      1 N2          1.5140   -0.6034    0.3710 N.am       1 <1>        0.000
      2 C19         0.6361    0.4211    0.1501 C.2        1 <1>        0.000
      3 C20         0.5743    1.6020    1.0919 C.2        1 <1>        0.000
      4 O6         -0.1650    0.4970   -0.7653 O.2        1 <1>        0.000
      5 N3         -0.6238    2.0564    1.5693 N.am       1 <1>        0.000
      6 O7          1.6733    2.0554    1.3641 O.2        1 <1>        0.000
      7 H           1.5369   -1.4013   -0.2640 H.spc      1 <1>        0.000
      8 H           2.1461   -0.5699    1.1709 H.spc      1 <1>        0.000
      9 H          -0.6492    2.8453    2.2153 H.spc      1 <1>        0.000
     10 H          -1.4921    1.6064    1.2794 H.spc      1 <1>        0.000
@<TRIPOS>BOND
     1    1    2 am 
     2    2    3 1  
     3    2    4 2  
     4    3    5 am 
     5    3    6 2  
     6    1    7 1  
     7    1    8 1  
     8    5    9 1  
     9    5   10 1  
# Name:          frag3-162-18/96164
# Creation time: Sat Jun  5 12:53:06 2010


@<TRIPOS>MOLECULE
frag3-162-18/96164
   10     9     1     1     1
SMALL
USER_CHARGES


@<TRIPOS>ATOM
      1 N2          1.1023    2.7624    0.7213 N.am       1 <1>        0.000
      2 C19         0.5016    1.5973    1.1216 C.2        1 <1>        0.000
      3 C20         0.6514    0.3631    0.1918 C.2        1 <1>        0.000
      4 O6         -0.1249    1.3999    2.1459 O.2        1 <1>        0.000
      5 N3          0.8919    0.6366   -1.1255 N.am       1 <1>        0.000
      6 O7          0.5866   -0.7310    0.7261 O.2        1 <1>        0.000
      7 H           1.0498    3.5924    1.3119 H.spc      1 <1>        0.000
      8 H           1.6019    2.7995   -0.1672 H.spc      1 <1>        0.000
      9 H           1.0424   -0.1263   -1.7856 H.spc      1 <1>        0.000
     10 H           0.9209    1.6037   -1.4486 H.spc      1 <1>        0.000
@<TRIPOS>BOND
     1    1    2 am 
     2    2    3 1  
     3    2    4 2  
     4    3    5 am 
     5    3    6 2  
     6    1    7 1  
     7    1    8 1  
     8    5    9 1  
     9    5   10 1  
# Name:          frag3-162-18/96164
# Creation time: Sat Jun  5 12:53:06 2010


@<TRIPOS>MOLECULE
frag3-162-18/96164
   10     9     1     1     1
SMALL
USER_CHARGES


@<TRIPOS>ATOM
      1 N2          1.5227    0.4104   -0.8727 N.am       1 <1>        0.000
      2 C19         0.6451    0.4007    0.1758 C.2        1 <1>        0.000
      3 C20         0.5466    1.5880    1.1053 C.2        1 <1>        0.000
      4 O6         -0.1079   -0.5092    0.4754 O.2        1 <1>        0.000
      5 N3          0.3868    2.8537    0.6125 N.am       1 <1>        0.000
      6 O7          0.6154    1.2848    2.2851 O.2        1 <1>        0.000
      7 H           1.5884   -0.3987   -1.4902 H.spc      1 <1>        0.000
      8 H           2.1116    1.2268   -1.0373 H.spc      1 <1>        0.000
      9 H           0.3142    3.6447    1.2523 H.spc      1 <1>        0.000
     10 H           0.3402    3.0067   -0.3949 H.spc      1 <1>        0.000
@<TRIPOS>BOND
     1    1    2 am 
     2    2    3 1  
     3    2    4 2  
     4    3    5 am 
     5    3    6 2  
     6    1    7 1  
     7    1    8 1  
     8    5    9 1  
     9    5   10 1  
# Name:          frag3-162-18/96164 -- energy: -0.568906
# Creation time: Sat Jun  5 12:53:06 2010


@<TRIPOS>MOLECULE
frag3-162-18/96164 -- energy: -0.568906
   10     9     1     1     1
SMALL
USER_CHARGES


@<TRIPOS>ATOM
      1 N2          1.8283   -0.0466   -0.3112 N.am       1 <1>        0.000
      2 C19         0.6289    0.4124    0.1617 C.2        1 <1>        0.000
      3 C20         0.5706    1.5917    1.1033 C.2        1 <1>        0.000
      4 O6         -0.4680   -0.0513   -0.0941 O.2        1 <1>        0.000
      5 N3         -0.3094    2.6177    0.8915 N.am       1 <1>        0.000
      6 O7          1.3585    1.5046    2.0300 O.2        1 <1>        0.000
      7 H           1.8552   -0.8497   -0.9395 H.spc      1 <1>        0.000
      8 H           2.6954    0.4144   -0.0354 H.spc      1 <1>        0.000
      9 H          -0.3443    3.4022    1.5424 H.spc      1 <1>        0.000
     10 H          -0.9305    2.5981    0.0827 H.spc      1 <1>        0.000
@<TRIPOS>BOND
     1    1    2 am 
     2    2    3 1  
     3    2    4 2  
     4    3    5 am 
     5    3    6 2  
     6    1    7 1  
     7    1    8 1  
     8    5    9 1  
     9    5   10 1  
# Name:          frag3-162-18/96164 -- energy: -0.565735
# Creation time: Sat Jun  5 12:53:06 2010


@<TRIPOS>MOLECULE
frag3-162-18/96164 -- energy: -0.565735
   10     9     1     1     1
SMALL
USER_CHARGES


@<TRIPOS>ATOM
      1 N2          1.5140   -0.6034    0.3710 N.am       1 <1>        0.000
      2 C19         0.6361    0.4211    0.1501 C.2        1 <1>        0.000
      3 C20         0.5743    1.6020    1.0919 C.2        1 <1>        0.000
      4 O6         -0.1650    0.4970   -0.7653 O.2        1 <1>        0.000
      5 N3         -0.6238    2.0564    1.5693 N.am       1 <1>        0.000
      6 O7          1.6733    2.0554    1.3641 O.2        1 <1>        0.000
      7 H           1.5369   -1.4013   -0.2640 H.spc      1 <1>        0.000
      8 H           2.1461   -0.5699    1.1709 H.spc      1 <1>        0.000
      9 H          -0.6492    2.8453    2.2153 H.spc      1 <1>        0.000
     10 H          -1.4921    1.6064    1.2794 H.spc      1 <1>        0.000
@<TRIPOS>BOND
     1    1    2 am 
     2    2    3 1  
     3    2    4 2  
     4    3    5 am 
     5    3    6 2  
     6    1    7 1  
     7    1    8 1  
     8    5    9 1  
     9    5   10 1  
# Name:          frag3-162-18/96164 -- energy: 0.065771
# Creation time: Sat Jun  5 12:53:06 2010


@<TRIPOS>MOLECULE
frag3-162-18/96164 -- energy: 0.065771
   10     9     1     1     1
SMALL
USER_CHARGES


@<TRIPOS>ATOM
      1 N2          1.1023    2.7624    0.7213 N.am       1 <1>        0.000
      2 C19         0.5016    1.5973    1.1216 C.2        1 <1>        0.000
      3 C20         0.6514    0.3631    0.1918 C.2        1 <1>        0.000
      4 O6         -0.1249    1.3999    2.1459 O.2        1 <1>        0.000
      5 N3          0.8919    0.6366   -1.1255 N.am       1 <1>        0.000
      6 O7          0.5866   -0.7310    0.7261 O.2        1 <1>        0.000
      7 H           1.0498    3.5924    1.3119 H.spc      1 <1>        0.000
      8 H           1.6019    2.7995   -0.1672 H.spc      1 <1>        0.000
      9 H           1.0424   -0.1263   -1.7856 H.spc      1 <1>        0.000
     10 H           0.9209    1.6037   -1.4486 H.spc      1 <1>        0.000
@<TRIPOS>BOND
     1    1    2 am 
     2    2    3 1  
     3    2    4 2  
     4    3    5 am 
     5    3    6 2  
     6    1    7 1  
     7    1    8 1  
     8    5    9 1  
     9    5   10 1  
# Name:          frag3-162-18/96164 -- energy: -0.532256
# Creation time: Sat Jun  5 12:53:06 2010


@<TRIPOS>MOLECULE
frag3-162-18/96164 -- energy: -0.532256
   10     9     1     1     1
SMALL
USER_CHARGES


@<TRIPOS>ATOM
      1 N2          1.5227    0.4104   -0.8727 N.am       1 <1>        0.000
      2 C19         0.6451    0.4007    0.1758 C.2        1 <1>        0.000
      3 C20         0.5466    1.5880    1.1053 C.2        1 <1>        0.000
      4 O6         -0.1079   -0.5092    0.4754 O.2        1 <1>        0.000
      5 N3          0.3868    2.8537    0.6125 N.am       1 <1>        0.000
      6 O7          0.6154    1.2848    2.2851 O.2        1 <1>        0.000
      7 H           1.5884   -0.3987   -1.4902 H.spc      1 <1>        0.000
      8 H           2.1116    1.2268   -1.0373 H.spc      1 <1>        0.000
      9 H           0.3142    3.6447    1.2523 H.spc      1 <1>        0.000
     10 H           0.3402    3.0067   -0.3949 H.spc      1 <1>        0.000
@<TRIPOS>BOND
     1    1    2 am 
     2    2    3 1  
     3    2    4 2  
     4    3    5 am 
     5    3    6 2  
     6    1    7 1  
     7    1    8 1  
     8    5    9 1  
     9    5   10 1  
