#      Rotatable Fragment
#      Build by yxyuan
#
# Name:          frag4-315-324/48856
# Creation time: Sat Jun  5 12:53:10 2010


@<TRIPOS>MOLECULE
frag4-315-324/48856
   15    15     1     1     1
SMALL
USER_CHARGES


@<TRIPOS>ATOM
      1 C7          1.6511    0.8615   -0.0372 C.3        1 <1>        0.000
      2 C8          2.4812    0.1485    0.9951 C.3        1 <1>        0.000
      3 C9          3.9200    0.6204    0.8393 C.3        1 <1>        0.000
      4 C10         3.9501    1.3070   -0.5004 C.3        1 <1>        0.000
      5 C11         2.5590    1.8571   -0.7327 C.3        1 <1>        0.000
      6 H           0.8099    1.3717    0.4321 H.spc      1 <1>        0.000
      7 H           1.2382    0.1522   -0.7545 H.spc      1 <1>        0.000
      8 H           2.4186   -0.9304    0.8528 H.spc      1 <1>        0.000
      9 H           2.1150    0.3728    1.9969 H.spc      1 <1>        0.000
     10 H           4.6284   -0.2065    0.8900 H.spc      1 <1>        0.000
     11 H           4.2201    1.2882    1.6469 H.spc      1 <1>        0.000
     12 H           4.2311    0.6100   -1.2899 H.spc      1 <1>        0.000
     13 H           4.6925    2.1049   -0.5134 H.spc      1 <1>        0.000
     14 H           2.4428    2.8672   -0.3399 H.spc      1 <1>        0.000
     15 H           2.3262    1.9587   -1.7927 H.spc      1 <1>        0.000
@<TRIPOS>BOND
     1    1    2 1  
     2    1    5 1  
     3    2    3 1  
     4    3    4 1  
     5    4    5 1  
     6    1    6 1  
     7    1    7 1  
     8    2    8 1  
     9    2    9 1  
    10    3   10 1  
    11    3   11 1  
    12    4   12 1  
    13    4   13 1  
    14    5   14 1  
    15    5   15 1  
# Name:          frag4-315-324/48856 -- energy: -0.999374
# Creation time: Sat Jun  5 12:53:10 2010


@<TRIPOS>MOLECULE
frag4-315-324/48856 -- energy: -0.999374
   15    15     1     1     1
SMALL
USER_CHARGES


@<TRIPOS>ATOM
      1 C7          1.6511    0.8615   -0.0372 C.3        1 <1>        0.000
      2 C8          2.4812    0.1485    0.9951 C.3        1 <1>        0.000
      3 C9          3.9200    0.6204    0.8393 C.3        1 <1>        0.000
      4 C10         3.9501    1.3070   -0.5004 C.3        1 <1>        0.000
      5 C11         2.5590    1.8571   -0.7327 C.3        1 <1>        0.000
      6 H           0.8099    1.3717    0.4321 H.spc      1 <1>        0.000
      7 H           1.2382    0.1522   -0.7545 H.spc      1 <1>        0.000
      8 H           2.4186   -0.9304    0.8528 H.spc      1 <1>        0.000
      9 H           2.1150    0.3728    1.9969 H.spc      1 <1>        0.000
     10 H           4.6284   -0.2065    0.8900 H.spc      1 <1>        0.000
     11 H           4.2201    1.2882    1.6469 H.spc      1 <1>        0.000
     12 H           4.2311    0.6100   -1.2899 H.spc      1 <1>        0.000
     13 H           4.6925    2.1049   -0.5134 H.spc      1 <1>        0.000
     14 H           2.4428    2.8672   -0.3399 H.spc      1 <1>        0.000
     15 H           2.3262    1.9587   -1.7927 H.spc      1 <1>        0.000
@<TRIPOS>BOND
     1    1    2 1  
     2    1    5 1  
     3    2    3 1  
     4    3    4 1  
     5    4    5 1  
     6    1    6 1  
     7    1    7 1  
     8    2    8 1  
     9    2    9 1  
    10    3   10 1  
    11    3   11 1  
    12    4   12 1  
    13    4   13 1  
    14    5   14 1  
    15    5   15 1  
