#      Rotatable Fragment
#      Build by yxyuan
#
# Name:          frag2-083-1/92655
# Creation time: Sat Jun  5 12:51:58 2010


@<TRIPOS>MOLECULE
frag2-083-1/92655
   23    25     1     1     1
SMALL
USER_CHARGES


@<TRIPOS>ATOM
      1 C5          2.6545   -1.0584   -0.0829 C.ar       1 <1>        0.000
      2 C6          1.3755   -0.4925   -0.0376 C.ar       1 <1>        0.000
      3 C7          1.2556    0.8946    0.0850 C.ar       1 <1>        0.000
      4 N2          2.3708    1.6605    0.1563 N.ar       1 <1>        0.000
      5 C8          3.6111    1.1328    0.1083 C.ar       1 <1>        0.000
      6 C9          3.7742   -0.2385   -0.0090 C.ar       1 <1>        0.000
      7 C10        -0.0056    1.4813    0.1326 C.ar       1 <1>        0.000
      8 C11        -1.1638    0.7018    0.0592 C.ar       1 <1>        0.000
      9 C12        -1.0504   -0.6910   -0.0646 C.ar       1 <1>        0.000
     10 C13         0.2195   -1.2780   -0.1118 C.ar       1 <1>        0.000
     11 C14        -2.2126   -1.4737   -0.1392 C.ar       1 <1>        0.000
     12 C15        -3.4699   -0.8801   -0.0898 C.ar       1 <1>        0.000
     13 C16        -3.5830    0.4991    0.0331 C.ar       1 <1>        0.000
     14 C17        -2.4371    1.2876    0.1069 C.ar       1 <1>        0.000
     15 H           2.7721   -2.1380   -0.1758 H.spc      1 <1>        0.000
     16 H           4.4837    1.7838    0.1617 H.spc      1 <1>        0.000
     17 H           4.7741   -0.6711   -0.0431 H.spc      1 <1>        0.000
     18 H          -0.0915    2.5637    0.2284 H.spc      1 <1>        0.000
     19 H           0.3092   -2.3601   -0.2075 H.spc      1 <1>        0.000
     20 H          -2.1296   -2.5562   -0.2367 H.spc      1 <1>        0.000
     21 H          -4.3665   -1.4973   -0.1475 H.spc      1 <1>        0.000
     22 H          -4.5681    0.9640    0.0718 H.spc      1 <1>        0.000
     23 H          -2.5309    2.3693    0.2026 H.spc      1 <1>        0.000
@<TRIPOS>BOND
     1    2    3 ar 
     2    9   10 ar 
     3    4    5 ar 
     4    8   14 ar 
     5    2   10 ar 
     6    1    2 ar 
     7    3    4 ar 
     8    9   11 ar 
     9    3    7 ar 
    10   12   13 ar 
    11    1    6 ar 
    12   11   12 ar 
    13    5    6 ar 
    14    7    8 ar 
    15   13   14 ar 
    16    8    9 ar 
    17    1   15 1  
    18    5   16 1  
    19    6   17 1  
    20    7   18 1  
    21   10   19 1  
    22   11   20 1  
    23   12   21 1  
    24   13   22 1  
    25   14   23 1  
# Name:          frag2-083-1/92655 -- energy: -0.550322
# Creation time: Sat Jun  5 12:51:58 2010


@<TRIPOS>MOLECULE
frag2-083-1/92655 -- energy: -0.550322
   23    25     1     1     1
SMALL
USER_CHARGES


@<TRIPOS>ATOM
      1 C5          2.6545   -1.0584   -0.0829 C.ar       1 <1>        0.000
      2 C6          1.3755   -0.4925   -0.0376 C.ar       1 <1>        0.000
      3 C7          1.2556    0.8946    0.0850 C.ar       1 <1>        0.000
      4 N2          2.3708    1.6605    0.1563 N.ar       1 <1>        0.000
      5 C8          3.6111    1.1328    0.1083 C.ar       1 <1>        0.000
      6 C9          3.7742   -0.2385   -0.0090 C.ar       1 <1>        0.000
      7 C10        -0.0056    1.4813    0.1326 C.ar       1 <1>        0.000
      8 C11        -1.1638    0.7018    0.0592 C.ar       1 <1>        0.000
      9 C12        -1.0504   -0.6910   -0.0646 C.ar       1 <1>        0.000
     10 C13         0.2195   -1.2780   -0.1118 C.ar       1 <1>        0.000
     11 C14        -2.2126   -1.4737   -0.1392 C.ar       1 <1>        0.000
     12 C15        -3.4699   -0.8801   -0.0898 C.ar       1 <1>        0.000
     13 C16        -3.5830    0.4991    0.0331 C.ar       1 <1>        0.000
     14 C17        -2.4371    1.2876    0.1069 C.ar       1 <1>        0.000
     15 H           2.7721   -2.1380   -0.1758 H.spc      1 <1>        0.000
     16 H           4.4837    1.7838    0.1617 H.spc      1 <1>        0.000
     17 H           4.7741   -0.6711   -0.0431 H.spc      1 <1>        0.000
     18 H          -0.0915    2.5637    0.2284 H.spc      1 <1>        0.000
     19 H           0.3092   -2.3601   -0.2075 H.spc      1 <1>        0.000
     20 H          -2.1296   -2.5562   -0.2367 H.spc      1 <1>        0.000
     21 H          -4.3665   -1.4973   -0.1475 H.spc      1 <1>        0.000
     22 H          -4.5681    0.9640    0.0718 H.spc      1 <1>        0.000
     23 H          -2.5309    2.3693    0.2026 H.spc      1 <1>        0.000
@<TRIPOS>BOND
     1    2    3 ar 
     2    9   10 ar 
     3    4    5 ar 
     4    8   14 ar 
     5    2   10 ar 
     6    1    2 ar 
     7    3    4 ar 
     8    9   11 ar 
     9    3    7 ar 
    10   12   13 ar 
    11    1    6 ar 
    12   11   12 ar 
    13    5    6 ar 
    14    7    8 ar 
    15   13   14 ar 
    16    8    9 ar 
    17    1   15 1  
    18    5   16 1  
    19    6   17 1  
    20    7   18 1  
    21   10   19 1  
    22   11   20 1  
    23   12   21 1  
    24   13   22 1  
    25   14   23 1  
