#      Rotatable Fragment
#      Build by yxyuan
#
# Name:          frag3-155-13/31924
# Creation time: Sat Jun  5 12:52:05 2010


@<TRIPOS>MOLECULE
frag3-155-13/31924
    9     8     1     1     1
SMALL
USER_CHARGES


@<TRIPOS>ATOM
      1 S1         -3.0370   -1.2384    1.6223 S.o2       1 <1>        0.000
      2 O1         -2.6965   -1.6463    2.9773 O.2        1 <1>        0.000
      3 O2         -3.2452   -2.2749    0.6191 O.2        1 <1>        0.000
      4 N1         -1.8550   -0.1636    1.0651 N.am       1 <1>        0.000
      5 N4         -4.4061   -0.2460    1.6707 N.am       1 <1>        0.000
      6 H          -1.0712    0.0893    1.6669 H.spc      1 <1>        0.000
      7 H          -1.9262    0.2315    0.1274 H.spc      1 <1>        0.000
      8 H          -4.8477   -0.0294    2.5643 H.spc      1 <1>        0.000
      9 H          -4.7901    0.1358    0.8063 H.spc      1 <1>        0.000
@<TRIPOS>BOND
     1    1    2 2  
     2    1    3 2  
     3    1    4 1  
     4    1    5 1  
     5    4    6 1  
     6    4    7 1  
     7    5    8 1  
     8    5    9 1  
# Name:          frag3-155-13/31924 -- energy: -0.317850
# Creation time: Sat Jun  5 12:52:05 2010


@<TRIPOS>MOLECULE
frag3-155-13/31924 -- energy: -0.317850
    9     8     1     1     1
SMALL
USER_CHARGES


@<TRIPOS>ATOM
      1 S1         -3.0370   -1.2384    1.6223 S.o2       1 <1>        0.000
      2 O1         -2.6965   -1.6463    2.9773 O.2        1 <1>        0.000
      3 O2         -3.2452   -2.2749    0.6191 O.2        1 <1>        0.000
      4 N1         -1.8550   -0.1636    1.0651 N.am       1 <1>        0.000
      5 N4         -4.4061   -0.2460    1.6707 N.am       1 <1>        0.000
      6 H          -1.0712    0.0893    1.6669 H.spc      1 <1>        0.000
      7 H          -1.9262    0.2315    0.1274 H.spc      1 <1>        0.000
      8 H          -4.8477   -0.0294    2.5643 H.spc      1 <1>        0.000
      9 H          -4.7901    0.1358    0.8063 H.spc      1 <1>        0.000
@<TRIPOS>BOND
     1    1    2 2  
     2    1    3 2  
     3    1    4 1  
     4    1    5 1  
     5    4    6 1  
     6    4    7 1  
     7    5    8 1  
     8    5    9 1  
