#      Rotatable Fragment
#      Build by yxyuan
#
# Name:          frag4-445-119/150395
# Creation time: Sat Jun  5 12:53:36 2010


@<TRIPOS>MOLECULE
frag4-445-119/150395
   40    40     1     1     1
SMALL
USER_CHARGES


@<TRIPOS>ATOM
      1 C1          1.2846   -0.0343    0.6222 C.3        1 <1>        0.000
      2 C2          0.2946    0.7452    1.4972 C.3        1 <1>        0.000
      3 C3          1.0018   -0.0823   -0.8738 C.3        1 <1>        0.000
      4 C4          0.0887    2.2398    1.2120 C.3        1 <1>        0.000
      5 C6          0.0951   -1.1494   -1.4422 C.3        1 <1>        0.000
      6 C20        -3.5008    1.5009    1.1372 C.3        1 <1>        0.000
      7 C9         -1.1949    2.8978    1.6932 C.3        1 <1>        0.000
      8 C11        -0.4766   -0.8622   -2.8109 C.3        1 <1>        0.000
      9 C13        -2.3761    2.4727    0.8677 C.3        1 <1>        0.000
     10 C16        -1.6716   -1.6621   -3.1705 C.3        1 <1>        0.000
     11 O8         -2.9473   -1.6065   -3.0110 O.3        1 <1>        0.000
     12 C24        -4.0391    0.8516   -0.1388 C.3        1 <1>        0.000
     13 C28        -3.5665   -0.5012   -2.3523 C.3        1 <1>        0.000
     14 C31        -3.1364   -0.0780   -0.9406 C.3        1 <1>        0.000
     15 H           1.2346   -1.0673    0.9665 H.spc      1 <1>        0.000
     16 H           2.2404    0.4792    0.7267 H.spc      1 <1>        0.000
     17 H           0.7071    0.7005    2.5051 H.spc      1 <1>        0.000
     18 H          -0.6752    0.2827    1.3134 H.spc      1 <1>        0.000
     19 H           1.9728   -0.2825   -1.3267 H.spc      1 <1>        0.000
     20 H           0.4824    0.8532   -1.0814 H.spc      1 <1>        0.000
     21 H           0.8891    2.7465    1.7511 H.spc      1 <1>        0.000
     22 H           0.0623    2.3224    0.1255 H.spc      1 <1>        0.000
     23 H           0.7026   -2.0487   -1.5439 H.spc      1 <1>        0.000
     24 H          -0.7539   -1.2270   -0.7631 H.spc      1 <1>        0.000
     25 H          -3.1123    0.7088    1.7773 H.spc      1 <1>        0.000
     26 H          -4.3173    2.0545    1.6009 H.spc      1 <1>        0.000
     27 H          -1.0829    3.9784    1.6040 H.spc      1 <1>        0.000
     28 H          -1.3701    2.5973    2.7262 H.spc      1 <1>        0.000
     29 H          -0.7859    0.1830   -2.8100 H.spc      1 <1>        0.000
     30 H           0.2990   -1.1120   -3.5349 H.spc      1 <1>        0.000
     31 H          -1.8574    1.9328    0.0755 H.spc      1 <1>        0.000
     32 H          -2.9402    3.4054    0.8666 H.spc      1 <1>        0.000
     33 H          -1.4845   -2.5002   -2.4992 H.spc      1 <1>        0.000
     34 H          -1.6569   -1.4593   -4.2414 H.spc      1 <1>        0.000
     35 H          -4.8618    0.2199    0.1962 H.spc      1 <1>        0.000
     36 H          -4.2457    1.6856   -0.8095 H.spc      1 <1>        0.000
     37 H          -3.3078    0.3554   -2.9747 H.spc      1 <1>        0.000
     38 H          -4.6032   -0.8145   -2.2293 H.spc      1 <1>        0.000
     39 H          -2.2137    0.4839   -1.0855 H.spc      1 <1>        0.000
     40 H          -3.1080   -1.0044   -0.3669 H.spc      1 <1>        0.000
@<TRIPOS>BOND
     1    8   10 1  
     2    1    2 1  
     3    1    3 1  
     4    5    8 1  
     5    4    7 1  
     6    3    5 1  
     7    2    4 1  
     8    7    9 1  
     9   13   14 1  
    10   12   14 1  
    11   11   13 1  
    12    6   12 1  
    13    9    6 1  
    14   10   11 1  
    15    1   15 1  
    16    1   16 1  
    17    2   17 1  
    18    2   18 1  
    19    3   19 1  
    20    3   20 1  
    21    4   21 1  
    22    4   22 1  
    23    5   23 1  
    24    5   24 1  
    25    6   25 1  
    26    6   26 1  
    27    7   27 1  
    28    7   28 1  
    29    8   29 1  
    30    8   30 1  
    31    9   31 1  
    32    9   32 1  
    33   10   33 1  
    34   10   34 1  
    35   12   35 1  
    36   12   36 1  
    37   13   37 1  
    38   13   38 1  
    39   14   39 1  
    40   14   40 1  
# Name:          frag4-445-119/150395
# Creation time: Sat Jun  5 12:53:36 2010


@<TRIPOS>MOLECULE
frag4-445-119/150395
   40    40     1     1     1
SMALL
USER_CHARGES


@<TRIPOS>ATOM
      1 C1          1.1248   -0.3484    0.6398 C.3        1 <1>        0.000
      2 C2          1.0422    0.8801    1.5561 C.3        1 <1>        0.000
      3 C3          1.4848   -0.1705   -0.8270 C.3        1 <1>        0.000
      4 C4         -0.0605    1.8930    1.3389 C.3        1 <1>        0.000
      5 C6          0.4286    0.0660   -1.8937 C.3        1 <1>        0.000
      6 C20        -3.2658    2.0522   -0.6781 C.3        1 <1>        0.000
      7 C9         -1.4133    1.3127    1.1205 C.3        1 <1>        0.000
      8 C11        -0.3839   -1.0819   -2.4033 C.3        1 <1>        0.000
      9 C13        -2.4648    2.1912    0.5779 C.3        1 <1>        0.000
     10 C16        -1.7461   -0.7560   -2.8673 C.3        1 <1>        0.000
     11 O8         -2.9840   -0.7958   -2.4133 O.3        1 <1>        0.000
     12 C24        -4.4259    1.0952   -0.5529 C.3        1 <1>        0.000
     13 C28        -3.2776   -1.2344   -1.0787 C.3        1 <1>        0.000
     14 C31        -4.2028   -0.3714   -0.2295 C.3        1 <1>        0.000
     15 H           0.1121   -0.7514    0.6278 H.spc      1 <1>        0.000
     16 H           1.9381   -0.9454    1.0524 H.spc      1 <1>        0.000
     17 H           1.9651    1.4291    1.3693 H.spc      1 <1>        0.000
     18 H           0.8550    0.4738    2.5501 H.spc      1 <1>        0.000
     19 H           1.9161   -1.1327   -1.1030 H.spc      1 <1>        0.000
     20 H           2.0691    0.7496   -0.8372 H.spc      1 <1>        0.000
     21 H          -0.1187    2.4943    2.2462 H.spc      1 <1>        0.000
     22 H           0.1942    2.4465    0.4351 H.spc      1 <1>        0.000
     23 H          -0.2973    0.7261   -1.4189 H.spc      1 <1>        0.000
     24 H           0.9890    0.4120   -2.7622 H.spc      1 <1>        0.000
     25 H          -3.6764    3.0340   -0.9139 H.spc      1 <1>        0.000
     26 H          -2.6009    1.6604   -1.4478 H.spc      1 <1>        0.000
     27 H          -1.7646    1.0188    2.1096 H.spc      1 <1>        0.000
     28 H          -1.2752    0.5318    0.3727 H.spc      1 <1>        0.000
     29 H           0.1490   -1.4726   -3.2702 H.spc      1 <1>        0.000
     30 H          -0.5026   -1.7684   -1.5650 H.spc      1 <1>        0.000
     31 H          -1.8792    3.0799    0.3426 H.spc      1 <1>        0.000
     32 H          -3.2446    2.0535    1.3269 H.spc      1 <1>        0.000
     33 H          -1.8407   -1.5667   -3.5898 H.spc      1 <1>        0.000
     34 H          -1.6350    0.3283   -2.8627 H.spc      1 <1>        0.000
     35 H          -4.9859    1.4712    0.3033 H.spc      1 <1>        0.000
     36 H          -4.8640    1.0809   -1.5509 H.spc      1 <1>        0.000
     37 H          -3.7956   -2.1864   -1.1945 H.spc      1 <1>        0.000
     38 H          -2.3207   -1.2328   -0.5567 H.spc      1 <1>        0.000
     39 H          -3.7224   -0.3548    0.7488 H.spc      1 <1>        0.000
     40 H          -5.1849   -0.8236   -0.3682 H.spc      1 <1>        0.000
@<TRIPOS>BOND
     1    8   10 1  
     2    1    2 1  
     3    1    3 1  
     4    5    8 1  
     5    4    7 1  
     6    3    5 1  
     7    2    4 1  
     8    7    9 1  
     9   13   14 1  
    10   12   14 1  
    11   11   13 1  
    12    6   12 1  
    13    9    6 1  
    14   10   11 1  
    15    1   15 1  
    16    1   16 1  
    17    2   17 1  
    18    2   18 1  
    19    3   19 1  
    20    3   20 1  
    21    4   21 1  
    22    4   22 1  
    23    5   23 1  
    24    5   24 1  
    25    6   25 1  
    26    6   26 1  
    27    7   27 1  
    28    7   28 1  
    29    8   29 1  
    30    8   30 1  
    31    9   31 1  
    32    9   32 1  
    33   10   33 1  
    34   10   34 1  
    35   12   35 1  
    36   12   36 1  
    37   13   37 1  
    38   13   38 1  
    39   14   39 1  
    40   14   40 1  
# Name:          frag4-445-119/150395
# Creation time: Sat Jun  5 12:53:36 2010


@<TRIPOS>MOLECULE
frag4-445-119/150395
   40    40     1     1     1
SMALL
USER_CHARGES


@<TRIPOS>ATOM
      1 C1          0.9440   -0.1000    0.9891 C.3        1 <1>        0.000
      2 C2          1.2248    1.2464    1.6102 C.3        1 <1>        0.000
      3 C3          0.9564   -0.1697   -0.5250 C.3        1 <1>        0.000
      4 C4          0.3841    2.4361    1.1924 C.3        1 <1>        0.000
      5 C6         -0.2023   -0.8550   -1.2156 C.3        1 <1>        0.000
      6 C20        -3.2708    0.9905    0.7620 C.3        1 <1>        0.000
      7 C9         -1.0963    2.4467    1.4716 C.3        1 <1>        0.000
      8 C11        -0.6111   -0.4426   -2.6017 C.3        1 <1>        0.000
      9 C13        -2.0114    1.7493    0.5251 C.3        1 <1>        0.000
     10 C16        -1.7117   -1.2626   -3.1854 C.3        1 <1>        0.000
     11 O8         -2.9409   -1.5703   -2.9383 O.3        1 <1>        0.000
     12 C24        -4.2972    0.9725   -0.3420 C.3        1 <1>        0.000
     13 C28        -3.5756   -1.0881   -1.7687 C.3        1 <1>        0.000
     14 C31        -3.9362    0.3785   -1.6842 C.3        1 <1>        0.000
     15 H          -0.0689   -0.3644    1.2927 H.spc      1 <1>        0.000
     16 H           1.7452   -0.7580    1.3257 H.spc      1 <1>        0.000
     17 H           2.2389    1.4947    1.2972 H.spc      1 <1>        0.000
     18 H           1.0181    1.1149    2.6723 H.spc      1 <1>        0.000
     19 H           1.8352   -0.7622   -0.7794 H.spc      1 <1>        0.000
     20 H           0.9212    0.8663   -0.8619 H.spc      1 <1>        0.000
     21 H           0.7779    3.2673    1.7773 H.spc      1 <1>        0.000
     22 H           0.4567    2.4529    0.1050 H.spc      1 <1>        0.000
     23 H           0.1235   -1.8892   -1.3269 H.spc      1 <1>        0.000
     24 H          -1.0663   -0.6136   -0.5965 H.spc      1 <1>        0.000
     25 H          -2.9653   -0.0476    0.8928 H.spc      1 <1>        0.000
     26 H          -3.7559    1.4863    1.6028 H.spc      1 <1>        0.000
     27 H          -1.3853    3.4965    1.4214 H.spc      1 <1>        0.000
     28 H          -1.2089    1.9148    2.4163 H.spc      1 <1>        0.000
     29 H          -0.9742    0.5831   -2.5376 H.spc      1 <1>        0.000
     30 H           0.2599   -0.5699   -3.2446 H.spc      1 <1>        0.000
     31 H          -1.3614    0.9364    0.2012 H.spc      1 <1>        0.000
     32 H          -2.4091    2.6073   -0.0169 H.spc      1 <1>        0.000
     33 H          -1.2835   -2.2387   -2.9576 H.spc      1 <1>        0.000
     34 H          -1.9065   -0.6260   -4.0485 H.spc      1 <1>        0.000
     35 H          -5.0983    0.3369    0.0354 H.spc      1 <1>        0.000
     36 H          -4.4986    2.0234   -0.5497 H.spc      1 <1>        0.000
     37 H          -4.5288   -1.6152   -1.7279 H.spc      1 <1>        0.000
     38 H          -2.8513   -1.2465   -0.9697 H.spc      1 <1>        0.000
     39 H          -4.8393    0.4792   -2.2862 H.spc      1 <1>        0.000
     40 H          -3.0326    0.9063   -1.9893 H.spc      1 <1>        0.000
@<TRIPOS>BOND
     1    8   10 1  
     2    1    2 1  
     3    1    3 1  
     4    5    8 1  
     5    4    7 1  
     6    3    5 1  
     7    2    4 1  
     8    7    9 1  
     9   13   14 1  
    10   12   14 1  
    11   11   13 1  
    12    6   12 1  
    13    9    6 1  
    14   10   11 1  
    15    1   15 1  
    16    1   16 1  
    17    2   17 1  
    18    2   18 1  
    19    3   19 1  
    20    3   20 1  
    21    4   21 1  
    22    4   22 1  
    23    5   23 1  
    24    5   24 1  
    25    6   25 1  
    26    6   26 1  
    27    7   27 1  
    28    7   28 1  
    29    8   29 1  
    30    8   30 1  
    31    9   31 1  
    32    9   32 1  
    33   10   33 1  
    34   10   34 1  
    35   12   35 1  
    36   12   36 1  
    37   13   37 1  
    38   13   38 1  
    39   14   39 1  
    40   14   40 1  
# Name:          frag4-445-119/150395
# Creation time: Sat Jun  5 12:53:36 2010


@<TRIPOS>MOLECULE
frag4-445-119/150395
   40    40     1     1     1
SMALL
USER_CHARGES


@<TRIPOS>ATOM
      1 C1          1.0581    1.0000   -0.0141 C.3        1 <1>        0.000
      2 C2          0.5304    0.6493    1.3719 C.3        1 <1>        0.000
      3 C3          0.4505    0.3657   -1.2379 C.3        1 <1>        0.000
      4 C4         -0.1513    1.6849    2.2390 C.3        1 <1>        0.000
      5 C6          0.3524   -1.1373   -1.3318 C.3        1 <1>        0.000
      6 C20        -2.7805    0.7335    0.5677 C.3        1 <1>        0.000
      7 C9         -1.0882    2.6543    1.5846 C.3        1 <1>        0.000
      8 C11        -0.3758   -1.6784   -2.5397 C.3        1 <1>        0.000
      9 C13        -2.2055    2.0995    0.7770 C.3        1 <1>        0.000
     10 C16        -1.8330   -1.9422   -2.3029 C.3        1 <1>        0.000
     11 O8         -2.9785   -1.3355   -2.2910 O.3        1 <1>        0.000
     12 C24        -4.0544    0.6986   -0.2268 C.3        1 <1>        0.000
     13 C28        -3.0713    0.0417   -2.5712 C.3        1 <1>        0.000
     14 C31        -3.9971    0.8978   -1.7356 C.3        1 <1>        0.000
     15 H           2.0893    0.6468   -0.0091 H.spc      1 <1>        0.000
     16 H           0.8440    2.0630   -0.1249 H.spc      1 <1>        0.000
     17 H           1.4263    0.3859    1.9341 H.spc      1 <1>        0.000
     18 H          -0.2518   -0.0842    1.1763 H.spc      1 <1>        0.000
     19 H           1.1162    0.6489   -2.0532 H.spc      1 <1>        0.000
     20 H          -0.5840    0.7091   -1.2403 H.spc      1 <1>        0.000
     21 H          -0.7679    1.1154    2.9344 H.spc      1 <1>        0.000
     22 H           0.6556    2.2954    2.6443 H.spc      1 <1>        0.000
     23 H           1.3754   -1.5075   -1.3995 H.spc      1 <1>        0.000
     24 H          -0.2160   -1.4623   -0.4604 H.spc      1 <1>        0.000
     25 H          -2.0418    0.1631    0.0047 H.spc      1 <1>        0.000
     26 H          -3.0133    0.3345    1.5550 H.spc      1 <1>        0.000
     27 H          -0.4765    3.2224    0.8837 H.spc      1 <1>        0.000
     28 H          -1.5618    3.1983    2.4018 H.spc      1 <1>        0.000
     29 H          -0.3060   -0.9253   -3.3246 H.spc      1 <1>        0.000
     30 H           0.0881   -2.6302   -2.7985 H.spc      1 <1>        0.000
     31 H          -1.7756    2.2462   -0.2138 H.spc      1 <1>        0.000
     32 H          -3.0362    2.5406    1.3279 H.spc      1 <1>        0.000
     33 H          -1.7575   -2.0796   -1.2242 H.spc      1 <1>        0.000
     34 H          -2.0044   -2.5067   -3.2195 H.spc      1 <1>        0.000
     35 H          -4.4378   -0.3131   -0.0939 H.spc      1 <1>        0.000
     36 H          -4.6367    1.5424    0.1435 H.spc      1 <1>        0.000
     37 H          -2.0734    0.4358   -2.3787 H.spc      1 <1>        0.000
     38 H          -3.4739    0.0965   -3.5827 H.spc      1 <1>        0.000
     39 H          -4.9975    0.6417   -2.0845 H.spc      1 <1>        0.000
     40 H          -3.6228    1.9134   -1.8644 H.spc      1 <1>        0.000
@<TRIPOS>BOND
     1    8   10 1  
     2    1    2 1  
     3    1    3 1  
     4    5    8 1  
     5    4    7 1  
     6    3    5 1  
     7    2    4 1  
     8    7    9 1  
     9   13   14 1  
    10   12   14 1  
    11   11   13 1  
    12    6   12 1  
    13    9    6 1  
    14   10   11 1  
    15    1   15 1  
    16    1   16 1  
    17    2   17 1  
    18    2   18 1  
    19    3   19 1  
    20    3   20 1  
    21    4   21 1  
    22    4   22 1  
    23    5   23 1  
    24    5   24 1  
    25    6   25 1  
    26    6   26 1  
    27    7   27 1  
    28    7   28 1  
    29    8   29 1  
    30    8   30 1  
    31    9   31 1  
    32    9   32 1  
    33   10   33 1  
    34   10   34 1  
    35   12   35 1  
    36   12   36 1  
    37   13   37 1  
    38   13   38 1  
    39   14   39 1  
    40   14   40 1  
# Name:          frag4-445-119/150395
# Creation time: Sat Jun  5 12:53:36 2010


@<TRIPOS>MOLECULE
frag4-445-119/150395
   40    40     1     1     1
SMALL
USER_CHARGES


@<TRIPOS>ATOM
      1 C1          1.8017    0.6784    0.1237 C.3        1 <1>        0.000
      2 C2          1.0361    0.6540    1.4419 C.3        1 <1>        0.000
      3 C3          1.1865    0.2792   -1.2112 C.3        1 <1>        0.000
      4 C4         -0.1138    1.5864    1.7569 C.3        1 <1>        0.000
      5 C6          0.3304   -0.9448   -1.3608 C.3        1 <1>        0.000
      6 C20        -3.7349    2.2915    0.3519 C.3        1 <1>        0.000
      7 C9         -1.3577    1.2797    1.0100 C.3        1 <1>        0.000
      8 C11        -0.3211   -1.2577   -2.6793 C.3        1 <1>        0.000
      9 C13        -2.7147    1.8314    1.3513 C.3        1 <1>        0.000
     10 C16        -1.6829   -1.8432   -2.6201 C.3        1 <1>        0.000
     11 O8         -2.8814   -1.4866   -2.2416 O.3        1 <1>        0.000
     12 C24        -4.6184    1.2687   -0.3450 C.3        1 <1>        0.000
     13 C28        -2.8957   -0.1916   -1.6257 C.3        1 <1>        0.000
     14 C31        -4.1783    0.5867   -1.6627 C.3        1 <1>        0.000
     15 H           2.5722   -0.0777    0.2741 H.spc      1 <1>        0.000
     16 H           2.0188    1.7377   -0.0138 H.spc      1 <1>        0.000
     17 H           1.7934    0.9453    2.1698 H.spc      1 <1>        0.000
     18 H           0.5596   -0.3262    1.4296 H.spc      1 <1>        0.000
     19 H           2.0524    0.0633   -1.8371 H.spc      1 <1>        0.000
     20 H           0.5020    1.0982   -1.4320 H.spc      1 <1>        0.000
     21 H          -0.3377    1.4781    2.8181 H.spc      1 <1>        0.000
     22 H           0.1963    2.5916    1.4715 H.spc      1 <1>        0.000
     23 H           1.0157   -1.7759   -1.1940 H.spc      1 <1>        0.000
     24 H          -0.5042   -0.7756   -0.6804 H.spc      1 <1>        0.000
     25 H          -4.4265    2.9069    0.9273 H.spc      1 <1>        0.000
     26 H          -3.1511    2.7435   -0.4499 H.spc      1 <1>        0.000
     27 H          -1.4845    0.2123    1.1905 H.spc      1 <1>        0.000
     28 H          -1.1618    1.7219    0.0332 H.spc      1 <1>        0.000
     29 H          -0.4236   -0.3054   -3.1997 H.spc      1 <1>        0.000
     30 H           0.3096   -2.0066   -3.1582 H.spc      1 <1>        0.000
     31 H          -2.4648    2.7568    1.8702 H.spc      1 <1>        0.000
     32 H          -3.2068    0.9715    1.8058 H.spc      1 <1>        0.000
     33 H          -1.4917   -2.5577   -1.8195 H.spc      1 <1>        0.000
     34 H          -1.8747   -1.8564   -3.6930 H.spc      1 <1>        0.000
     35 H          -4.6770    0.4460    0.3676 H.spc      1 <1>        0.000
     36 H          -5.5030    1.8386   -0.6291 H.spc      1 <1>        0.000
     37 H          -2.6938   -0.3696   -0.5695 H.spc      1 <1>        0.000
     38 H          -2.1769    0.4054   -2.1869 H.spc      1 <1>        0.000
     39 H          -4.9596   -0.1348   -1.9019 H.spc      1 <1>        0.000
     40 H          -4.0187    1.3931   -2.3784 H.spc      1 <1>        0.000
@<TRIPOS>BOND
     1    8   10 1  
     2    1    2 1  
     3    1    3 1  
     4    5    8 1  
     5    4    7 1  
     6    3    5 1  
     7    2    4 1  
     8    7    9 1  
     9   13   14 1  
    10   12   14 1  
    11   11   13 1  
    12    6   12 1  
    13    9    6 1  
    14   10   11 1  
    15    1   15 1  
    16    1   16 1  
    17    2   17 1  
    18    2   18 1  
    19    3   19 1  
    20    3   20 1  
    21    4   21 1  
    22    4   22 1  
    23    5   23 1  
    24    5   24 1  
    25    6   25 1  
    26    6   26 1  
    27    7   27 1  
    28    7   28 1  
    29    8   29 1  
    30    8   30 1  
    31    9   31 1  
    32    9   32 1  
    33   10   33 1  
    34   10   34 1  
    35   12   35 1  
    36   12   36 1  
    37   13   37 1  
    38   13   38 1  
    39   14   39 1  
    40   14   40 1  
# Name:          frag4-445-119/150395
# Creation time: Sat Jun  5 12:53:36 2010


@<TRIPOS>MOLECULE
frag4-445-119/150395
   40    40     1     1     1
SMALL
USER_CHARGES


@<TRIPOS>ATOM
      1 C1          1.2060    0.0467    0.6575 C.3        1 <1>        0.000
      2 C2          0.7093    1.4650    0.4723 C.3        1 <1>        0.000
      3 C3          1.2687   -0.9660   -0.4518 C.3        1 <1>        0.000
      4 C4         -0.0425    2.0683    1.6247 C.3        1 <1>        0.000
      5 C6          0.0417   -1.3793   -1.2193 C.3        1 <1>        0.000
      6 C20        -3.1019    0.9451    0.9172 C.3        1 <1>        0.000
      7 C9         -1.2621    2.9015    1.3632 C.3        1 <1>        0.000
      8 C11        -0.4162   -0.5087   -2.3587 C.3        1 <1>        0.000
      9 C13        -2.2828    2.1398    0.5954 C.3        1 <1>        0.000
     10 C16        -1.5657   -1.0098   -3.1379 C.3        1 <1>        0.000
     11 O8         -2.8499   -1.1605   -3.0065 O.3        1 <1>        0.000
     12 C24        -4.3045    0.7540    0.0191 C.3        1 <1>        0.000
     13 C28        -3.4322   -0.9421   -1.7454 C.3        1 <1>        0.000
     14 C31        -4.1123    0.3780   -1.4405 C.3        1 <1>        0.000
     15 H           0.4688   -0.3821    1.3364 H.spc      1 <1>        0.000
     16 H           2.2553    0.1887    0.9163 H.spc      1 <1>        0.000
     17 H           0.0080    1.4326   -0.3615 H.spc      1 <1>        0.000
     18 H           1.5984    2.0807    0.3367 H.spc      1 <1>        0.000
     19 H           1.5778   -1.8816    0.0524 H.spc      1 <1>        0.000
     20 H           1.8936   -0.4853   -1.2045 H.spc      1 <1>        0.000
     21 H          -0.4108    1.2125    2.1905 H.spc      1 <1>        0.000
     22 H           0.6666    2.7564    2.0850 H.spc      1 <1>        0.000
     23 H           0.2981   -2.3356   -1.6752 H.spc      1 <1>        0.000
     24 H          -0.7717   -1.3527   -0.4942 H.spc      1 <1>        0.000
     25 H          -2.4618    0.0727    0.7859 H.spc      1 <1>        0.000
     26 H          -3.4773    1.0776    1.9319 H.spc      1 <1>        0.000
     27 H          -0.9678    3.7733    0.7789 H.spc      1 <1>        0.000
     28 H          -1.6945    3.1934    2.3202 H.spc      1 <1>        0.000
     29 H          -0.7367    0.4332   -1.9134 H.spc      1 <1>        0.000
     30 H           0.4214   -0.4502   -3.0538 H.spc      1 <1>        0.000
     31 H          -1.6391    1.7090   -0.1715 H.spc      1 <1>        0.000
     32 H          -3.0730    2.8899    0.5631 H.spc      1 <1>        0.000
     33 H          -1.3027   -2.0669   -3.0987 H.spc      1 <1>        0.000
     34 H          -1.6004   -0.1963   -3.8626 H.spc      1 <1>        0.000
     35 H          -4.8345   -0.0948    0.4511 H.spc      1 <1>        0.000
     36 H          -4.7787    1.7349   -0.0129 H.spc      1 <1>        0.000
     37 H          -4.2318   -1.6803   -1.6838 H.spc      1 <1>        0.000
     38 H          -2.5950   -0.9838   -1.0486 H.spc      1 <1>        0.000
     39 H          -5.1172    0.2902   -1.8535 H.spc      1 <1>        0.000
     40 H          -3.4585    1.1452   -1.8553 H.spc      1 <1>        0.000
@<TRIPOS>BOND
     1    8   10 1  
     2    1    2 1  
     3    1    3 1  
     4    5    8 1  
     5    4    7 1  
     6    3    5 1  
     7    2    4 1  
     8    7    9 1  
     9   13   14 1  
    10   12   14 1  
    11   11   13 1  
    12    6   12 1  
    13    9    6 1  
    14   10   11 1  
    15    1   15 1  
    16    1   16 1  
    17    2   17 1  
    18    2   18 1  
    19    3   19 1  
    20    3   20 1  
    21    4   21 1  
    22    4   22 1  
    23    5   23 1  
    24    5   24 1  
    25    6   25 1  
    26    6   26 1  
    27    7   27 1  
    28    7   28 1  
    29    8   29 1  
    30    8   30 1  
    31    9   31 1  
    32    9   32 1  
    33   10   33 1  
    34   10   34 1  
    35   12   35 1  
    36   12   36 1  
    37   13   37 1  
    38   13   38 1  
    39   14   39 1  
    40   14   40 1  
# Name:          frag4-445-119/150395
# Creation time: Sat Jun  5 12:53:36 2010


@<TRIPOS>MOLECULE
frag4-445-119/150395
   40    40     1     1     1
SMALL
USER_CHARGES


@<TRIPOS>ATOM
      1 C1          0.9064    1.0610   -0.0851 C.3        1 <1>        0.000
      2 C2          0.7271    0.8966    1.4352 C.3        1 <1>        0.000
      3 C3          1.3022   -0.1880   -0.8663 C.3        1 <1>        0.000
      4 C4          0.1138    2.0328    2.2740 C.3        1 <1>        0.000
      5 C6          0.2314   -1.1863   -1.2569 C.3        1 <1>        0.000
      6 C20        -2.6904    0.9572    0.3626 C.3        1 <1>        0.000
      7 C9         -1.2817    2.5850    2.0206 C.3        1 <1>        0.000
      8 C11        -0.6773   -0.8219   -2.4074 C.3        1 <1>        0.000
      9 C13        -1.9683    2.1995    0.7604 C.3        1 <1>        0.000
     10 C16        -1.8024   -1.7552   -2.6182 C.3        1 <1>        0.000
     11 O8         -3.0955   -1.7105   -2.7191 O.3        1 <1>        0.000
     12 C24        -3.8223    1.1596   -0.5994 C.3        1 <1>        0.000
     13 C28        -3.7307   -0.4541   -2.6687 C.3        1 <1>        0.000
     14 C31        -4.3566   -0.0437   -1.3426 C.3        1 <1>        0.000
     15 H           1.7243    1.7694   -0.2164 H.spc      1 <1>        0.000
     16 H          -0.0674    1.3614   -0.4719 H.spc      1 <1>        0.000
     17 H           1.7432    0.7978    1.8173 H.spc      1 <1>        0.000
     18 H           0.0183    0.0747    1.5356 H.spc      1 <1>        0.000
     19 H           1.9649   -0.7371   -0.1974 H.spc      1 <1>        0.000
     20 H           1.6927    0.1868   -1.8124 H.spc      1 <1>        0.000
     21 H           0.0313    1.5927    3.2678 H.spc      1 <1>        0.000
     22 H           0.7615    2.8818    2.0555 H.spc      1 <1>        0.000
     23 H           0.7669   -2.0796   -1.5782 H.spc      1 <1>        0.000
     24 H          -0.4188   -1.2740   -0.3865 H.spc      1 <1>        0.000
     25 H          -1.9631    0.3184   -0.1386 H.spc      1 <1>        0.000
     26 H          -3.1226    0.5406    1.2724 H.spc      1 <1>        0.000
     27 H          -1.1579    3.6664    1.9625 H.spc      1 <1>        0.000
     28 H          -1.9013    2.1819    2.8216 H.spc      1 <1>        0.000
     29 H          -1.1094    0.1518   -2.1767 H.spc      1 <1>        0.000
     30 H          -0.0705   -0.8439   -3.3126 H.spc      1 <1>        0.000
     31 H          -1.1058    2.1287    0.0976 H.spc      1 <1>        0.000
     32 H          -2.8065    2.8957    0.7896 H.spc      1 <1>        0.000
     33 H          -1.7576   -2.2459   -1.6459 H.spc      1 <1>        0.000
     34 H          -1.5915   -1.9909   -3.6613 H.spc      1 <1>        0.000
     35 H          -4.6549    1.5134    0.0086 H.spc      1 <1>        0.000
     36 H          -3.4274    1.8205   -1.3710 H.spc      1 <1>        0.000
     37 H          -2.9502    0.2804   -2.8675 H.spc      1 <1>        0.000
     38 H          -4.5546   -0.5102   -3.3801 H.spc      1 <1>        0.000
     39 H          -4.1637   -0.8848   -0.6767 H.spc      1 <1>        0.000
     40 H          -5.3827    0.2237   -1.5951 H.spc      1 <1>        0.000
@<TRIPOS>BOND
     1    8   10 1  
     2    1    2 1  
     3    1    3 1  
     4    5    8 1  
     5    4    7 1  
     6    3    5 1  
     7    2    4 1  
     8    7    9 1  
     9   13   14 1  
    10   12   14 1  
    11   11   13 1  
    12    6   12 1  
    13    9    6 1  
    14   10   11 1  
    15    1   15 1  
    16    1   16 1  
    17    2   17 1  
    18    2   18 1  
    19    3   19 1  
    20    3   20 1  
    21    4   21 1  
    22    4   22 1  
    23    5   23 1  
    24    5   24 1  
    25    6   25 1  
    26    6   26 1  
    27    7   27 1  
    28    7   28 1  
    29    8   29 1  
    30    8   30 1  
    31    9   31 1  
    32    9   32 1  
    33   10   33 1  
    34   10   34 1  
    35   12   35 1  
    36   12   36 1  
    37   13   37 1  
    38   13   38 1  
    39   14   39 1  
    40   14   40 1  
# Name:          frag4-445-119/150395
# Creation time: Sat Jun  5 12:53:36 2010


@<TRIPOS>MOLECULE
frag4-445-119/150395
   40    40     1     1     1
SMALL
USER_CHARGES


@<TRIPOS>ATOM
      1 C1          1.0812   -0.0007    0.7104 C.3        1 <1>        0.000
      2 C2          1.3349    1.4496    1.0230 C.3        1 <1>        0.000
      3 C3          0.1282   -0.3254   -0.4068 C.3        1 <1>        0.000
      4 C4          0.1898    2.4330    1.0458 C.3        1 <1>        0.000
      5 C6          0.5726   -1.1523   -1.5843 C.3        1 <1>        0.000
      6 C20        -3.6045    1.2101    0.9575 C.3        1 <1>        0.000
      7 C9         -1.1223    2.0824    1.6995 C.3        1 <1>        0.000
      8 C11        -0.2181   -1.0158   -2.8666 C.3        1 <1>        0.000
      9 C13        -2.3012    1.9235    0.7950 C.3        1 <1>        0.000
     10 C16        -1.5373   -1.6492   -2.8980 C.3        1 <1>        0.000
     11 O8         -2.7838   -1.3231   -2.6288 O.3        1 <1>        0.000
     12 C24        -4.5094    1.1427   -0.2508 C.3        1 <1>        0.000
     13 C28        -3.0476   -0.0723   -2.0529 C.3        1 <1>        0.000
     14 C31        -4.3269    0.0295   -1.2536 C.3        1 <1>        0.000
     15 H           0.6249   -0.4149    1.6095 H.spc      1 <1>        0.000
     16 H           2.0444   -0.4014    0.3947 H.spc      1 <1>        0.000
     17 H           1.9722    1.7947    0.2088 H.spc      1 <1>        0.000
     18 H           1.7082    1.4447    2.0471 H.spc      1 <1>        0.000
     19 H          -0.1141    0.6451   -0.8399 H.spc      1 <1>        0.000
     20 H          -0.6419   -0.9327    0.0689 H.spc      1 <1>        0.000
     21 H           0.5675    3.2645    1.6409 H.spc      1 <1>        0.000
     22 H          -0.0659    2.5651   -0.0055 H.spc      1 <1>        0.000
     23 H           1.5800   -0.8103   -1.8213 H.spc      1 <1>        0.000
     24 H           0.4566   -2.1912   -1.2756 H.spc      1 <1>        0.000
     25 H          -3.3493    0.1772    1.1944 H.spc      1 <1>        0.000
     26 H          -4.1575    1.7713    1.7107 H.spc      1 <1>        0.000
     27 H          -1.3609    2.9159    2.3602 H.spc      1 <1>        0.000
     28 H          -0.9727    1.1113    2.1713 H.spc      1 <1>        0.000
     29 H          -0.3951    0.0518   -2.9972 H.spc      1 <1>        0.000
     30 H           0.3715   -1.5133   -3.6366 H.spc      1 <1>        0.000
     31 H          -1.8510    1.2989    0.0234 H.spc      1 <1>        0.000
     32 H          -2.6608    2.9525    0.7883 H.spc      1 <1>        0.000
     33 H          -1.3862   -2.3305   -2.0607 H.spc      1 <1>        0.000
     34 H          -1.6386   -1.7096   -3.9816 H.spc      1 <1>        0.000
     35 H          -5.5072    0.9857    0.1588 H.spc      1 <1>        0.000
     36 H          -4.2961    2.0550   -0.8078 H.spc      1 <1>        0.000
     37 H          -2.2332    0.1225   -1.3552 H.spc      1 <1>        0.000
     38 H          -3.1448    0.6319   -2.8792 H.spc      1 <1>        0.000
     39 H          -4.3447   -0.8806   -0.6540 H.spc      1 <1>        0.000
     40 H          -5.0996    0.2091   -2.0011 H.spc      1 <1>        0.000
@<TRIPOS>BOND
     1    8   10 1  
     2    1    2 1  
     3    1    3 1  
     4    5    8 1  
     5    4    7 1  
     6    3    5 1  
     7    2    4 1  
     8    7    9 1  
     9   13   14 1  
    10   12   14 1  
    11   11   13 1  
    12    6   12 1  
    13    9    6 1  
    14   10   11 1  
    15    1   15 1  
    16    1   16 1  
    17    2   17 1  
    18    2   18 1  
    19    3   19 1  
    20    3   20 1  
    21    4   21 1  
    22    4   22 1  
    23    5   23 1  
    24    5   24 1  
    25    6   25 1  
    26    6   26 1  
    27    7   27 1  
    28    7   28 1  
    29    8   29 1  
    30    8   30 1  
    31    9   31 1  
    32    9   32 1  
    33   10   33 1  
    34   10   34 1  
    35   12   35 1  
    36   12   36 1  
    37   13   37 1  
    38   13   38 1  
    39   14   39 1  
    40   14   40 1  
# Name:          frag4-445-119/150395
# Creation time: Sat Jun  5 12:53:36 2010


@<TRIPOS>MOLECULE
frag4-445-119/150395
   40    40     1     1     1
SMALL
USER_CHARGES


@<TRIPOS>ATOM
      1 C1          1.4394    0.2718    0.6581 C.3        1 <1>        0.000
      2 C2          0.5153    0.5372    1.8230 C.3        1 <1>        0.000
      3 C3          0.9239    0.1935   -0.7591 C.3        1 <1>        0.000
      4 C4         -0.1730    1.8741    2.0191 C.3        1 <1>        0.000
      5 C6         -0.1182   -0.8066   -1.2201 C.3        1 <1>        0.000
      6 C20        -2.9658    1.1451    0.7162 C.3        1 <1>        0.000
      7 C9         -0.7401    2.7016    0.8916 C.3        1 <1>        0.000
      8 C11        -0.6452   -0.5239   -2.6026 C.3        1 <1>        0.000
      9 C13        -2.0801    2.2922    0.3897 C.3        1 <1>        0.000
     10 C16        -1.7409   -1.3382   -3.1763 C.3        1 <1>        0.000
     11 O8         -2.9840   -1.6305   -2.9304 O.3        1 <1>        0.000
     12 C24        -4.1309    0.8403   -0.1884 C.3        1 <1>        0.000
     13 C28        -3.5769   -1.1521   -1.7456 C.3        1 <1>        0.000
     14 C31        -3.8680    0.3273   -1.5859 C.3        1 <1>        0.000
     15 H           1.8193   -0.7313    0.8517 H.spc      1 <1>        0.000
     16 H           2.0984    1.1399    0.6468 H.spc      1 <1>        0.000
     17 H           1.1700    0.4579    2.6909 H.spc      1 <1>        0.000
     18 H          -0.3115   -0.1529    1.6548 H.spc      1 <1>        0.000
     19 H           1.8089   -0.1001   -1.3237 H.spc      1 <1>        0.000
     20 H           0.4160    1.1496   -0.8861 H.spc      1 <1>        0.000
     21 H          -1.0607    1.6066    2.5922 H.spc      1 <1>        0.000
     22 H           0.6296    2.5049    2.4013 H.spc      1 <1>        0.000
     23 H           0.3547   -1.7884   -1.2423 H.spc      1 <1>        0.000
     24 H          -0.9590   -0.7484   -0.5289 H.spc      1 <1>        0.000
     25 H          -2.3231    0.2672    0.6512 H.spc      1 <1>        0.000
     26 H          -3.4152    1.4020    1.6754 H.spc      1 <1>        0.000
     27 H          -0.0523    2.5884    0.0536 H.spc      1 <1>        0.000
     28 H          -0.8561    3.7123    1.2828 H.spc      1 <1>        0.000
     29 H          -1.0692    0.4774   -2.5265 H.spc      1 <1>        0.000
     30 H           0.2040   -0.7212   -3.2569 H.spc      1 <1>        0.000
     31 H          -1.8120    2.0237   -0.6321 H.spc      1 <1>        0.000
     32 H          -2.6797    3.1025    0.8044 H.spc      1 <1>        0.000
     33 H          -1.3241   -2.3142   -2.9279 H.spc      1 <1>        0.000
     34 H          -1.9223   -0.7166   -4.0531 H.spc      1 <1>        0.000
     35 H          -4.6653    0.0310    0.3092 H.spc      1 <1>        0.000
     36 H          -4.6292    1.7989   -0.3330 H.spc      1 <1>        0.000
     37 H          -4.5579   -1.6266   -1.7215 H.spc      1 <1>        0.000
     38 H          -2.8454   -1.3710   -0.9677 H.spc      1 <1>        0.000
     39 H          -4.7880    0.5069   -2.1421 H.spc      1 <1>        0.000
     40 H          -2.9677    0.8414   -1.9225 H.spc      1 <1>        0.000
@<TRIPOS>BOND
     1    8   10 1  
     2    1    2 1  
     3    1    3 1  
     4    5    8 1  
     5    4    7 1  
     6    3    5 1  
     7    2    4 1  
     8    7    9 1  
     9   13   14 1  
    10   12   14 1  
    11   11   13 1  
    12    6   12 1  
    13    9    6 1  
    14   10   11 1  
    15    1   15 1  
    16    1   16 1  
    17    2   17 1  
    18    2   18 1  
    19    3   19 1  
    20    3   20 1  
    21    4   21 1  
    22    4   22 1  
    23    5   23 1  
    24    5   24 1  
    25    6   25 1  
    26    6   26 1  
    27    7   27 1  
    28    7   28 1  
    29    8   29 1  
    30    8   30 1  
    31    9   31 1  
    32    9   32 1  
    33   10   33 1  
    34   10   34 1  
    35   12   35 1  
    36   12   36 1  
    37   13   37 1  
    38   13   38 1  
    39   14   39 1  
    40   14   40 1  
# Name:          frag4-445-119/150395
# Creation time: Sat Jun  5 12:53:36 2010


@<TRIPOS>MOLECULE
frag4-445-119/150395
   40    40     1     1     1
SMALL
USER_CHARGES


@<TRIPOS>ATOM
      1 C1          1.5277    0.0693    0.7201 C.3        1 <1>        0.000
      2 C2          1.3875    1.4212    1.4010 C.3        1 <1>        0.000
      3 C3          1.1739   -0.0833   -0.7570 C.3        1 <1>        0.000
      4 C4          0.0253    1.9808    1.7730 C.3        1 <1>        0.000
      5 C6         -0.0404   -0.8714   -1.2146 C.3        1 <1>        0.000
      6 C20        -3.6104    2.0863    0.0338 C.3        1 <1>        0.000
      7 C9         -1.1263    1.5753    0.8955 C.3        1 <1>        0.000
      8 C11        -0.4752   -0.7323   -2.6499 C.3        1 <1>        0.000
      9 C13        -2.4959    2.1164    1.0303 C.3        1 <1>        0.000
     10 C16        -1.6854   -1.4879   -3.0355 C.3        1 <1>        0.000
     11 O8         -2.9846   -1.4194   -2.8983 O.3        1 <1>        0.000
     12 C24        -4.3879    0.7904    0.0135 C.3        1 <1>        0.000
     13 C28        -3.5849   -0.3133   -2.2560 C.3        1 <1>        0.000
     14 C31        -3.8676   -0.4002   -0.7664 C.3        1 <1>        0.000
     15 H           0.8143   -0.5715    1.2383 H.spc      1 <1>        0.000
     16 H           2.5943   -0.1503    0.7684 H.spc      1 <1>        0.000
     17 H           1.7673    2.1269    0.6621 H.spc      1 <1>        0.000
     18 H           1.8847    1.2833    2.3611 H.spc      1 <1>        0.000
     19 H           2.0137   -0.6455   -1.1654 H.spc      1 <1>        0.000
     20 H           0.9533    0.9357   -1.0748 H.spc      1 <1>        0.000
     21 H          -0.2001    1.5933    2.7665 H.spc      1 <1>        0.000
     22 H           0.1080    3.0639    1.6826 H.spc      1 <1>        0.000
     23 H           0.2343   -1.9196   -1.0964 H.spc      1 <1>        0.000
     24 H          -0.8722   -0.4897   -0.6226 H.spc      1 <1>        0.000
     25 H          -4.3091    2.8765    0.3086 H.spc      1 <1>        0.000
     26 H          -3.1633    2.2088   -0.9527 H.spc      1 <1>        0.000
     27 H          -1.2579    0.5217    1.1419 H.spc      1 <1>        0.000
     28 H          -0.8200    1.9361   -0.0864 H.spc      1 <1>        0.000
     29 H          -0.7119    0.3214   -2.7976 H.spc      1 <1>        0.000
     30 H           0.3393   -1.1281   -3.2565 H.spc      1 <1>        0.000
     31 H          -2.2910    3.1859    1.0778 H.spc      1 <1>        0.000
     32 H          -2.8979    1.4677    1.8085 H.spc      1 <1>        0.000
     33 H          -1.5277   -2.3368   -2.3702 H.spc      1 <1>        0.000
     34 H          -1.6532   -1.2533   -4.0995 H.spc      1 <1>        0.000
     35 H          -4.3840    0.4565    1.0511 H.spc      1 <1>        0.000
     36 H          -5.3267    1.0461   -0.4778 H.spc      1 <1>        0.000
     37 H          -2.8663    0.4996   -2.3610 H.spc      1 <1>        0.000
     38 H          -4.5637   -0.2105   -2.7246 H.spc      1 <1>        0.000
     39 H          -2.8884   -0.5905   -0.3270 H.spc      1 <1>        0.000
     40 H          -4.6755   -1.1287   -0.6976 H.spc      1 <1>        0.000
@<TRIPOS>BOND
     1    8   10 1  
     2    1    2 1  
     3    1    3 1  
     4    5    8 1  
     5    4    7 1  
     6    3    5 1  
     7    2    4 1  
     8    7    9 1  
     9   13   14 1  
    10   12   14 1  
    11   11   13 1  
    12    6   12 1  
    13    9    6 1  
    14   10   11 1  
    15    1   15 1  
    16    1   16 1  
    17    2   17 1  
    18    2   18 1  
    19    3   19 1  
    20    3   20 1  
    21    4   21 1  
    22    4   22 1  
    23    5   23 1  
    24    5   24 1  
    25    6   25 1  
    26    6   26 1  
    27    7   27 1  
    28    7   28 1  
    29    8   29 1  
    30    8   30 1  
    31    9   31 1  
    32    9   32 1  
    33   10   33 1  
    34   10   34 1  
    35   12   35 1  
    36   12   36 1  
    37   13   37 1  
    38   13   38 1  
    39   14   39 1  
    40   14   40 1  
# Name:          frag4-445-119/150395
# Creation time: Sat Jun  5 12:53:36 2010


@<TRIPOS>MOLECULE
frag4-445-119/150395
   40    40     1     1     1
SMALL
USER_CHARGES


@<TRIPOS>ATOM
      1 C1          1.3113    0.6040    0.0922 C.3        1 <1>        0.000
      2 C2         -0.0366    0.8436    0.7536 C.3        1 <1>        0.000
      3 C3          1.4268   -0.3793   -1.0909 C.3        1 <1>        0.000
      4 C4         -0.1489    1.9748    1.7557 C.3        1 <1>        0.000
      5 C6          0.2643   -1.3278   -1.4239 C.3        1 <1>        0.000
      6 C20        -3.2235    2.1154    0.1029 C.3        1 <1>        0.000
      7 C9         -1.5265    2.2889    2.2735 C.3        1 <1>        0.000
      8 C11        -0.3531   -1.1553   -2.7922 C.3        1 <1>        0.000
      9 C13        -2.4349    2.7661    1.1942 C.3        1 <1>        0.000
     10 C16        -1.6544   -1.8143   -2.9439 C.3        1 <1>        0.000
     11 O8         -2.9040   -1.4921   -2.7174 O.3        1 <1>        0.000
     12 C24        -3.5776    0.6510    0.2543 C.3        1 <1>        0.000
     13 C28        -3.2275   -0.2097   -2.2166 C.3        1 <1>        0.000
     14 C31        -4.0597   -0.1334   -0.9520 C.3        1 <1>        0.000
     15 H           1.9242    0.1596    0.8764 H.spc      1 <1>        0.000
     16 H           1.5831    1.5714   -0.3302 H.spc      1 <1>        0.000
     17 H          -0.2457   -0.0644    1.3192 H.spc      1 <1>        0.000
     18 H          -0.7130    1.1097   -0.0586 H.spc      1 <1>        0.000
     19 H           2.2463   -1.0422   -0.8132 H.spc      1 <1>        0.000
     20 H           1.5134    0.2616   -1.9683 H.spc      1 <1>        0.000
     21 H           0.4333    1.6646    2.6234 H.spc      1 <1>        0.000
     22 H           0.1860    2.8712    1.2337 H.spc      1 <1>        0.000
     23 H           0.6731   -2.3379   -1.3955 H.spc      1 <1>        0.000
     24 H          -0.5236   -1.1149   -0.7014 H.spc      1 <1>        0.000
     25 H          -4.1776    2.6421    0.0834 H.spc      1 <1>        0.000
     26 H          -2.5893    2.1686   -0.7820 H.spc      1 <1>        0.000
     27 H          -1.4378    3.0801    3.0180 H.spc      1 <1>        0.000
     28 H          -1.9481    1.3760    2.6940 H.spc      1 <1>        0.000
     29 H          -0.5106   -0.0876   -2.9447 H.spc      1 <1>        0.000
     30 H           0.3262   -1.6088   -3.5140 H.spc      1 <1>        0.000
     31 H          -1.6924    3.2682    0.5740 H.spc      1 <1>        0.000
     32 H          -3.2675    3.0876    1.8199 H.spc      1 <1>        0.000
     33 H          -1.5424   -2.5590   -2.1559 H.spc      1 <1>        0.000
     34 H          -1.6940   -1.8275   -4.0331 H.spc      1 <1>        0.000
     35 H          -2.6423    0.1696    0.5400 H.spc      1 <1>        0.000
     36 H          -4.4215    0.6416    0.9441 H.spc      1 <1>        0.000
     37 H          -2.2733    0.2533   -1.9650 H.spc      1 <1>        0.000
     38 H          -3.8326    0.2608   -2.9916 H.spc      1 <1>        0.000
     39 H          -4.0992   -1.1638   -0.5988 H.spc      1 <1>        0.000
     40 H          -4.9649    0.3885   -1.2622 H.spc      1 <1>        0.000
@<TRIPOS>BOND
     1    8   10 1  
     2    1    2 1  
     3    1    3 1  
     4    5    8 1  
     5    4    7 1  
     6    3    5 1  
     7    2    4 1  
     8    7    9 1  
     9   13   14 1  
    10   12   14 1  
    11   11   13 1  
    12    6   12 1  
    13    9    6 1  
    14   10   11 1  
    15    1   15 1  
    16    1   16 1  
    17    2   17 1  
    18    2   18 1  
    19    3   19 1  
    20    3   20 1  
    21    4   21 1  
    22    4   22 1  
    23    5   23 1  
    24    5   24 1  
    25    6   25 1  
    26    6   26 1  
    27    7   27 1  
    28    7   28 1  
    29    8   29 1  
    30    8   30 1  
    31    9   31 1  
    32    9   32 1  
    33   10   33 1  
    34   10   34 1  
    35   12   35 1  
    36   12   36 1  
    37   13   37 1  
    38   13   38 1  
    39   14   39 1  
    40   14   40 1  
# Name:          frag4-445-119/150395
# Creation time: Sat Jun  5 12:53:36 2010


@<TRIPOS>MOLECULE
frag4-445-119/150395
   40    40     1     1     1
SMALL
USER_CHARGES


@<TRIPOS>ATOM
      1 C1          0.7743    0.9278   -0.3860 C.3        1 <1>        0.000
      2 C2          1.0408    1.7231    0.8772 C.3        1 <1>        0.000
      3 C3          0.8785   -0.5878   -0.3615 C.3        1 <1>        0.000
      4 C4          0.0268    1.9769    1.9779 C.3        1 <1>        0.000
      5 C6         -0.1624   -1.4532   -1.0396 C.3        1 <1>        0.000
      6 C20        -2.8728    0.8448    0.7327 C.3        1 <1>        0.000
      7 C9         -1.2380    2.7629    1.7320 C.3        1 <1>        0.000
      8 C11        -0.3884   -1.3619   -2.5259 C.3        1 <1>        0.000
      9 C13        -2.4955    1.9893    1.5865 C.3        1 <1>        0.000
     10 C16        -1.7047   -1.8586   -2.9675 C.3        1 <1>        0.000
     11 O8         -2.9282   -1.3864   -3.0312 O.3        1 <1>        0.000
     12 C24        -3.8235    1.1675   -0.3842 C.3        1 <1>        0.000
     13 C28        -3.1433   -0.0878   -2.5391 C.3        1 <1>        0.000
     14 C31        -4.1079    0.0752   -1.3821 C.3        1 <1>        0.000
     15 H           1.5541    1.2446   -1.0786 H.spc      1 <1>        0.000
     16 H          -0.2718    1.1265   -0.6190 H.spc      1 <1>        0.000
     17 H           1.2159    2.7258    0.4874 H.spc      1 <1>        0.000
     18 H           1.7854    1.1098    1.3847 H.spc      1 <1>        0.000
     19 H           0.7855   -0.8417    0.6944 H.spc      1 <1>        0.000
     20 H           1.7956   -0.7982   -0.9117 H.spc      1 <1>        0.000
     21 H          -0.3351    0.9798    2.2286 H.spc      1 <1>        0.000
     22 H           0.5740    2.5886    2.6952 H.spc      1 <1>        0.000
     23 H           0.1960   -2.4711   -0.8863 H.spc      1 <1>        0.000
     24 H          -1.1066   -1.1244   -0.6055 H.spc      1 <1>        0.000
     25 H          -1.9549    0.4842    0.2685 H.spc      1 <1>        0.000
     26 H          -3.3792    0.1265    1.3774 H.spc      1 <1>        0.000
     27 H          -1.0908    3.2726    0.7798 H.spc      1 <1>        0.000
     28 H          -1.3747    3.3893    2.6135 H.spc      1 <1>        0.000
     29 H          -0.3352   -0.3071   -2.7956 H.spc      1 <1>        0.000
     30 H           0.3678   -1.9834   -3.0054 H.spc      1 <1>        0.000
     31 H          -3.1241    2.7583    1.1376 H.spc      1 <1>        0.000
     32 H          -2.5123    1.4966    2.5586 H.spc      1 <1>        0.000
     33 H          -1.8657   -2.5848   -2.1708 H.spc      1 <1>        0.000
     34 H          -1.5010   -1.8916   -4.0378 H.spc      1 <1>        0.000
     35 H          -4.7780    1.3882    0.0936 H.spc      1 <1>        0.000
     36 H          -3.3532    1.9713   -0.9507 H.spc      1 <1>        0.000
     37 H          -2.1764    0.2455   -2.1623 H.spc      1 <1>        0.000
     38 H          -3.5832    0.4689   -3.3666 H.spc      1 <1>        0.000
     39 H          -4.0501   -0.8568   -0.8198 H.spc      1 <1>        0.000
     40 H          -5.0654    0.3342   -1.8340 H.spc      1 <1>        0.000
@<TRIPOS>BOND
     1    8   10 1  
     2    1    2 1  
     3    1    3 1  
     4    5    8 1  
     5    4    7 1  
     6    3    5 1  
     7    2    4 1  
     8    7    9 1  
     9   13   14 1  
    10   12   14 1  
    11   11   13 1  
    12    6   12 1  
    13    9    6 1  
    14   10   11 1  
    15    1   15 1  
    16    1   16 1  
    17    2   17 1  
    18    2   18 1  
    19    3   19 1  
    20    3   20 1  
    21    4   21 1  
    22    4   22 1  
    23    5   23 1  
    24    5   24 1  
    25    6   25 1  
    26    6   26 1  
    27    7   27 1  
    28    7   28 1  
    29    8   29 1  
    30    8   30 1  
    31    9   31 1  
    32    9   32 1  
    33   10   33 1  
    34   10   34 1  
    35   12   35 1  
    36   12   36 1  
    37   13   37 1  
    38   13   38 1  
    39   14   39 1  
    40   14   40 1  
# Name:          frag4-445-119/150395
# Creation time: Sat Jun  5 12:53:36 2010


@<TRIPOS>MOLECULE
frag4-445-119/150395
   40    40     1     1     1
SMALL
USER_CHARGES


@<TRIPOS>ATOM
      1 C1          1.9444    0.6065    0.1472 C.3        1 <1>        0.000
      2 C2          0.9828    0.9907    1.2585 C.3        1 <1>        0.000
      3 C3          1.5470   -0.4363   -0.9056 C.3        1 <1>        0.000
      4 C4         -0.3181    1.7372    0.9425 C.3        1 <1>        0.000
      5 C6          0.1363   -0.4829   -1.4373 C.3        1 <1>        0.000
      6 C20        -3.5691    2.3562    0.1901 C.3        1 <1>        0.000
      7 C9         -1.5509    1.1976    1.6206 C.3        1 <1>        0.000
      8 C11        -0.2310   -1.4914   -2.4845 C.3        1 <1>        0.000
      9 C13        -2.8069    1.9601    1.4093 C.3        1 <1>        0.000
     10 C16        -1.6727   -1.7681   -2.7353 C.3        1 <1>        0.000
     11 O8         -2.8532   -1.2733   -2.5856 O.3        1 <1>        0.000
     12 C24        -4.5587    1.3339   -0.2817 C.3        1 <1>        0.000
     13 C28        -3.1109   -0.0101   -2.0082 C.3        1 <1>        0.000
     14 C31        -4.0834    0.0116   -0.8406 C.3        1 <1>        0.000
     15 H           2.7870    0.1521    0.6684 H.spc      1 <1>        0.000
     16 H           2.0742    1.5261   -0.4235 H.spc      1 <1>        0.000
     17 H           1.5499    1.6902    1.8727 H.spc      1 <1>        0.000
     18 H           0.6508    0.0360    1.6665 H.spc      1 <1>        0.000
     19 H           1.6763   -1.3931   -0.3997 H.spc      1 <1>        0.000
     20 H           2.1549   -0.1867   -1.7753 H.spc      1 <1>        0.000
     21 H          -0.1868    2.7585    1.3001 H.spc      1 <1>        0.000
     22 H          -0.4828    1.6371   -0.1303 H.spc      1 <1>        0.000
     23 H          -0.4739   -0.7486   -0.5741 H.spc      1 <1>        0.000
     24 H          -0.0060    0.4822   -1.9236 H.spc      1 <1>        0.000
     25 H          -4.1331    3.2539    0.4434 H.spc      1 <1>        0.000
     26 H          -2.8426    2.4914   -0.6112 H.spc      1 <1>        0.000
     27 H          -1.3494    1.2365    2.6911 H.spc      1 <1>        0.000
     28 H          -1.7219    0.2085    1.1957 H.spc      1 <1>        0.000
     29 H           0.1455   -1.0784   -3.4203 H.spc      1 <1>        0.000
     30 H           0.1807   -2.4349   -2.1263 H.spc      1 <1>        0.000
     31 H          -2.4646    2.9455    1.7253 H.spc      1 <1>        0.000
     32 H          -3.5144    1.2451    1.8292 H.spc      1 <1>        0.000
     33 H          -1.7745   -2.5336   -1.9660 H.spc      1 <1>        0.000
     34 H          -1.6276   -1.6236   -3.8147 H.spc      1 <1>        0.000
     35 H          -5.1152    1.0630    0.6156 H.spc      1 <1>        0.000
     36 H          -5.0644    1.8145   -1.1192 H.spc      1 <1>        0.000
     37 H          -2.1577    0.3440   -1.6156 H.spc      1 <1>        0.000
     38 H          -3.5654    0.5949   -2.7927 H.spc      1 <1>        0.000
     39 H          -3.5361   -0.4518   -0.0197 H.spc      1 <1>        0.000
     40 H          -4.9856   -0.4626   -1.2269 H.spc      1 <1>        0.000
@<TRIPOS>BOND
     1    8   10 1  
     2    1    2 1  
     3    1    3 1  
     4    5    8 1  
     5    4    7 1  
     6    3    5 1  
     7    2    4 1  
     8    7    9 1  
     9   13   14 1  
    10   12   14 1  
    11   11   13 1  
    12    6   12 1  
    13    9    6 1  
    14   10   11 1  
    15    1   15 1  
    16    1   16 1  
    17    2   17 1  
    18    2   18 1  
    19    3   19 1  
    20    3   20 1  
    21    4   21 1  
    22    4   22 1  
    23    5   23 1  
    24    5   24 1  
    25    6   25 1  
    26    6   26 1  
    27    7   27 1  
    28    7   28 1  
    29    8   29 1  
    30    8   30 1  
    31    9   31 1  
    32    9   32 1  
    33   10   33 1  
    34   10   34 1  
    35   12   35 1  
    36   12   36 1  
    37   13   37 1  
    38   13   38 1  
    39   14   39 1  
    40   14   40 1  
# Name:          frag4-445-119/150395
# Creation time: Sat Jun  5 12:53:36 2010


@<TRIPOS>MOLECULE
frag4-445-119/150395
   40    40     1     1     1
SMALL
USER_CHARGES


@<TRIPOS>ATOM
      1 C1          1.6719    0.3032    0.3205 C.3        1 <1>        0.000
      2 C2          0.5975    1.3697    0.3779 C.3        1 <1>        0.000
      3 C3          1.8383   -0.5069   -0.9445 C.3        1 <1>        0.000
      4 C4         -0.1042    1.6228    1.7065 C.3        1 <1>        0.000
      5 C6          0.6899   -1.3517   -1.4361 C.3        1 <1>        0.000
      6 C20        -3.1063    1.5828    0.0137 C.3        1 <1>        0.000
      7 C9         -1.3624    2.4956    1.8685 C.3        1 <1>        0.000
      8 C11        -0.4945   -0.7394   -2.1646 C.3        1 <1>        0.000
      9 C13        -2.6651    1.9487    1.3766 C.3        1 <1>        0.000
     10 C16        -1.7376   -1.5271   -2.1322 C.3        1 <1>        0.000
     11 O8         -3.0287   -1.3599   -2.3269 O.3        1 <1>        0.000
     12 C24        -4.2115    0.5874   -0.1699 C.3        1 <1>        0.000
     13 C28        -3.5890   -0.0916   -2.5922 C.3        1 <1>        0.000
     14 C31        -4.6427    0.3984   -1.6078 C.3        1 <1>        0.000
     15 H           1.3861   -0.4227    1.0817 H.spc      1 <1>        0.000
     16 H           2.6107    0.8460    0.4303 H.spc      1 <1>        0.000
     17 H          -0.1853    1.0226   -0.2966 H.spc      1 <1>        0.000
     18 H           1.1092    2.3031    0.1432 H.spc      1 <1>        0.000
     19 H           2.6306   -1.2199   -0.7163 H.spc      1 <1>        0.000
     20 H           1.9961    0.2324   -1.7297 H.spc      1 <1>        0.000
     21 H          -0.4652    0.6309    1.9784 H.spc      1 <1>        0.000
     22 H           0.6455    2.1779    2.2703 H.spc      1 <1>        0.000
     23 H           1.1466   -2.0007   -2.1833 H.spc      1 <1>        0.000
     24 H           0.2528   -1.7526   -0.5216 H.spc      1 <1>        0.000
     25 H          -3.4997    2.5092   -0.4048 H.spc      1 <1>        0.000
     26 H          -2.2344    1.1106   -0.4390 H.spc      1 <1>        0.000
     27 H          -1.1766    3.3851    1.2665 H.spc      1 <1>        0.000
     28 H          -1.4897    2.6224    2.9436 H.spc      1 <1>        0.000
     29 H          -0.7125    0.2036   -1.6632 H.spc      1 <1>        0.000
     30 H          -0.2058   -0.6598   -3.2126 H.spc      1 <1>        0.000
     31 H          -3.3117    2.8067    1.5605 H.spc      1 <1>        0.000
     32 H          -2.6424    0.9619    1.8391 H.spc      1 <1>        0.000
     33 H          -1.7827   -1.6589   -1.0511 H.spc      1 <1>        0.000
     34 H          -1.5439   -2.1170   -3.0281 H.spc      1 <1>        0.000
     35 H          -3.8403   -0.3745    0.1838 H.spc      1 <1>        0.000
     36 H          -5.0759    0.9615    0.3787 H.spc      1 <1>        0.000
     37 H          -2.7666    0.6216   -2.5372 H.spc      1 <1>        0.000
     38 H          -4.0899   -0.1762   -3.5566 H.spc      1 <1>        0.000
     39 H          -5.4105   -0.3750   -1.5871 H.spc      1 <1>        0.000
     40 H          -4.9397    1.3863   -1.9598 H.spc      1 <1>        0.000
@<TRIPOS>BOND
     1    8   10 1  
     2    1    2 1  
     3    1    3 1  
     4    5    8 1  
     5    4    7 1  
     6    3    5 1  
     7    2    4 1  
     8    7    9 1  
     9   13   14 1  
    10   12   14 1  
    11   11   13 1  
    12    6   12 1  
    13    9    6 1  
    14   10   11 1  
    15    1   15 1  
    16    1   16 1  
    17    2   17 1  
    18    2   18 1  
    19    3   19 1  
    20    3   20 1  
    21    4   21 1  
    22    4   22 1  
    23    5   23 1  
    24    5   24 1  
    25    6   25 1  
    26    6   26 1  
    27    7   27 1  
    28    7   28 1  
    29    8   29 1  
    30    8   30 1  
    31    9   31 1  
    32    9   32 1  
    33   10   33 1  
    34   10   34 1  
    35   12   35 1  
    36   12   36 1  
    37   13   37 1  
    38   13   38 1  
    39   14   39 1  
    40   14   40 1  
# Name:          frag4-445-119/150395
# Creation time: Sat Jun  5 12:53:36 2010


@<TRIPOS>MOLECULE
frag4-445-119/150395
   40    40     1     1     1
SMALL
USER_CHARGES


@<TRIPOS>ATOM
      1 C1          1.2614    0.7528    0.0716 C.3        1 <1>        0.000
      2 C2          0.8041    0.8687    1.4980 C.3        1 <1>        0.000
      3 C3          1.1775   -0.6353   -0.5050 C.3        1 <1>        0.000
      4 C4          0.2453    2.1679    2.0089 C.3        1 <1>        0.000
      5 C6         -0.1752   -1.0775   -1.0114 C.3        1 <1>        0.000
      6 C20        -3.1813    1.7785    0.1236 C.3        1 <1>        0.000
      7 C9         -0.9677    2.7593    1.3431 C.3        1 <1>        0.000
      8 C11        -0.7879   -0.3504   -2.1842 C.3        1 <1>        0.000
      9 C13        -2.1487    1.8674    1.1903 C.3        1 <1>        0.000
     10 C16        -1.6964   -1.1543   -3.0325 C.3        1 <1>        0.000
     11 O8         -2.9309   -1.5441   -3.1307 O.3        1 <1>        0.000
     12 C24        -3.6371    0.3917   -0.2293 C.3        1 <1>        0.000
     13 C28        -3.9723   -1.2383   -2.2193 C.3        1 <1>        0.000
     14 C31        -4.1349    0.1455   -1.6338 C.3        1 <1>        0.000
     15 H           2.3121    1.0421    0.0508 H.spc      1 <1>        0.000
     16 H           0.6032    1.3845   -0.5249 H.spc      1 <1>        0.000
     17 H           1.7083    0.7124    2.0863 H.spc      1 <1>        0.000
     18 H          -0.0268    0.1674    1.5743 H.spc      1 <1>        0.000
     19 H           1.4308   -1.3148    0.3088 H.spc      1 <1>        0.000
     20 H           1.8396   -0.6418   -1.3709 H.spc      1 <1>        0.000
     21 H          -0.0739    1.9521    3.0285 H.spc      1 <1>        0.000
     22 H           1.0381    2.8970    1.8419 H.spc      1 <1>        0.000
     23 H          -0.0253   -2.0992   -1.3603 H.spc      1 <1>        0.000
     24 H          -0.8588   -0.8998   -0.1812 H.spc      1 <1>        0.000
     25 H          -4.0586    2.3051    0.4992 H.spc      1 <1>        0.000
     26 H          -2.7299    2.1933   -0.7777 H.spc      1 <1>        0.000
     27 H          -0.6569    3.0213    0.3317 H.spc      1 <1>        0.000
     28 H          -1.2919    3.5791    1.9841 H.spc      1 <1>        0.000
     29 H          -1.3887    0.4579   -1.7673 H.spc      1 <1>        0.000
     30 H           0.0395   -0.0418   -2.8232 H.spc      1 <1>        0.000
     31 H          -2.7636    2.2321    2.0131 H.spc      1 <1>        0.000
     32 H          -1.6422    0.9144    1.0373 H.spc      1 <1>        0.000
     33 H          -1.2924   -2.1250   -2.7450 H.spc      1 <1>        0.000
     34 H          -1.7329   -0.4483   -3.8622 H.spc      1 <1>        0.000
     35 H          -2.7551   -0.2393   -0.1202 H.spc      1 <1>        0.000
     36 H          -4.4907    0.1939    0.4191 H.spc      1 <1>        0.000
     37 H          -4.8795   -1.3786   -2.8070 H.spc      1 <1>        0.000
     38 H          -3.7487   -1.8609   -1.3530 H.spc      1 <1>        0.000
     39 H          -5.2110    0.3136   -1.5901 H.spc      1 <1>        0.000
     40 H          -3.5354    0.7977   -2.2689 H.spc      1 <1>        0.000
@<TRIPOS>BOND
     1    8   10 1  
     2    1    2 1  
     3    1    3 1  
     4    5    8 1  
     5    4    7 1  
     6    3    5 1  
     7    2    4 1  
     8    7    9 1  
     9   13   14 1  
    10   12   14 1  
    11   11   13 1  
    12    6   12 1  
    13    9    6 1  
    14   10   11 1  
    15    1   15 1  
    16    1   16 1  
    17    2   17 1  
    18    2   18 1  
    19    3   19 1  
    20    3   20 1  
    21    4   21 1  
    22    4   22 1  
    23    5   23 1  
    24    5   24 1  
    25    6   25 1  
    26    6   26 1  
    27    7   27 1  
    28    7   28 1  
    29    8   29 1  
    30    8   30 1  
    31    9   31 1  
    32    9   32 1  
    33   10   33 1  
    34   10   34 1  
    35   12   35 1  
    36   12   36 1  
    37   13   37 1  
    38   13   38 1  
    39   14   39 1  
    40   14   40 1  
# Name:          frag4-445-119/150395
# Creation time: Sat Jun  5 12:53:36 2010


@<TRIPOS>MOLECULE
frag4-445-119/150395
   40    40     1     1     1
SMALL
USER_CHARGES


@<TRIPOS>ATOM
      1 C1          1.3664    0.3788    0.4934 C.3        1 <1>        0.000
      2 C2          0.2797    0.0496    1.5048 C.3        1 <1>        0.000
      3 C3          1.0364    0.5167   -0.9824 C.3        1 <1>        0.000
      4 C4         -0.7175    1.0917    1.9827 C.3        1 <1>        0.000
      5 C6          0.0395   -0.4777   -1.5123 C.3        1 <1>        0.000
      6 C20        -3.3095    2.2022   -0.2288 C.3        1 <1>        0.000
      7 C9         -1.0238    2.3759    1.2588 C.3        1 <1>        0.000
      8 C11        -0.5660   -0.4668   -2.8818 C.3        1 <1>        0.000
      9 C13        -1.8347    2.3076    0.0188 C.3        1 <1>        0.000
     10 C16        -1.6209   -1.5064   -2.9514 C.3        1 <1>        0.000
     11 O8         -2.8300   -1.6859   -2.4469 O.3        1 <1>        0.000
     12 C24        -3.9680    0.9342    0.2264 C.3        1 <1>        0.000
     13 C28        -3.4878   -0.5816   -1.8551 C.3        1 <1>        0.000
     14 C31        -3.5081   -0.4065   -0.3369 C.3        1 <1>        0.000
     15 H           2.0396   -0.4773    0.5372 H.spc      1 <1>        0.000
     16 H           1.7090    1.3719    0.7839 H.spc      1 <1>        0.000
     17 H           0.8371   -0.2042    2.4065 H.spc      1 <1>        0.000
     18 H          -0.3413   -0.6802    0.9853 H.spc      1 <1>        0.000
     19 H           1.9653    0.3490   -1.5275 H.spc      1 <1>        0.000
     20 H           0.5929    1.5038   -1.1127 H.spc      1 <1>        0.000
     21 H          -1.6649    0.5560    1.9238 H.spc      1 <1>        0.000
     22 H          -0.2637    1.4453    2.9085 H.spc      1 <1>        0.000
     23 H           0.6253   -1.3967   -1.5315 H.spc      1 <1>        0.000
     24 H          -0.8278   -0.2871   -0.8802 H.spc      1 <1>        0.000
     25 H          -3.7723    3.0074    0.3417 H.spc      1 <1>        0.000
     26 H          -3.4403    2.2420   -1.3102 H.spc      1 <1>        0.000
     27 H          -0.0555    2.7672    0.9469 H.spc      1 <1>        0.000
     28 H          -1.6180    2.9644    1.9579 H.spc      1 <1>        0.000
     29 H          -1.0007    0.5121   -3.0837 H.spc      1 <1>        0.000
     30 H           0.2035   -0.6736   -3.6256 H.spc      1 <1>        0.000
     31 H          -1.5269    1.3245   -0.3375 H.spc      1 <1>        0.000
     32 H          -1.6662    3.3171   -0.3562 H.spc      1 <1>        0.000
     33 H          -1.1058   -2.2789   -2.3805 H.spc      1 <1>        0.000
     34 H          -1.9149   -1.3502   -3.9893 H.spc      1 <1>        0.000
     35 H          -3.7412    0.8755    1.2909 H.spc      1 <1>        0.000
     36 H          -5.0021    1.0293   -0.1047 H.spc      1 <1>        0.000
     37 H          -2.9323    0.2841   -2.2158 H.spc      1 <1>        0.000
     38 H          -4.5355   -0.7215   -2.1213 H.spc      1 <1>        0.000
     39 H          -2.4701   -0.5108   -0.0211 H.spc      1 <1>        0.000
     40 H          -4.2319   -1.1355    0.0274 H.spc      1 <1>        0.000
@<TRIPOS>BOND
     1    8   10 1  
     2    1    2 1  
     3    1    3 1  
     4    5    8 1  
     5    4    7 1  
     6    3    5 1  
     7    2    4 1  
     8    7    9 1  
     9   13   14 1  
    10   12   14 1  
    11   11   13 1  
    12    6   12 1  
    13    9    6 1  
    14   10   11 1  
    15    1   15 1  
    16    1   16 1  
    17    2   17 1  
    18    2   18 1  
    19    3   19 1  
    20    3   20 1  
    21    4   21 1  
    22    4   22 1  
    23    5   23 1  
    24    5   24 1  
    25    6   25 1  
    26    6   26 1  
    27    7   27 1  
    28    7   28 1  
    29    8   29 1  
    30    8   30 1  
    31    9   31 1  
    32    9   32 1  
    33   10   33 1  
    34   10   34 1  
    35   12   35 1  
    36   12   36 1  
    37   13   37 1  
    38   13   38 1  
    39   14   39 1  
    40   14   40 1  
# Name:          frag4-445-119/150395
# Creation time: Sat Jun  5 12:53:36 2010


@<TRIPOS>MOLECULE
frag4-445-119/150395
   40    40     1     1     1
SMALL
USER_CHARGES


@<TRIPOS>ATOM
      1 C1          1.2353    0.7255    0.2151 C.3        1 <1>        0.000
      2 C2          0.4651    0.4917    1.4910 C.3        1 <1>        0.000
      3 C3          1.0535   -0.3011   -0.8662 C.3        1 <1>        0.000
      4 C4         -0.1823    1.6468    2.2262 C.3        1 <1>        0.000
      5 C6         -0.0930   -0.0658   -1.8215 C.3        1 <1>        0.000
      6 C20        -3.3795    1.6258    0.8376 C.3        1 <1>        0.000
      7 C9         -0.9686    2.7155    1.5108 C.3        1 <1>        0.000
      8 C11        -0.3867   -1.1255   -2.8373 C.3        1 <1>        0.000
      9 C13        -2.0210    2.1870    0.6082 C.3        1 <1>        0.000
     10 C16        -1.6264   -1.9104   -2.6966 C.3        1 <1>        0.000
     11 O8         -2.9100   -1.7431   -2.6362 O.3        1 <1>        0.000
     12 C24        -4.1049    1.1624   -0.4087 C.3        1 <1>        0.000
     13 C28        -3.4421   -0.4613   -2.3919 C.3        1 <1>        0.000
     14 C31        -3.7836   -0.2155   -0.9412 C.3        1 <1>        0.000
     15 H           2.2905    0.6980    0.4869 H.spc      1 <1>        0.000
     16 H           0.8685    1.6669   -0.1939 H.spc      1 <1>        0.000
     17 H           1.2133    0.1168    2.1894 H.spc      1 <1>        0.000
     18 H          -0.3737   -0.1337    1.1854 H.spc      1 <1>        0.000
     19 H           0.8402   -1.2426   -0.3600 H.spc      1 <1>        0.000
     20 H           1.9620   -0.2744   -1.4678 H.spc      1 <1>        0.000
     21 H          -0.9276    1.1615    2.8563 H.spc      1 <1>        0.000
     22 H           0.6657    2.1906    2.6425 H.spc      1 <1>        0.000
     23 H          -0.9842   -0.0081   -1.1965 H.spc      1 <1>        0.000
     24 H           0.1848    0.8178   -2.3961 H.spc      1 <1>        0.000
     25 H          -3.2524    0.7475    1.4705 H.spc      1 <1>        0.000
     26 H          -3.9799    2.4264    1.2697 H.spc      1 <1>        0.000
     27 H          -0.2659    3.2767    0.8949 H.spc      1 <1>        0.000
     28 H          -1.4668    3.3153    2.2725 H.spc      1 <1>        0.000
     29 H          -0.4924   -0.5928   -3.7824 H.spc      1 <1>        0.000
     30 H           0.4219   -1.8494   -2.7359 H.spc      1 <1>        0.000
     31 H          -1.5173    1.2806    0.2723 H.spc      1 <1>        0.000
     32 H          -2.3025    3.1163    0.1130 H.spc      1 <1>        0.000
     33 H          -1.4854   -2.1823   -1.6505 H.spc      1 <1>        0.000
     34 H          -1.6045   -2.3597   -3.6895 H.spc      1 <1>        0.000
     35 H          -5.1597    1.1297   -0.1357 H.spc      1 <1>        0.000
     36 H          -3.8038    1.8551   -1.1946 H.spc      1 <1>        0.000
     37 H          -2.6836    0.2676   -2.6774 H.spc      1 <1>        0.000
     38 H          -4.3658   -0.3761   -2.9643 H.spc      1 <1>        0.000
     39 H          -2.8667   -0.4829   -0.4160 H.spc      1 <1>        0.000
     40 H          -4.7153   -0.7642   -0.8035 H.spc      1 <1>        0.000
@<TRIPOS>BOND
     1    8   10 1  
     2    1    2 1  
     3    1    3 1  
     4    5    8 1  
     5    4    7 1  
     6    3    5 1  
     7    2    4 1  
     8    7    9 1  
     9   13   14 1  
    10   12   14 1  
    11   11   13 1  
    12    6   12 1  
    13    9    6 1  
    14   10   11 1  
    15    1   15 1  
    16    1   16 1  
    17    2   17 1  
    18    2   18 1  
    19    3   19 1  
    20    3   20 1  
    21    4   21 1  
    22    4   22 1  
    23    5   23 1  
    24    5   24 1  
    25    6   25 1  
    26    6   26 1  
    27    7   27 1  
    28    7   28 1  
    29    8   29 1  
    30    8   30 1  
    31    9   31 1  
    32    9   32 1  
    33   10   33 1  
    34   10   34 1  
    35   12   35 1  
    36   12   36 1  
    37   13   37 1  
    38   13   38 1  
    39   14   39 1  
    40   14   40 1  
# Name:          frag4-445-119/150395
# Creation time: Sat Jun  5 12:53:36 2010


@<TRIPOS>MOLECULE
frag4-445-119/150395
   40    40     1     1     1
SMALL
USER_CHARGES


@<TRIPOS>ATOM
      1 C1          1.4980    0.0592    0.6876 C.3        1 <1>        0.000
      2 C2          1.2720    1.5184    1.0457 C.3        1 <1>        0.000
      3 C3          0.4624   -0.6437   -0.1709 C.3        1 <1>        0.000
      4 C4          0.0014    1.8942    1.7719 C.3        1 <1>        0.000
      5 C6          0.4760   -0.3069   -1.6518 C.3        1 <1>        0.000
      6 C20        -3.1775    0.6074    0.7130 C.3        1 <1>        0.000
      7 C9         -1.1946    2.4573    1.0342 C.3        1 <1>        0.000
      8 C11        -0.5141   -0.8961   -2.6447 C.3        1 <1>        0.000
      9 C13        -2.0599    1.5084    0.2927 C.3        1 <1>        0.000
     10 C16        -1.7330   -1.5056   -2.1379 C.3        1 <1>        0.000
     11 O8         -3.0295   -1.2492   -2.1542 O.3        1 <1>        0.000
     12 C24        -4.3719    0.4738   -0.2018 C.3        1 <1>        0.000
     13 C28        -3.4581   -0.0004   -2.6173 C.3        1 <1>        0.000
     14 C31        -4.3155    0.8151   -1.6772 C.3        1 <1>        0.000
     15 H           1.4885   -0.4728    1.6389 H.spc      1 <1>        0.000
     16 H           2.4134    0.0492    0.0959 H.spc      1 <1>        0.000
     17 H           1.2197    2.0413    0.0908 H.spc      1 <1>        0.000
     18 H           2.0788    1.7712    1.7337 H.spc      1 <1>        0.000
     19 H          -0.5101   -0.3248    0.2042 H.spc      1 <1>        0.000
     20 H           0.6814   -1.7091   -0.0997 H.spc      1 <1>        0.000
     21 H          -0.3610    0.9463    2.1697 H.spc      1 <1>        0.000
     22 H           0.3083    2.7078    2.4292 H.spc      1 <1>        0.000
     23 H           0.2388    0.7569   -1.6665 H.spc      1 <1>        0.000
     24 H           1.4325   -0.7067   -1.9884 H.spc      1 <1>        0.000
     25 H          -2.7396   -0.3897    0.7603 H.spc      1 <1>        0.000
     26 H          -3.5678    1.0443    1.6322 H.spc      1 <1>        0.000
     27 H          -0.7818    3.1256    0.2785 H.spc      1 <1>        0.000
     28 H          -1.8325    2.8919    1.8038 H.spc      1 <1>        0.000
     29 H          -0.8490   -0.0509   -3.2459 H.spc      1 <1>        0.000
     30 H           0.0251   -1.7067   -3.1350 H.spc      1 <1>        0.000
     31 H          -1.3144    0.7545    0.0398 H.spc      1 <1>        0.000
     32 H          -2.6270    2.2214   -0.3057 H.spc      1 <1>        0.000
     33 H          -1.5615   -1.3107   -1.0793 H.spc      1 <1>        0.000
     34 H          -1.7491   -2.3689   -2.8031 H.spc      1 <1>        0.000
     35 H          -4.5702   -0.5980   -0.2000 H.spc      1 <1>        0.000
     36 H          -5.0761    1.2037    0.1974 H.spc      1 <1>        0.000
     37 H          -2.5536    0.5850   -2.7824 H.spc      1 <1>        0.000
     38 H          -4.0781   -0.2011   -3.4910 H.spc      1 <1>        0.000
     39 H          -5.3336    0.6521   -2.0308 H.spc      1 <1>        0.000
     40 H          -3.8752    1.8118   -1.7068 H.spc      1 <1>        0.000
@<TRIPOS>BOND
     1    8   10 1  
     2    1    2 1  
     3    1    3 1  
     4    5    8 1  
     5    4    7 1  
     6    3    5 1  
     7    2    4 1  
     8    7    9 1  
     9   13   14 1  
    10   12   14 1  
    11   11   13 1  
    12    6   12 1  
    13    9    6 1  
    14   10   11 1  
    15    1   15 1  
    16    1   16 1  
    17    2   17 1  
    18    2   18 1  
    19    3   19 1  
    20    3   20 1  
    21    4   21 1  
    22    4   22 1  
    23    5   23 1  
    24    5   24 1  
    25    6   25 1  
    26    6   26 1  
    27    7   27 1  
    28    7   28 1  
    29    8   29 1  
    30    8   30 1  
    31    9   31 1  
    32    9   32 1  
    33   10   33 1  
    34   10   34 1  
    35   12   35 1  
    36   12   36 1  
    37   13   37 1  
    38   13   38 1  
    39   14   39 1  
    40   14   40 1  
# Name:          frag4-445-119/150395
# Creation time: Sat Jun  5 12:53:36 2010


@<TRIPOS>MOLECULE
frag4-445-119/150395
   40    40     1     1     1
SMALL
USER_CHARGES


@<TRIPOS>ATOM
      1 C1          1.3877   -0.2031    0.2416 C.3        1 <1>        0.000
      2 C2          0.1258    0.0126    1.0493 C.3        1 <1>        0.000
      3 C3          1.5209    0.2533   -1.1925 C.3        1 <1>        0.000
      4 C4         -0.2940    1.3583    1.6080 C.3        1 <1>        0.000
      5 C6          0.3331    0.1374   -2.1139 C.3        1 <1>        0.000
      6 C20        -3.4389    1.0555    0.7789 C.3        1 <1>        0.000
      7 C9         -1.0335    2.3848    0.7839 C.3        1 <1>        0.000
      8 C11        -0.2521   -1.2264   -2.3900 C.3        1 <1>        0.000
      9 C13        -2.5101    2.2060    0.6403 C.3        1 <1>        0.000
     10 C16        -1.4235   -1.6265   -1.5940 C.3        1 <1>        0.000
     11 O8         -2.6671   -1.2114   -1.4229 O.3        1 <1>        0.000
     12 C24        -4.5468    0.9745   -0.2367 C.3        1 <1>        0.000
     13 C28        -3.0737   -0.0925   -2.1628 C.3        1 <1>        0.000
     14 C31        -4.2719    0.7096   -1.7000 C.3        1 <1>        0.000
     15 H           1.4582   -1.2884    0.1686 H.spc      1 <1>        0.000
     16 H           2.1298    0.3976    0.7676 H.spc      1 <1>        0.000
     17 H           0.3082   -0.5774    1.9475 H.spc      1 <1>        0.000
     18 H          -0.6635   -0.2094    0.3311 H.spc      1 <1>        0.000
     19 H           2.2756   -0.4032   -1.6256 H.spc      1 <1>        0.000
     20 H           1.7210    1.3228   -1.1279 H.spc      1 <1>        0.000
     21 H          -1.0111    1.0955    2.3857 H.spc      1 <1>        0.000
     22 H           0.6552    1.8474    1.8269 H.spc      1 <1>        0.000
     23 H          -0.4638    0.6877   -1.6137 H.spc      1 <1>        0.000
     24 H           0.6938    0.4880   -3.0809 H.spc      1 <1>        0.000
     25 H          -2.8355    0.1576    0.6453 H.spc      1 <1>        0.000
     26 H          -3.9217    1.1676    1.7497 H.spc      1 <1>        0.000
     27 H          -0.6255    2.3065   -0.2238 H.spc      1 <1>        0.000
     28 H          -0.8983    3.3345    1.3014 H.spc      1 <1>        0.000
     29 H          -0.5918   -1.1996   -3.4254 H.spc      1 <1>        0.000
     30 H           0.5326   -1.9416   -2.1436 H.spc      1 <1>        0.000
     31 H          -2.5870    2.3480   -0.4377 H.spc      1 <1>        0.000
     32 H          -2.8286    2.7780    1.5118 H.spc      1 <1>        0.000
     33 H          -1.0387   -1.3402   -0.6152 H.spc      1 <1>        0.000
     34 H          -1.6506   -2.5513   -2.1243 H.spc      1 <1>        0.000
     35 H          -5.1213    0.1035    0.0786 H.spc      1 <1>        0.000
     36 H          -4.9728    1.9778   -0.2328 H.spc      1 <1>        0.000
     37 H          -2.2350    0.6009   -2.1007 H.spc      1 <1>        0.000
     38 H          -3.3662   -0.4931   -3.1334 H.spc      1 <1>        0.000
     39 H          -5.1213    0.1025   -2.0131 H.spc      1 <1>        0.000
     40 H          -4.0868    1.7031   -2.1085 H.spc      1 <1>        0.000
@<TRIPOS>BOND
     1    8   10 1  
     2    1    2 1  
     3    1    3 1  
     4    5    8 1  
     5    4    7 1  
     6    3    5 1  
     7    2    4 1  
     8    7    9 1  
     9   13   14 1  
    10   12   14 1  
    11   11   13 1  
    12    6   12 1  
    13    9    6 1  
    14   10   11 1  
    15    1   15 1  
    16    1   16 1  
    17    2   17 1  
    18    2   18 1  
    19    3   19 1  
    20    3   20 1  
    21    4   21 1  
    22    4   22 1  
    23    5   23 1  
    24    5   24 1  
    25    6   25 1  
    26    6   26 1  
    27    7   27 1  
    28    7   28 1  
    29    8   29 1  
    30    8   30 1  
    31    9   31 1  
    32    9   32 1  
    33   10   33 1  
    34   10   34 1  
    35   12   35 1  
    36   12   36 1  
    37   13   37 1  
    38   13   38 1  
    39   14   39 1  
    40   14   40 1  
# Name:          frag4-445-119/150395
# Creation time: Sat Jun  5 12:53:36 2010


@<TRIPOS>MOLECULE
frag4-445-119/150395
   40    40     1     1     1
SMALL
USER_CHARGES


@<TRIPOS>ATOM
      1 C1          1.3190    1.0351   -0.1442 C.3        1 <1>        0.000
      2 C2          0.6696    0.3194    1.0203 C.3        1 <1>        0.000
      3 C3          1.6919    0.1987   -1.3586 C.3        1 <1>        0.000
      4 C4         -0.2147    0.9641    2.0547 C.3        1 <1>        0.000
      5 C6          0.7411   -0.8819   -1.8736 C.3        1 <1>        0.000
      6 C20        -3.6352    1.3140    0.2941 C.3        1 <1>        0.000
      7 C9         -1.3651    1.8721    1.7111 C.3        1 <1>        0.000
      8 C11        -0.7446   -0.6760   -2.0187 C.3        1 <1>        0.000
      9 C13        -2.1838    1.5604    0.5074 C.3        1 <1>        0.000
     10 C16        -1.7549   -1.2748   -1.1032 C.3        1 <1>        0.000
     11 O8         -3.0547   -1.3581   -1.1820 O.3        1 <1>        0.000
     12 C24        -4.1884    1.5723   -1.0850 C.3        1 <1>        0.000
     13 C28        -3.7106   -0.7093   -2.2448 C.3        1 <1>        0.000
     14 C31        -3.7139    0.7958   -2.2881 C.3        1 <1>        0.000
     15 H           2.2588    1.4311    0.2405 H.spc      1 <1>        0.000
     16 H           0.5797    1.7540   -0.4974 H.spc      1 <1>        0.000
     17 H           1.5322    0.0148    1.6129 H.spc      1 <1>        0.000
     18 H          -0.0207   -0.3581    0.5177 H.spc      1 <1>        0.000
     19 H           2.5799   -0.3504   -1.0455 H.spc      1 <1>        0.000
     20 H           1.7491    0.9189   -2.1748 H.spc      1 <1>        0.000
     21 H          -0.7067    0.1113    2.5224 H.spc      1 <1>        0.000
     22 H           0.4703    1.6261    2.5845 H.spc      1 <1>        0.000
     23 H           1.0704   -1.0291   -2.9022 H.spc      1 <1>        0.000
     24 H           0.8085   -1.6541   -1.1073 H.spc      1 <1>        0.000
     25 H          -3.7823    0.2493    0.4752 H.spc      1 <1>        0.000
     26 H          -4.1518    2.0115    0.9534 H.spc      1 <1>        0.000
     27 H          -0.9103    2.8405    1.5025 H.spc      1 <1>        0.000
     28 H          -2.0535    1.7894    2.5522 H.spc      1 <1>        0.000
     29 H          -0.8599    0.3933   -1.8412 H.spc      1 <1>        0.000
     30 H          -0.9645   -1.1580   -2.9713 H.spc      1 <1>        0.000
     31 H          -1.8086    0.5581    0.3009 H.spc      1 <1>        0.000
     32 H          -2.0949    2.5151   -0.0111 H.spc      1 <1>        0.000
     33 H          -1.6663   -0.5899   -0.2599 H.spc      1 <1>        0.000
     34 H          -1.4972   -2.3285   -1.2105 H.spc      1 <1>        0.000
     35 H          -5.2394    1.2969   -0.9977 H.spc      1 <1>        0.000
     36 H          -3.8801    2.5955   -1.2997 H.spc      1 <1>        0.000
     37 H          -3.1680   -1.0154   -3.1392 H.spc      1 <1>        0.000
     38 H          -4.7588   -0.9902   -2.1422 H.spc      1 <1>        0.000
     39 H          -4.4220    1.0484   -3.0773 H.spc      1 <1>        0.000
     40 H          -2.6653    1.0717   -2.3996 H.spc      1 <1>        0.000
@<TRIPOS>BOND
     1    8   10 1  
     2    1    2 1  
     3    1    3 1  
     4    5    8 1  
     5    4    7 1  
     6    3    5 1  
     7    2    4 1  
     8    7    9 1  
     9   13   14 1  
    10   12   14 1  
    11   11   13 1  
    12    6   12 1  
    13    9    6 1  
    14   10   11 1  
    15    1   15 1  
    16    1   16 1  
    17    2   17 1  
    18    2   18 1  
    19    3   19 1  
    20    3   20 1  
    21    4   21 1  
    22    4   22 1  
    23    5   23 1  
    24    5   24 1  
    25    6   25 1  
    26    6   26 1  
    27    7   27 1  
    28    7   28 1  
    29    8   29 1  
    30    8   30 1  
    31    9   31 1  
    32    9   32 1  
    33   10   33 1  
    34   10   34 1  
    35   12   35 1  
    36   12   36 1  
    37   13   37 1  
    38   13   38 1  
    39   14   39 1  
    40   14   40 1  
# Name:          frag4-445-119/150395
# Creation time: Sat Jun  5 12:53:36 2010


@<TRIPOS>MOLECULE
frag4-445-119/150395
   40    40     1     1     1
SMALL
USER_CHARGES


@<TRIPOS>ATOM
      1 C1          1.5872    0.6649   -0.1143 C.3        1 <1>        0.000
      2 C2          1.0482    1.1332    1.2154 C.3        1 <1>        0.000
      3 C3          0.7222   -0.0580   -1.1122 C.3        1 <1>        0.000
      4 C4          0.1795    2.3639    1.3927 C.3        1 <1>        0.000
      5 C6         -0.1271   -1.2500   -0.7083 C.3        1 <1>        0.000
      6 C20        -3.6360    1.5793    0.7210 C.3        1 <1>        0.000
      7 C9         -1.2350    2.1507    1.8586 C.3        1 <1>        0.000
      8 C11        -0.8945   -1.9665   -1.7939 C.3        1 <1>        0.000
      9 C13        -2.1623    1.5446    0.8794 C.3        1 <1>        0.000
     10 C16        -1.3933   -1.0679   -2.8314 C.3        1 <1>        0.000
     11 O8         -2.4864   -0.4117   -3.1249 O.3        1 <1>        0.000
     12 C24        -4.1395    1.1132   -0.6210 C.3        1 <1>        0.000
     13 C28        -3.6823   -0.7276   -2.4596 C.3        1 <1>        0.000
     14 C31        -3.9249   -0.3362   -1.0122 C.3        1 <1>        0.000
     15 H           2.3388   -0.0757    0.1591 H.spc      1 <1>        0.000
     16 H           1.8512    1.5907   -0.6255 H.spc      1 <1>        0.000
     17 H           1.9535    1.3974    1.7619 H.spc      1 <1>        0.000
     18 H           0.3779    0.3228    1.5018 H.spc      1 <1>        0.000
     19 H           1.4364   -0.4756   -1.8218 H.spc      1 <1>        0.000
     20 H          -0.0086    0.6919   -1.4150 H.spc      1 <1>        0.000
     21 H           0.6606    2.9541    2.1726 H.spc      1 <1>        0.000
     22 H           0.0989    2.8126    0.4026 H.spc      1 <1>        0.000
     23 H           0.5730   -1.9857   -0.3123 H.spc      1 <1>        0.000
     24 H          -0.8830   -0.8529   -0.0308 H.spc      1 <1>        0.000
     25 H          -4.0502    0.9011    1.4670 H.spc      1 <1>        0.000
     26 H          -3.9411    2.6201    0.8290 H.spc      1 <1>        0.000
     27 H          -1.6336    3.1403    2.0822 H.spc      1 <1>        0.000
     28 H          -1.1776    1.4535    2.6945 H.spc      1 <1>        0.000
     29 H          -0.2147   -2.6746   -2.2678 H.spc      1 <1>        0.000
     30 H          -1.7559   -2.4462   -1.3291 H.spc      1 <1>        0.000
     31 H          -2.0438    0.4970    1.1560 H.spc      1 <1>        0.000
     32 H          -1.8810    2.1199   -0.0026 H.spc      1 <1>        0.000
     33 H          -1.4629   -1.8082   -3.6284 H.spc      1 <1>        0.000
     34 H          -0.7853   -0.2036   -2.5643 H.spc      1 <1>        0.000
     35 H          -5.2214    1.2392   -0.5784 H.spc      1 <1>        0.000
     36 H          -3.5760    1.6919   -1.3529 H.spc      1 <1>        0.000
     37 H          -4.4373   -0.1639   -3.0077 H.spc      1 <1>        0.000
     38 H          -3.6813   -1.8173   -2.4339 H.spc      1 <1>        0.000
     39 H          -3.0007   -0.6130   -0.5049 H.spc      1 <1>        0.000
     40 H          -4.8689   -0.8202   -0.7620 H.spc      1 <1>        0.000
@<TRIPOS>BOND
     1    8   10 1  
     2    1    2 1  
     3    1    3 1  
     4    5    8 1  
     5    4    7 1  
     6    3    5 1  
     7    2    4 1  
     8    7    9 1  
     9   13   14 1  
    10   12   14 1  
    11   11   13 1  
    12    6   12 1  
    13    9    6 1  
    14   10   11 1  
    15    1   15 1  
    16    1   16 1  
    17    2   17 1  
    18    2   18 1  
    19    3   19 1  
    20    3   20 1  
    21    4   21 1  
    22    4   22 1  
    23    5   23 1  
    24    5   24 1  
    25    6   25 1  
    26    6   26 1  
    27    7   27 1  
    28    7   28 1  
    29    8   29 1  
    30    8   30 1  
    31    9   31 1  
    32    9   32 1  
    33   10   33 1  
    34   10   34 1  
    35   12   35 1  
    36   12   36 1  
    37   13   37 1  
    38   13   38 1  
    39   14   39 1  
    40   14   40 1  
# Name:          frag4-445-119/150395
# Creation time: Sat Jun  5 12:53:36 2010


@<TRIPOS>MOLECULE
frag4-445-119/150395
   40    40     1     1     1
SMALL
USER_CHARGES


@<TRIPOS>ATOM
      1 C1          1.3519    0.4302    0.1436 C.3        1 <1>        0.000
      2 C2          0.3599    0.0599    1.2229 C.3        1 <1>        0.000
      3 C3          0.8564    0.9503   -1.1813 C.3        1 <1>        0.000
      4 C4         -0.2551    1.0874    2.1294 C.3        1 <1>        0.000
      5 C6         -0.2263    0.1875   -1.9088 C.3        1 <1>        0.000
      6 C20        -3.3026    1.5168    0.5811 C.3        1 <1>        0.000
      7 C9         -0.8970    2.3329    1.5959 C.3        1 <1>        0.000
      8 C11        -0.3753   -1.3055   -1.8140 C.3        1 <1>        0.000
      9 C13        -1.9672    2.1858    0.5621 C.3        1 <1>        0.000
     10 C16        -1.5524   -1.8940   -2.4908 C.3        1 <1>        0.000
     11 O8         -2.8517   -1.7936   -2.4798 O.3        1 <1>        0.000
     12 C24        -4.0746    1.4510   -0.7143 C.3        1 <1>        0.000
     13 C28        -3.4800   -0.9681   -1.5115 C.3        1 <1>        0.000
     14 C31        -3.7303    0.4915   -1.8453 C.3        1 <1>        0.000
     15 H           1.8549   -0.5057   -0.0997 H.spc      1 <1>        0.000
     16 H           1.9224    1.2569    0.5670 H.spc      1 <1>        0.000
     17 H           0.9422   -0.5633    1.9017 H.spc      1 <1>        0.000
     18 H          -0.4912   -0.3296    0.6643 H.spc      1 <1>        0.000
     19 H           1.7225    0.9072   -1.8417 H.spc      1 <1>        0.000
     20 H           0.4129    1.9198   -0.9544 H.spc      1 <1>        0.000
     21 H          -1.0813    0.5537    2.5992 H.spc      1 <1>        0.000
     22 H           0.5914    1.4613    2.7053 H.spc      1 <1>        0.000
     23 H          -1.1435    0.5594   -1.4522 H.spc      1 <1>        0.000
     24 H           0.0180    0.3478   -2.9589 H.spc      1 <1>        0.000
     25 H          -3.1052    0.4805    0.8553 H.spc      1 <1>        0.000
     26 H          -3.9170    2.1124    1.2562 H.spc      1 <1>        0.000
     27 H          -0.0947    2.8830    1.1042 H.spc      1 <1>        0.000
     28 H          -1.3858    2.7955    2.4533 H.spc      1 <1>        0.000
     29 H           0.5000   -1.7288   -2.3068 H.spc      1 <1>        0.000
     30 H          -0.4916   -1.5312   -0.7540 H.spc      1 <1>        0.000
     31 H          -1.4496    1.5281   -0.1362 H.spc      1 <1>        0.000
     32 H          -2.2905    3.2245    0.4929 H.spc      1 <1>        0.000
     33 H          -1.4925   -2.8784   -2.0267 H.spc      1 <1>        0.000
     34 H          -1.3925   -1.4270   -3.4626 H.spc      1 <1>        0.000
     35 H          -5.0603    1.1117   -0.3959 H.spc      1 <1>        0.000
     36 H          -3.8929    2.4296   -1.1585 H.spc      1 <1>        0.000
     37 H          -4.4712   -1.3999   -1.3730 H.spc      1 <1>        0.000
     38 H          -2.7917   -0.9503   -0.6665 H.spc      1 <1>        0.000
     39 H          -4.6083    0.4880   -2.4913 H.spc      1 <1>        0.000
     40 H          -2.7856    0.8561   -2.2487 H.spc      1 <1>        0.000
@<TRIPOS>BOND
     1    8   10 1  
     2    1    2 1  
     3    1    3 1  
     4    5    8 1  
     5    4    7 1  
     6    3    5 1  
     7    2    4 1  
     8    7    9 1  
     9   13   14 1  
    10   12   14 1  
    11   11   13 1  
    12    6   12 1  
    13    9    6 1  
    14   10   11 1  
    15    1   15 1  
    16    1   16 1  
    17    2   17 1  
    18    2   18 1  
    19    3   19 1  
    20    3   20 1  
    21    4   21 1  
    22    4   22 1  
    23    5   23 1  
    24    5   24 1  
    25    6   25 1  
    26    6   26 1  
    27    7   27 1  
    28    7   28 1  
    29    8   29 1  
    30    8   30 1  
    31    9   31 1  
    32    9   32 1  
    33   10   33 1  
    34   10   34 1  
    35   12   35 1  
    36   12   36 1  
    37   13   37 1  
    38   13   38 1  
    39   14   39 1  
    40   14   40 1  
# Name:          frag4-445-119/150395 -- energy: -6.549118
# Creation time: Sat Jun  5 12:53:36 2010


@<TRIPOS>MOLECULE
frag4-445-119/150395 -- energy: -6.549118
   40    40     1     1     1
SMALL
USER_CHARGES


@<TRIPOS>ATOM
      1 C1          1.2846   -0.0343    0.6222 C.3        1 <1>        0.000
      2 C2          0.2946    0.7452    1.4972 C.3        1 <1>        0.000
      3 C3          1.0018   -0.0823   -0.8738 C.3        1 <1>        0.000
      4 C4          0.0887    2.2398    1.2120 C.3        1 <1>        0.000
      5 C6          0.0951   -1.1494   -1.4422 C.3        1 <1>        0.000
      6 C20        -3.5008    1.5009    1.1372 C.3        1 <1>        0.000
      7 C9         -1.1949    2.8978    1.6932 C.3        1 <1>        0.000
      8 C11        -0.4766   -0.8622   -2.8109 C.3        1 <1>        0.000
      9 C13        -2.3761    2.4727    0.8677 C.3        1 <1>        0.000
     10 C16        -1.6716   -1.6621   -3.1705 C.3        1 <1>        0.000
     11 O8         -2.9473   -1.6065   -3.0110 O.3        1 <1>        0.000
     12 C24        -4.0391    0.8516   -0.1388 C.3        1 <1>        0.000
     13 C28        -3.5665   -0.5012   -2.3523 C.3        1 <1>        0.000
     14 C31        -3.1364   -0.0780   -0.9406 C.3        1 <1>        0.000
     15 H           1.2346   -1.0673    0.9665 H.spc      1 <1>        0.000
     16 H           2.2404    0.4792    0.7267 H.spc      1 <1>        0.000
     17 H           0.7071    0.7005    2.5051 H.spc      1 <1>        0.000
     18 H          -0.6752    0.2827    1.3134 H.spc      1 <1>        0.000
     19 H           1.9728   -0.2825   -1.3267 H.spc      1 <1>        0.000
     20 H           0.4824    0.8532   -1.0814 H.spc      1 <1>        0.000
     21 H           0.8891    2.7465    1.7511 H.spc      1 <1>        0.000
     22 H           0.0623    2.3224    0.1255 H.spc      1 <1>        0.000
     23 H           0.7026   -2.0487   -1.5439 H.spc      1 <1>        0.000
     24 H          -0.7539   -1.2270   -0.7631 H.spc      1 <1>        0.000
     25 H          -3.1123    0.7088    1.7773 H.spc      1 <1>        0.000
     26 H          -4.3173    2.0545    1.6009 H.spc      1 <1>        0.000
     27 H          -1.0829    3.9784    1.6040 H.spc      1 <1>        0.000
     28 H          -1.3701    2.5973    2.7262 H.spc      1 <1>        0.000
     29 H          -0.7859    0.1830   -2.8100 H.spc      1 <1>        0.000
     30 H           0.2990   -1.1120   -3.5349 H.spc      1 <1>        0.000
     31 H          -1.8574    1.9328    0.0755 H.spc      1 <1>        0.000
     32 H          -2.9402    3.4054    0.8666 H.spc      1 <1>        0.000
     33 H          -1.4845   -2.5002   -2.4992 H.spc      1 <1>        0.000
     34 H          -1.6569   -1.4593   -4.2414 H.spc      1 <1>        0.000
     35 H          -4.8618    0.2199    0.1962 H.spc      1 <1>        0.000
     36 H          -4.2457    1.6856   -0.8095 H.spc      1 <1>        0.000
     37 H          -3.3078    0.3554   -2.9747 H.spc      1 <1>        0.000
     38 H          -4.6032   -0.8145   -2.2293 H.spc      1 <1>        0.000
     39 H          -2.2137    0.4839   -1.0855 H.spc      1 <1>        0.000
     40 H          -3.1080   -1.0044   -0.3669 H.spc      1 <1>        0.000
@<TRIPOS>BOND
     1    8   10 1  
     2    1    2 1  
     3    1    3 1  
     4    5    8 1  
     5    4    7 1  
     6    3    5 1  
     7    2    4 1  
     8    7    9 1  
     9   13   14 1  
    10   12   14 1  
    11   11   13 1  
    12    6   12 1  
    13    9    6 1  
    14   10   11 1  
    15    1   15 1  
    16    1   16 1  
    17    2   17 1  
    18    2   18 1  
    19    3   19 1  
    20    3   20 1  
    21    4   21 1  
    22    4   22 1  
    23    5   23 1  
    24    5   24 1  
    25    6   25 1  
    26    6   26 1  
    27    7   27 1  
    28    7   28 1  
    29    8   29 1  
    30    8   30 1  
    31    9   31 1  
    32    9   32 1  
    33   10   33 1  
    34   10   34 1  
    35   12   35 1  
    36   12   36 1  
    37   13   37 1  
    38   13   38 1  
    39   14   39 1  
    40   14   40 1  
# Name:          frag4-445-119/150395 -- energy: -7.521251
# Creation time: Sat Jun  5 12:53:36 2010


@<TRIPOS>MOLECULE
frag4-445-119/150395 -- energy: -7.521251
   40    40     1     1     1
SMALL
USER_CHARGES


@<TRIPOS>ATOM
      1 C1          1.1248   -0.3484    0.6398 C.3        1 <1>        0.000
      2 C2          1.0422    0.8801    1.5561 C.3        1 <1>        0.000
      3 C3          1.4848   -0.1705   -0.8270 C.3        1 <1>        0.000
      4 C4         -0.0605    1.8930    1.3389 C.3        1 <1>        0.000
      5 C6          0.4286    0.0660   -1.8937 C.3        1 <1>        0.000
      6 C20        -3.2658    2.0522   -0.6781 C.3        1 <1>        0.000
      7 C9         -1.4133    1.3127    1.1205 C.3        1 <1>        0.000
      8 C11        -0.3839   -1.0819   -2.4033 C.3        1 <1>        0.000
      9 C13        -2.4648    2.1912    0.5779 C.3        1 <1>        0.000
     10 C16        -1.7461   -0.7560   -2.8673 C.3        1 <1>        0.000
     11 O8         -2.9840   -0.7958   -2.4133 O.3        1 <1>        0.000
     12 C24        -4.4259    1.0952   -0.5529 C.3        1 <1>        0.000
     13 C28        -3.2776   -1.2344   -1.0787 C.3        1 <1>        0.000
     14 C31        -4.2028   -0.3714   -0.2295 C.3        1 <1>        0.000
     15 H           0.1121   -0.7514    0.6278 H.spc      1 <1>        0.000
     16 H           1.9381   -0.9454    1.0524 H.spc      1 <1>        0.000
     17 H           1.9651    1.4291    1.3693 H.spc      1 <1>        0.000
     18 H           0.8550    0.4738    2.5501 H.spc      1 <1>        0.000
     19 H           1.9161   -1.1327   -1.1030 H.spc      1 <1>        0.000
     20 H           2.0691    0.7496   -0.8372 H.spc      1 <1>        0.000
     21 H          -0.1187    2.4943    2.2462 H.spc      1 <1>        0.000
     22 H           0.1942    2.4465    0.4351 H.spc      1 <1>        0.000
     23 H          -0.2973    0.7261   -1.4189 H.spc      1 <1>        0.000
     24 H           0.9890    0.4120   -2.7622 H.spc      1 <1>        0.000
     25 H          -3.6764    3.0340   -0.9139 H.spc      1 <1>        0.000
     26 H          -2.6009    1.6604   -1.4478 H.spc      1 <1>        0.000
     27 H          -1.7646    1.0188    2.1096 H.spc      1 <1>        0.000
     28 H          -1.2752    0.5318    0.3727 H.spc      1 <1>        0.000
     29 H           0.1490   -1.4726   -3.2702 H.spc      1 <1>        0.000
     30 H          -0.5026   -1.7684   -1.5650 H.spc      1 <1>        0.000
     31 H          -1.8792    3.0799    0.3426 H.spc      1 <1>        0.000
     32 H          -3.2446    2.0535    1.3269 H.spc      1 <1>        0.000
     33 H          -1.8407   -1.5667   -3.5898 H.spc      1 <1>        0.000
     34 H          -1.6350    0.3283   -2.8627 H.spc      1 <1>        0.000
     35 H          -4.9859    1.4712    0.3033 H.spc      1 <1>        0.000
     36 H          -4.8640    1.0809   -1.5509 H.spc      1 <1>        0.000
     37 H          -3.7956   -2.1864   -1.1945 H.spc      1 <1>        0.000
     38 H          -2.3207   -1.2328   -0.5567 H.spc      1 <1>        0.000
     39 H          -3.7224   -0.3548    0.7488 H.spc      1 <1>        0.000
     40 H          -5.1849   -0.8236   -0.3682 H.spc      1 <1>        0.000
@<TRIPOS>BOND
     1    8   10 1  
     2    1    2 1  
     3    1    3 1  
     4    5    8 1  
     5    4    7 1  
     6    3    5 1  
     7    2    4 1  
     8    7    9 1  
     9   13   14 1  
    10   12   14 1  
    11   11   13 1  
    12    6   12 1  
    13    9    6 1  
    14   10   11 1  
    15    1   15 1  
    16    1   16 1  
    17    2   17 1  
    18    2   18 1  
    19    3   19 1  
    20    3   20 1  
    21    4   21 1  
    22    4   22 1  
    23    5   23 1  
    24    5   24 1  
    25    6   25 1  
    26    6   26 1  
    27    7   27 1  
    28    7   28 1  
    29    8   29 1  
    30    8   30 1  
    31    9   31 1  
    32    9   32 1  
    33   10   33 1  
    34   10   34 1  
    35   12   35 1  
    36   12   36 1  
    37   13   37 1  
    38   13   38 1  
    39   14   39 1  
    40   14   40 1  
# Name:          frag4-445-119/150395 -- energy: -6.581324
# Creation time: Sat Jun  5 12:53:36 2010


@<TRIPOS>MOLECULE
frag4-445-119/150395 -- energy: -6.581324
   40    40     1     1     1
SMALL
USER_CHARGES


@<TRIPOS>ATOM
      1 C1          0.9440   -0.1000    0.9891 C.3        1 <1>        0.000
      2 C2          1.2248    1.2464    1.6102 C.3        1 <1>        0.000
      3 C3          0.9564   -0.1697   -0.5250 C.3        1 <1>        0.000
      4 C4          0.3841    2.4361    1.1924 C.3        1 <1>        0.000
      5 C6         -0.2023   -0.8550   -1.2156 C.3        1 <1>        0.000
      6 C20        -3.2708    0.9905    0.7620 C.3        1 <1>        0.000
      7 C9         -1.0963    2.4467    1.4716 C.3        1 <1>        0.000
      8 C11        -0.6111   -0.4426   -2.6017 C.3        1 <1>        0.000
      9 C13        -2.0114    1.7493    0.5251 C.3        1 <1>        0.000
     10 C16        -1.7117   -1.2626   -3.1854 C.3        1 <1>        0.000
     11 O8         -2.9409   -1.5703   -2.9383 O.3        1 <1>        0.000
     12 C24        -4.2972    0.9725   -0.3420 C.3        1 <1>        0.000
     13 C28        -3.5756   -1.0881   -1.7687 C.3        1 <1>        0.000
     14 C31        -3.9362    0.3785   -1.6842 C.3        1 <1>        0.000
     15 H          -0.0689   -0.3644    1.2927 H.spc      1 <1>        0.000
     16 H           1.7452   -0.7580    1.3257 H.spc      1 <1>        0.000
     17 H           2.2389    1.4947    1.2972 H.spc      1 <1>        0.000
     18 H           1.0181    1.1149    2.6723 H.spc      1 <1>        0.000
     19 H           1.8352   -0.7622   -0.7794 H.spc      1 <1>        0.000
     20 H           0.9212    0.8663   -0.8619 H.spc      1 <1>        0.000
     21 H           0.7779    3.2673    1.7773 H.spc      1 <1>        0.000
     22 H           0.4567    2.4529    0.1050 H.spc      1 <1>        0.000
     23 H           0.1235   -1.8892   -1.3269 H.spc      1 <1>        0.000
     24 H          -1.0663   -0.6136   -0.5965 H.spc      1 <1>        0.000
     25 H          -2.9653   -0.0476    0.8928 H.spc      1 <1>        0.000
     26 H          -3.7559    1.4863    1.6028 H.spc      1 <1>        0.000
     27 H          -1.3853    3.4965    1.4214 H.spc      1 <1>        0.000
     28 H          -1.2089    1.9148    2.4163 H.spc      1 <1>        0.000
     29 H          -0.9742    0.5831   -2.5376 H.spc      1 <1>        0.000
     30 H           0.2599   -0.5699   -3.2446 H.spc      1 <1>        0.000
     31 H          -1.3614    0.9364    0.2012 H.spc      1 <1>        0.000
     32 H          -2.4091    2.6073   -0.0169 H.spc      1 <1>        0.000
     33 H          -1.2835   -2.2387   -2.9576 H.spc      1 <1>        0.000
     34 H          -1.9065   -0.6260   -4.0485 H.spc      1 <1>        0.000
     35 H          -5.0983    0.3369    0.0354 H.spc      1 <1>        0.000
     36 H          -4.4986    2.0234   -0.5497 H.spc      1 <1>        0.000
     37 H          -4.5288   -1.6152   -1.7279 H.spc      1 <1>        0.000
     38 H          -2.8513   -1.2465   -0.9697 H.spc      1 <1>        0.000
     39 H          -4.8393    0.4792   -2.2862 H.spc      1 <1>        0.000
     40 H          -3.0326    0.9063   -1.9893 H.spc      1 <1>        0.000
@<TRIPOS>BOND
     1    8   10 1  
     2    1    2 1  
     3    1    3 1  
     4    5    8 1  
     5    4    7 1  
     6    3    5 1  
     7    2    4 1  
     8    7    9 1  
     9   13   14 1  
    10   12   14 1  
    11   11   13 1  
    12    6   12 1  
    13    9    6 1  
    14   10   11 1  
    15    1   15 1  
    16    1   16 1  
    17    2   17 1  
    18    2   18 1  
    19    3   19 1  
    20    3   20 1  
    21    4   21 1  
    22    4   22 1  
    23    5   23 1  
    24    5   24 1  
    25    6   25 1  
    26    6   26 1  
    27    7   27 1  
    28    7   28 1  
    29    8   29 1  
    30    8   30 1  
    31    9   31 1  
    32    9   32 1  
    33   10   33 1  
    34   10   34 1  
    35   12   35 1  
    36   12   36 1  
    37   13   37 1  
    38   13   38 1  
    39   14   39 1  
    40   14   40 1  
# Name:          frag4-445-119/150395 -- energy: -7.261074
# Creation time: Sat Jun  5 12:53:36 2010


@<TRIPOS>MOLECULE
frag4-445-119/150395 -- energy: -7.261074
   40    40     1     1     1
SMALL
USER_CHARGES


@<TRIPOS>ATOM
      1 C1          1.0581    1.0000   -0.0141 C.3        1 <1>        0.000
      2 C2          0.5304    0.6493    1.3719 C.3        1 <1>        0.000
      3 C3          0.4505    0.3657   -1.2379 C.3        1 <1>        0.000
      4 C4         -0.1513    1.6849    2.2390 C.3        1 <1>        0.000
      5 C6          0.3524   -1.1373   -1.3318 C.3        1 <1>        0.000
      6 C20        -2.7805    0.7335    0.5677 C.3        1 <1>        0.000
      7 C9         -1.0882    2.6543    1.5846 C.3        1 <1>        0.000
      8 C11        -0.3758   -1.6784   -2.5397 C.3        1 <1>        0.000
      9 C13        -2.2055    2.0995    0.7770 C.3        1 <1>        0.000
     10 C16        -1.8330   -1.9422   -2.3029 C.3        1 <1>        0.000
     11 O8         -2.9785   -1.3355   -2.2910 O.3        1 <1>        0.000
     12 C24        -4.0544    0.6986   -0.2268 C.3        1 <1>        0.000
     13 C28        -3.0713    0.0417   -2.5712 C.3        1 <1>        0.000
     14 C31        -3.9971    0.8978   -1.7356 C.3        1 <1>        0.000
     15 H           2.0893    0.6468   -0.0091 H.spc      1 <1>        0.000
     16 H           0.8440    2.0630   -0.1249 H.spc      1 <1>        0.000
     17 H           1.4263    0.3859    1.9341 H.spc      1 <1>        0.000
     18 H          -0.2518   -0.0842    1.1763 H.spc      1 <1>        0.000
     19 H           1.1162    0.6489   -2.0532 H.spc      1 <1>        0.000
     20 H          -0.5840    0.7091   -1.2403 H.spc      1 <1>        0.000
     21 H          -0.7679    1.1154    2.9344 H.spc      1 <1>        0.000
     22 H           0.6556    2.2954    2.6443 H.spc      1 <1>        0.000
     23 H           1.3754   -1.5075   -1.3995 H.spc      1 <1>        0.000
     24 H          -0.2160   -1.4623   -0.4604 H.spc      1 <1>        0.000
     25 H          -2.0418    0.1631    0.0047 H.spc      1 <1>        0.000
     26 H          -3.0133    0.3345    1.5550 H.spc      1 <1>        0.000
     27 H          -0.4765    3.2224    0.8837 H.spc      1 <1>        0.000
     28 H          -1.5618    3.1983    2.4018 H.spc      1 <1>        0.000
     29 H          -0.3060   -0.9253   -3.3246 H.spc      1 <1>        0.000
     30 H           0.0881   -2.6302   -2.7985 H.spc      1 <1>        0.000
     31 H          -1.7756    2.2462   -0.2138 H.spc      1 <1>        0.000
     32 H          -3.0362    2.5406    1.3279 H.spc      1 <1>        0.000
     33 H          -1.7575   -2.0796   -1.2242 H.spc      1 <1>        0.000
     34 H          -2.0044   -2.5067   -3.2195 H.spc      1 <1>        0.000
     35 H          -4.4378   -0.3131   -0.0939 H.spc      1 <1>        0.000
     36 H          -4.6367    1.5424    0.1435 H.spc      1 <1>        0.000
     37 H          -2.0734    0.4358   -2.3787 H.spc      1 <1>        0.000
     38 H          -3.4739    0.0965   -3.5827 H.spc      1 <1>        0.000
     39 H          -4.9975    0.6417   -2.0845 H.spc      1 <1>        0.000
     40 H          -3.6228    1.9134   -1.8644 H.spc      1 <1>        0.000
@<TRIPOS>BOND
     1    8   10 1  
     2    1    2 1  
     3    1    3 1  
     4    5    8 1  
     5    4    7 1  
     6    3    5 1  
     7    2    4 1  
     8    7    9 1  
     9   13   14 1  
    10   12   14 1  
    11   11   13 1  
    12    6   12 1  
    13    9    6 1  
    14   10   11 1  
    15    1   15 1  
    16    1   16 1  
    17    2   17 1  
    18    2   18 1  
    19    3   19 1  
    20    3   20 1  
    21    4   21 1  
    22    4   22 1  
    23    5   23 1  
    24    5   24 1  
    25    6   25 1  
    26    6   26 1  
    27    7   27 1  
    28    7   28 1  
    29    8   29 1  
    30    8   30 1  
    31    9   31 1  
    32    9   32 1  
    33   10   33 1  
    34   10   34 1  
    35   12   35 1  
    36   12   36 1  
    37   13   37 1  
    38   13   38 1  
    39   14   39 1  
    40   14   40 1  
# Name:          frag4-445-119/150395 -- energy: -7.559453
# Creation time: Sat Jun  5 12:53:36 2010


@<TRIPOS>MOLECULE
frag4-445-119/150395 -- energy: -7.559453
   40    40     1     1     1
SMALL
USER_CHARGES


@<TRIPOS>ATOM
      1 C1          1.8017    0.6784    0.1237 C.3        1 <1>        0.000
      2 C2          1.0361    0.6540    1.4419 C.3        1 <1>        0.000
      3 C3          1.1865    0.2792   -1.2112 C.3        1 <1>        0.000
      4 C4         -0.1138    1.5864    1.7569 C.3        1 <1>        0.000
      5 C6          0.3304   -0.9448   -1.3608 C.3        1 <1>        0.000
      6 C20        -3.7349    2.2915    0.3519 C.3        1 <1>        0.000
      7 C9         -1.3577    1.2797    1.0100 C.3        1 <1>        0.000
      8 C11        -0.3211   -1.2577   -2.6793 C.3        1 <1>        0.000
      9 C13        -2.7147    1.8314    1.3513 C.3        1 <1>        0.000
     10 C16        -1.6829   -1.8432   -2.6201 C.3        1 <1>        0.000
     11 O8         -2.8814   -1.4866   -2.2416 O.3        1 <1>        0.000
     12 C24        -4.6184    1.2687   -0.3450 C.3        1 <1>        0.000
     13 C28        -2.8957   -0.1916   -1.6257 C.3        1 <1>        0.000
     14 C31        -4.1783    0.5867   -1.6627 C.3        1 <1>        0.000
     15 H           2.5722   -0.0777    0.2741 H.spc      1 <1>        0.000
     16 H           2.0188    1.7377   -0.0138 H.spc      1 <1>        0.000
     17 H           1.7934    0.9453    2.1698 H.spc      1 <1>        0.000
     18 H           0.5596   -0.3262    1.4296 H.spc      1 <1>        0.000
     19 H           2.0524    0.0633   -1.8371 H.spc      1 <1>        0.000
     20 H           0.5020    1.0982   -1.4320 H.spc      1 <1>        0.000
     21 H          -0.3377    1.4781    2.8181 H.spc      1 <1>        0.000
     22 H           0.1963    2.5916    1.4715 H.spc      1 <1>        0.000
     23 H           1.0157   -1.7759   -1.1940 H.spc      1 <1>        0.000
     24 H          -0.5042   -0.7756   -0.6804 H.spc      1 <1>        0.000
     25 H          -4.4265    2.9069    0.9273 H.spc      1 <1>        0.000
     26 H          -3.1511    2.7435   -0.4499 H.spc      1 <1>        0.000
     27 H          -1.4845    0.2123    1.1905 H.spc      1 <1>        0.000
     28 H          -1.1618    1.7219    0.0332 H.spc      1 <1>        0.000
     29 H          -0.4236   -0.3054   -3.1997 H.spc      1 <1>        0.000
     30 H           0.3096   -2.0066   -3.1582 H.spc      1 <1>        0.000
     31 H          -2.4648    2.7568    1.8702 H.spc      1 <1>        0.000
     32 H          -3.2068    0.9715    1.8058 H.spc      1 <1>        0.000
     33 H          -1.4917   -2.5577   -1.8195 H.spc      1 <1>        0.000
     34 H          -1.8747   -1.8564   -3.6930 H.spc      1 <1>        0.000
     35 H          -4.6770    0.4460    0.3676 H.spc      1 <1>        0.000
     36 H          -5.5030    1.8386   -0.6291 H.spc      1 <1>        0.000
     37 H          -2.6938   -0.3696   -0.5695 H.spc      1 <1>        0.000
     38 H          -2.1769    0.4054   -2.1869 H.spc      1 <1>        0.000
     39 H          -4.9596   -0.1348   -1.9019 H.spc      1 <1>        0.000
     40 H          -4.0187    1.3931   -2.3784 H.spc      1 <1>        0.000
@<TRIPOS>BOND
     1    8   10 1  
     2    1    2 1  
     3    1    3 1  
     4    5    8 1  
     5    4    7 1  
     6    3    5 1  
     7    2    4 1  
     8    7    9 1  
     9   13   14 1  
    10   12   14 1  
    11   11   13 1  
    12    6   12 1  
    13    9    6 1  
    14   10   11 1  
    15    1   15 1  
    16    1   16 1  
    17    2   17 1  
    18    2   18 1  
    19    3   19 1  
    20    3   20 1  
    21    4   21 1  
    22    4   22 1  
    23    5   23 1  
    24    5   24 1  
    25    6   25 1  
    26    6   26 1  
    27    7   27 1  
    28    7   28 1  
    29    8   29 1  
    30    8   30 1  
    31    9   31 1  
    32    9   32 1  
    33   10   33 1  
    34   10   34 1  
    35   12   35 1  
    36   12   36 1  
    37   13   37 1  
    38   13   38 1  
    39   14   39 1  
    40   14   40 1  
# Name:          frag4-445-119/150395 -- energy: -4.546015
# Creation time: Sat Jun  5 12:53:36 2010


@<TRIPOS>MOLECULE
frag4-445-119/150395 -- energy: -4.546015
   40    40     1     1     1
SMALL
USER_CHARGES


@<TRIPOS>ATOM
      1 C1          1.2060    0.0467    0.6575 C.3        1 <1>        0.000
      2 C2          0.7093    1.4650    0.4723 C.3        1 <1>        0.000
      3 C3          1.2687   -0.9660   -0.4518 C.3        1 <1>        0.000
      4 C4         -0.0425    2.0683    1.6247 C.3        1 <1>        0.000
      5 C6          0.0417   -1.3793   -1.2193 C.3        1 <1>        0.000
      6 C20        -3.1019    0.9451    0.9172 C.3        1 <1>        0.000
      7 C9         -1.2621    2.9015    1.3632 C.3        1 <1>        0.000
      8 C11        -0.4162   -0.5087   -2.3587 C.3        1 <1>        0.000
      9 C13        -2.2828    2.1398    0.5954 C.3        1 <1>        0.000
     10 C16        -1.5657   -1.0098   -3.1379 C.3        1 <1>        0.000
     11 O8         -2.8499   -1.1605   -3.0065 O.3        1 <1>        0.000
     12 C24        -4.3045    0.7540    0.0191 C.3        1 <1>        0.000
     13 C28        -3.4322   -0.9421   -1.7454 C.3        1 <1>        0.000
     14 C31        -4.1123    0.3780   -1.4405 C.3        1 <1>        0.000
     15 H           0.4688   -0.3821    1.3364 H.spc      1 <1>        0.000
     16 H           2.2553    0.1887    0.9163 H.spc      1 <1>        0.000
     17 H           0.0080    1.4326   -0.3615 H.spc      1 <1>        0.000
     18 H           1.5984    2.0807    0.3367 H.spc      1 <1>        0.000
     19 H           1.5778   -1.8816    0.0524 H.spc      1 <1>        0.000
     20 H           1.8936   -0.4853   -1.2045 H.spc      1 <1>        0.000
     21 H          -0.4108    1.2125    2.1905 H.spc      1 <1>        0.000
     22 H           0.6666    2.7564    2.0850 H.spc      1 <1>        0.000
     23 H           0.2981   -2.3356   -1.6752 H.spc      1 <1>        0.000
     24 H          -0.7717   -1.3527   -0.4942 H.spc      1 <1>        0.000
     25 H          -2.4618    0.0727    0.7859 H.spc      1 <1>        0.000
     26 H          -3.4773    1.0776    1.9319 H.spc      1 <1>        0.000
     27 H          -0.9678    3.7733    0.7789 H.spc      1 <1>        0.000
     28 H          -1.6945    3.1934    2.3202 H.spc      1 <1>        0.000
     29 H          -0.7367    0.4332   -1.9134 H.spc      1 <1>        0.000
     30 H           0.4214   -0.4502   -3.0538 H.spc      1 <1>        0.000
     31 H          -1.6391    1.7090   -0.1715 H.spc      1 <1>        0.000
     32 H          -3.0730    2.8899    0.5631 H.spc      1 <1>        0.000
     33 H          -1.3027   -2.0669   -3.0987 H.spc      1 <1>        0.000
     34 H          -1.6004   -0.1963   -3.8626 H.spc      1 <1>        0.000
     35 H          -4.8345   -0.0948    0.4511 H.spc      1 <1>        0.000
     36 H          -4.7787    1.7349   -0.0129 H.spc      1 <1>        0.000
     37 H          -4.2318   -1.6803   -1.6838 H.spc      1 <1>        0.000
     38 H          -2.5950   -0.9838   -1.0486 H.spc      1 <1>        0.000
     39 H          -5.1172    0.2902   -1.8535 H.spc      1 <1>        0.000
     40 H          -3.4585    1.1452   -1.8553 H.spc      1 <1>        0.000
@<TRIPOS>BOND
     1    8   10 1  
     2    1    2 1  
     3    1    3 1  
     4    5    8 1  
     5    4    7 1  
     6    3    5 1  
     7    2    4 1  
     8    7    9 1  
     9   13   14 1  
    10   12   14 1  
    11   11   13 1  
    12    6   12 1  
    13    9    6 1  
    14   10   11 1  
    15    1   15 1  
    16    1   16 1  
    17    2   17 1  
    18    2   18 1  
    19    3   19 1  
    20    3   20 1  
    21    4   21 1  
    22    4   22 1  
    23    5   23 1  
    24    5   24 1  
    25    6   25 1  
    26    6   26 1  
    27    7   27 1  
    28    7   28 1  
    29    8   29 1  
    30    8   30 1  
    31    9   31 1  
    32    9   32 1  
    33   10   33 1  
    34   10   34 1  
    35   12   35 1  
    36   12   36 1  
    37   13   37 1  
    38   13   38 1  
    39   14   39 1  
    40   14   40 1  
# Name:          frag4-445-119/150395 -- energy: -6.625118
# Creation time: Sat Jun  5 12:53:36 2010


@<TRIPOS>MOLECULE
frag4-445-119/150395 -- energy: -6.625118
   40    40     1     1     1
SMALL
USER_CHARGES


@<TRIPOS>ATOM
      1 C1          1.0812   -0.0007    0.7104 C.3        1 <1>        0.000
      2 C2          1.3349    1.4496    1.0230 C.3        1 <1>        0.000
      3 C3          0.1282   -0.3254   -0.4068 C.3        1 <1>        0.000
      4 C4          0.1898    2.4330    1.0458 C.3        1 <1>        0.000
      5 C6          0.5726   -1.1523   -1.5843 C.3        1 <1>        0.000
      6 C20        -3.6045    1.2101    0.9575 C.3        1 <1>        0.000
      7 C9         -1.1223    2.0824    1.6995 C.3        1 <1>        0.000
      8 C11        -0.2181   -1.0158   -2.8666 C.3        1 <1>        0.000
      9 C13        -2.3012    1.9235    0.7950 C.3        1 <1>        0.000
     10 C16        -1.5373   -1.6492   -2.8980 C.3        1 <1>        0.000
     11 O8         -2.7838   -1.3231   -2.6288 O.3        1 <1>        0.000
     12 C24        -4.5094    1.1427   -0.2508 C.3        1 <1>        0.000
     13 C28        -3.0476   -0.0723   -2.0529 C.3        1 <1>        0.000
     14 C31        -4.3269    0.0295   -1.2536 C.3        1 <1>        0.000
     15 H           0.6249   -0.4149    1.6095 H.spc      1 <1>        0.000
     16 H           2.0444   -0.4014    0.3947 H.spc      1 <1>        0.000
     17 H           1.9722    1.7947    0.2088 H.spc      1 <1>        0.000
     18 H           1.7082    1.4447    2.0471 H.spc      1 <1>        0.000
     19 H          -0.1141    0.6451   -0.8399 H.spc      1 <1>        0.000
     20 H          -0.6419   -0.9327    0.0689 H.spc      1 <1>        0.000
     21 H           0.5675    3.2645    1.6409 H.spc      1 <1>        0.000
     22 H          -0.0659    2.5651   -0.0055 H.spc      1 <1>        0.000
     23 H           1.5800   -0.8103   -1.8213 H.spc      1 <1>        0.000
     24 H           0.4566   -2.1912   -1.2756 H.spc      1 <1>        0.000
     25 H          -3.3493    0.1772    1.1944 H.spc      1 <1>        0.000
     26 H          -4.1575    1.7713    1.7107 H.spc      1 <1>        0.000
     27 H          -1.3609    2.9159    2.3602 H.spc      1 <1>        0.000
     28 H          -0.9727    1.1113    2.1713 H.spc      1 <1>        0.000
     29 H          -0.3951    0.0518   -2.9972 H.spc      1 <1>        0.000
     30 H           0.3715   -1.5133   -3.6366 H.spc      1 <1>        0.000
     31 H          -1.8510    1.2989    0.0234 H.spc      1 <1>        0.000
     32 H          -2.6608    2.9525    0.7883 H.spc      1 <1>        0.000
     33 H          -1.3862   -2.3305   -2.0607 H.spc      1 <1>        0.000
     34 H          -1.6386   -1.7096   -3.9816 H.spc      1 <1>        0.000
     35 H          -5.5072    0.9857    0.1588 H.spc      1 <1>        0.000
     36 H          -4.2961    2.0550   -0.8078 H.spc      1 <1>        0.000
     37 H          -2.2332    0.1225   -1.3552 H.spc      1 <1>        0.000
     38 H          -3.1448    0.6319   -2.8792 H.spc      1 <1>        0.000
     39 H          -4.3447   -0.8806   -0.6540 H.spc      1 <1>        0.000
     40 H          -5.0996    0.2091   -2.0011 H.spc      1 <1>        0.000
@<TRIPOS>BOND
     1    8   10 1  
     2    1    2 1  
     3    1    3 1  
     4    5    8 1  
     5    4    7 1  
     6    3    5 1  
     7    2    4 1  
     8    7    9 1  
     9   13   14 1  
    10   12   14 1  
    11   11   13 1  
    12    6   12 1  
    13    9    6 1  
    14   10   11 1  
    15    1   15 1  
    16    1   16 1  
    17    2   17 1  
    18    2   18 1  
    19    3   19 1  
    20    3   20 1  
    21    4   21 1  
    22    4   22 1  
    23    5   23 1  
    24    5   24 1  
    25    6   25 1  
    26    6   26 1  
    27    7   27 1  
    28    7   28 1  
    29    8   29 1  
    30    8   30 1  
    31    9   31 1  
    32    9   32 1  
    33   10   33 1  
    34   10   34 1  
    35   12   35 1  
    36   12   36 1  
    37   13   37 1  
    38   13   38 1  
    39   14   39 1  
    40   14   40 1  
# Name:          frag4-445-119/150395 -- energy: -7.591776
# Creation time: Sat Jun  5 12:53:36 2010


@<TRIPOS>MOLECULE
frag4-445-119/150395 -- energy: -7.591776
   40    40     1     1     1
SMALL
USER_CHARGES


@<TRIPOS>ATOM
      1 C1          1.4394    0.2718    0.6581 C.3        1 <1>        0.000
      2 C2          0.5153    0.5372    1.8230 C.3        1 <1>        0.000
      3 C3          0.9239    0.1935   -0.7591 C.3        1 <1>        0.000
      4 C4         -0.1730    1.8741    2.0191 C.3        1 <1>        0.000
      5 C6         -0.1182   -0.8066   -1.2201 C.3        1 <1>        0.000
      6 C20        -2.9658    1.1451    0.7162 C.3        1 <1>        0.000
      7 C9         -0.7401    2.7016    0.8916 C.3        1 <1>        0.000
      8 C11        -0.6452   -0.5239   -2.6026 C.3        1 <1>        0.000
      9 C13        -2.0801    2.2922    0.3897 C.3        1 <1>        0.000
     10 C16        -1.7409   -1.3382   -3.1763 C.3        1 <1>        0.000
     11 O8         -2.9840   -1.6305   -2.9304 O.3        1 <1>        0.000
     12 C24        -4.1309    0.8403   -0.1884 C.3        1 <1>        0.000
     13 C28        -3.5769   -1.1521   -1.7456 C.3        1 <1>        0.000
     14 C31        -3.8680    0.3273   -1.5859 C.3        1 <1>        0.000
     15 H           1.8193   -0.7313    0.8517 H.spc      1 <1>        0.000
     16 H           2.0984    1.1399    0.6468 H.spc      1 <1>        0.000
     17 H           1.1700    0.4579    2.6909 H.spc      1 <1>        0.000
     18 H          -0.3115   -0.1529    1.6548 H.spc      1 <1>        0.000
     19 H           1.8089   -0.1001   -1.3237 H.spc      1 <1>        0.000
     20 H           0.4160    1.1496   -0.8861 H.spc      1 <1>        0.000
     21 H          -1.0607    1.6066    2.5922 H.spc      1 <1>        0.000
     22 H           0.6296    2.5049    2.4013 H.spc      1 <1>        0.000
     23 H           0.3547   -1.7884   -1.2423 H.spc      1 <1>        0.000
     24 H          -0.9590   -0.7484   -0.5289 H.spc      1 <1>        0.000
     25 H          -2.3231    0.2672    0.6512 H.spc      1 <1>        0.000
     26 H          -3.4152    1.4020    1.6754 H.spc      1 <1>        0.000
     27 H          -0.0523    2.5884    0.0536 H.spc      1 <1>        0.000
     28 H          -0.8561    3.7123    1.2828 H.spc      1 <1>        0.000
     29 H          -1.0692    0.4774   -2.5265 H.spc      1 <1>        0.000
     30 H           0.2040   -0.7212   -3.2569 H.spc      1 <1>        0.000
     31 H          -1.8120    2.0237   -0.6321 H.spc      1 <1>        0.000
     32 H          -2.6797    3.1025    0.8044 H.spc      1 <1>        0.000
     33 H          -1.3241   -2.3142   -2.9279 H.spc      1 <1>        0.000
     34 H          -1.9223   -0.7166   -4.0531 H.spc      1 <1>        0.000
     35 H          -4.6653    0.0310    0.3092 H.spc      1 <1>        0.000
     36 H          -4.6292    1.7989   -0.3330 H.spc      1 <1>        0.000
     37 H          -4.5579   -1.6266   -1.7215 H.spc      1 <1>        0.000
     38 H          -2.8454   -1.3710   -0.9677 H.spc      1 <1>        0.000
     39 H          -4.7880    0.5069   -2.1421 H.spc      1 <1>        0.000
     40 H          -2.9677    0.8414   -1.9225 H.spc      1 <1>        0.000
@<TRIPOS>BOND
     1    8   10 1  
     2    1    2 1  
     3    1    3 1  
     4    5    8 1  
     5    4    7 1  
     6    3    5 1  
     7    2    4 1  
     8    7    9 1  
     9   13   14 1  
    10   12   14 1  
    11   11   13 1  
    12    6   12 1  
    13    9    6 1  
    14   10   11 1  
    15    1   15 1  
    16    1   16 1  
    17    2   17 1  
    18    2   18 1  
    19    3   19 1  
    20    3   20 1  
    21    4   21 1  
    22    4   22 1  
    23    5   23 1  
    24    5   24 1  
    25    6   25 1  
    26    6   26 1  
    27    7   27 1  
    28    7   28 1  
    29    8   29 1  
    30    8   30 1  
    31    9   31 1  
    32    9   32 1  
    33   10   33 1  
    34   10   34 1  
    35   12   35 1  
    36   12   36 1  
    37   13   37 1  
    38   13   38 1  
    39   14   39 1  
    40   14   40 1  
# Name:          frag4-445-119/150395 -- energy: -7.400306
# Creation time: Sat Jun  5 12:53:36 2010


@<TRIPOS>MOLECULE
frag4-445-119/150395 -- energy: -7.400306
   40    40     1     1     1
SMALL
USER_CHARGES


@<TRIPOS>ATOM
      1 C1          1.5277    0.0693    0.7201 C.3        1 <1>        0.000
      2 C2          1.3875    1.4212    1.4010 C.3        1 <1>        0.000
      3 C3          1.1739   -0.0833   -0.7570 C.3        1 <1>        0.000
      4 C4          0.0253    1.9808    1.7730 C.3        1 <1>        0.000
      5 C6         -0.0404   -0.8714   -1.2146 C.3        1 <1>        0.000
      6 C20        -3.6104    2.0863    0.0338 C.3        1 <1>        0.000
      7 C9         -1.1263    1.5753    0.8955 C.3        1 <1>        0.000
      8 C11        -0.4752   -0.7323   -2.6499 C.3        1 <1>        0.000
      9 C13        -2.4959    2.1164    1.0303 C.3        1 <1>        0.000
     10 C16        -1.6854   -1.4879   -3.0355 C.3        1 <1>        0.000
     11 O8         -2.9846   -1.4194   -2.8983 O.3        1 <1>        0.000
     12 C24        -4.3879    0.7904    0.0135 C.3        1 <1>        0.000
     13 C28        -3.5849   -0.3133   -2.2560 C.3        1 <1>        0.000
     14 C31        -3.8676   -0.4002   -0.7664 C.3        1 <1>        0.000
     15 H           0.8143   -0.5715    1.2383 H.spc      1 <1>        0.000
     16 H           2.5943   -0.1503    0.7684 H.spc      1 <1>        0.000
     17 H           1.7673    2.1269    0.6621 H.spc      1 <1>        0.000
     18 H           1.8847    1.2833    2.3611 H.spc      1 <1>        0.000
     19 H           2.0137   -0.6455   -1.1654 H.spc      1 <1>        0.000
     20 H           0.9533    0.9357   -1.0748 H.spc      1 <1>        0.000
     21 H          -0.2001    1.5933    2.7665 H.spc      1 <1>        0.000
     22 H           0.1080    3.0639    1.6826 H.spc      1 <1>        0.000
     23 H           0.2343   -1.9196   -1.0964 H.spc      1 <1>        0.000
     24 H          -0.8722   -0.4897   -0.6226 H.spc      1 <1>        0.000
     25 H          -4.3091    2.8765    0.3086 H.spc      1 <1>        0.000
     26 H          -3.1633    2.2088   -0.9527 H.spc      1 <1>        0.000
     27 H          -1.2579    0.5217    1.1419 H.spc      1 <1>        0.000
     28 H          -0.8200    1.9361   -0.0864 H.spc      1 <1>        0.000
     29 H          -0.7119    0.3214   -2.7976 H.spc      1 <1>        0.000
     30 H           0.3393   -1.1281   -3.2565 H.spc      1 <1>        0.000
     31 H          -2.2910    3.1859    1.0778 H.spc      1 <1>        0.000
     32 H          -2.8979    1.4677    1.8085 H.spc      1 <1>        0.000
     33 H          -1.5277   -2.3368   -2.3702 H.spc      1 <1>        0.000
     34 H          -1.6532   -1.2533   -4.0995 H.spc      1 <1>        0.000
     35 H          -4.3840    0.4565    1.0511 H.spc      1 <1>        0.000
     36 H          -5.3267    1.0461   -0.4778 H.spc      1 <1>        0.000
     37 H          -2.8663    0.4996   -2.3610 H.spc      1 <1>        0.000
     38 H          -4.5637   -0.2105   -2.7246 H.spc      1 <1>        0.000
     39 H          -2.8884   -0.5905   -0.3270 H.spc      1 <1>        0.000
     40 H          -4.6755   -1.1287   -0.6976 H.spc      1 <1>        0.000
@<TRIPOS>BOND
     1    8   10 1  
     2    1    2 1  
     3    1    3 1  
     4    5    8 1  
     5    4    7 1  
     6    3    5 1  
     7    2    4 1  
     8    7    9 1  
     9   13   14 1  
    10   12   14 1  
    11   11   13 1  
    12    6   12 1  
    13    9    6 1  
    14   10   11 1  
    15    1   15 1  
    16    1   16 1  
    17    2   17 1  
    18    2   18 1  
    19    3   19 1  
    20    3   20 1  
    21    4   21 1  
    22    4   22 1  
    23    5   23 1  
    24    5   24 1  
    25    6   25 1  
    26    6   26 1  
    27    7   27 1  
    28    7   28 1  
    29    8   29 1  
    30    8   30 1  
    31    9   31 1  
    32    9   32 1  
    33   10   33 1  
    34   10   34 1  
    35   12   35 1  
    36   12   36 1  
    37   13   37 1  
    38   13   38 1  
    39   14   39 1  
    40   14   40 1  
# Name:          frag4-445-119/150395 -- energy: -6.605622
# Creation time: Sat Jun  5 12:53:36 2010


@<TRIPOS>MOLECULE
frag4-445-119/150395 -- energy: -6.605622
   40    40     1     1     1
SMALL
USER_CHARGES


@<TRIPOS>ATOM
      1 C1          1.3113    0.6040    0.0922 C.3        1 <1>        0.000
      2 C2         -0.0366    0.8436    0.7536 C.3        1 <1>        0.000
      3 C3          1.4268   -0.3793   -1.0909 C.3        1 <1>        0.000
      4 C4         -0.1489    1.9748    1.7557 C.3        1 <1>        0.000
      5 C6          0.2643   -1.3278   -1.4239 C.3        1 <1>        0.000
      6 C20        -3.2235    2.1154    0.1029 C.3        1 <1>        0.000
      7 C9         -1.5265    2.2889    2.2735 C.3        1 <1>        0.000
      8 C11        -0.3531   -1.1553   -2.7922 C.3        1 <1>        0.000
      9 C13        -2.4349    2.7661    1.1942 C.3        1 <1>        0.000
     10 C16        -1.6544   -1.8143   -2.9439 C.3        1 <1>        0.000
     11 O8         -2.9040   -1.4921   -2.7174 O.3        1 <1>        0.000
     12 C24        -3.5776    0.6510    0.2543 C.3        1 <1>        0.000
     13 C28        -3.2275   -0.2097   -2.2166 C.3        1 <1>        0.000
     14 C31        -4.0597   -0.1334   -0.9520 C.3        1 <1>        0.000
     15 H           1.9242    0.1596    0.8764 H.spc      1 <1>        0.000
     16 H           1.5831    1.5714   -0.3302 H.spc      1 <1>        0.000
     17 H          -0.2457   -0.0644    1.3192 H.spc      1 <1>        0.000
     18 H          -0.7130    1.1097   -0.0586 H.spc      1 <1>        0.000
     19 H           2.2463   -1.0422   -0.8132 H.spc      1 <1>        0.000
     20 H           1.5134    0.2616   -1.9683 H.spc      1 <1>        0.000
     21 H           0.4333    1.6646    2.6234 H.spc      1 <1>        0.000
     22 H           0.1860    2.8712    1.2337 H.spc      1 <1>        0.000
     23 H           0.6731   -2.3379   -1.3955 H.spc      1 <1>        0.000
     24 H          -0.5236   -1.1149   -0.7014 H.spc      1 <1>        0.000
     25 H          -4.1776    2.6421    0.0834 H.spc      1 <1>        0.000
     26 H          -2.5893    2.1686   -0.7820 H.spc      1 <1>        0.000
     27 H          -1.4378    3.0801    3.0180 H.spc      1 <1>        0.000
     28 H          -1.9481    1.3760    2.6940 H.spc      1 <1>        0.000
     29 H          -0.5106   -0.0876   -2.9447 H.spc      1 <1>        0.000
     30 H           0.3262   -1.6088   -3.5140 H.spc      1 <1>        0.000
     31 H          -1.6924    3.2682    0.5740 H.spc      1 <1>        0.000
     32 H          -3.2675    3.0876    1.8199 H.spc      1 <1>        0.000
     33 H          -1.5424   -2.5590   -2.1559 H.spc      1 <1>        0.000
     34 H          -1.6940   -1.8275   -4.0331 H.spc      1 <1>        0.000
     35 H          -2.6423    0.1696    0.5400 H.spc      1 <1>        0.000
     36 H          -4.4215    0.6416    0.9441 H.spc      1 <1>        0.000
     37 H          -2.2733    0.2533   -1.9650 H.spc      1 <1>        0.000
     38 H          -3.8326    0.2608   -2.9916 H.spc      1 <1>        0.000
     39 H          -4.0992   -1.1638   -0.5988 H.spc      1 <1>        0.000
     40 H          -4.9649    0.3885   -1.2622 H.spc      1 <1>        0.000
@<TRIPOS>BOND
     1    8   10 1  
     2    1    2 1  
     3    1    3 1  
     4    5    8 1  
     5    4    7 1  
     6    3    5 1  
     7    2    4 1  
     8    7    9 1  
     9   13   14 1  
    10   12   14 1  
    11   11   13 1  
    12    6   12 1  
    13    9    6 1  
    14   10   11 1  
    15    1   15 1  
    16    1   16 1  
    17    2   17 1  
    18    2   18 1  
    19    3   19 1  
    20    3   20 1  
    21    4   21 1  
    22    4   22 1  
    23    5   23 1  
    24    5   24 1  
    25    6   25 1  
    26    6   26 1  
    27    7   27 1  
    28    7   28 1  
    29    8   29 1  
    30    8   30 1  
    31    9   31 1  
    32    9   32 1  
    33   10   33 1  
    34   10   34 1  
    35   12   35 1  
    36   12   36 1  
    37   13   37 1  
    38   13   38 1  
    39   14   39 1  
    40   14   40 1  
# Name:          frag4-445-119/150395 -- energy: -6.708825
# Creation time: Sat Jun  5 12:53:36 2010


@<TRIPOS>MOLECULE
frag4-445-119/150395 -- energy: -6.708825
   40    40     1     1     1
SMALL
USER_CHARGES


@<TRIPOS>ATOM
      1 C1          0.7743    0.9278   -0.3860 C.3        1 <1>        0.000
      2 C2          1.0408    1.7231    0.8772 C.3        1 <1>        0.000
      3 C3          0.8785   -0.5878   -0.3615 C.3        1 <1>        0.000
      4 C4          0.0268    1.9769    1.9779 C.3        1 <1>        0.000
      5 C6         -0.1624   -1.4532   -1.0396 C.3        1 <1>        0.000
      6 C20        -2.8728    0.8448    0.7327 C.3        1 <1>        0.000
      7 C9         -1.2380    2.7629    1.7320 C.3        1 <1>        0.000
      8 C11        -0.3884   -1.3619   -2.5259 C.3        1 <1>        0.000
      9 C13        -2.4955    1.9893    1.5865 C.3        1 <1>        0.000
     10 C16        -1.7047   -1.8586   -2.9675 C.3        1 <1>        0.000
     11 O8         -2.9282   -1.3864   -3.0312 O.3        1 <1>        0.000
     12 C24        -3.8235    1.1675   -0.3842 C.3        1 <1>        0.000
     13 C28        -3.1433   -0.0878   -2.5391 C.3        1 <1>        0.000
     14 C31        -4.1079    0.0752   -1.3821 C.3        1 <1>        0.000
     15 H           1.5541    1.2446   -1.0786 H.spc      1 <1>        0.000
     16 H          -0.2718    1.1265   -0.6190 H.spc      1 <1>        0.000
     17 H           1.2159    2.7258    0.4874 H.spc      1 <1>        0.000
     18 H           1.7854    1.1098    1.3847 H.spc      1 <1>        0.000
     19 H           0.7855   -0.8417    0.6944 H.spc      1 <1>        0.000
     20 H           1.7956   -0.7982   -0.9117 H.spc      1 <1>        0.000
     21 H          -0.3351    0.9798    2.2286 H.spc      1 <1>        0.000
     22 H           0.5740    2.5886    2.6952 H.spc      1 <1>        0.000
     23 H           0.1960   -2.4711   -0.8863 H.spc      1 <1>        0.000
     24 H          -1.1066   -1.1244   -0.6055 H.spc      1 <1>        0.000
     25 H          -1.9549    0.4842    0.2685 H.spc      1 <1>        0.000
     26 H          -3.3792    0.1265    1.3774 H.spc      1 <1>        0.000
     27 H          -1.0908    3.2726    0.7798 H.spc      1 <1>        0.000
     28 H          -1.3747    3.3893    2.6135 H.spc      1 <1>        0.000
     29 H          -0.3352   -0.3071   -2.7956 H.spc      1 <1>        0.000
     30 H           0.3678   -1.9834   -3.0054 H.spc      1 <1>        0.000
     31 H          -3.1241    2.7583    1.1376 H.spc      1 <1>        0.000
     32 H          -2.5123    1.4966    2.5586 H.spc      1 <1>        0.000
     33 H          -1.8657   -2.5848   -2.1708 H.spc      1 <1>        0.000
     34 H          -1.5010   -1.8916   -4.0378 H.spc      1 <1>        0.000
     35 H          -4.7780    1.3882    0.0936 H.spc      1 <1>        0.000
     36 H          -3.3532    1.9713   -0.9507 H.spc      1 <1>        0.000
     37 H          -2.1764    0.2455   -2.1623 H.spc      1 <1>        0.000
     38 H          -3.5832    0.4689   -3.3666 H.spc      1 <1>        0.000
     39 H          -4.0501   -0.8568   -0.8198 H.spc      1 <1>        0.000
     40 H          -5.0654    0.3342   -1.8340 H.spc      1 <1>        0.000
@<TRIPOS>BOND
     1    8   10 1  
     2    1    2 1  
     3    1    3 1  
     4    5    8 1  
     5    4    7 1  
     6    3    5 1  
     7    2    4 1  
     8    7    9 1  
     9   13   14 1  
    10   12   14 1  
    11   11   13 1  
    12    6   12 1  
    13    9    6 1  
    14   10   11 1  
    15    1   15 1  
    16    1   16 1  
    17    2   17 1  
    18    2   18 1  
    19    3   19 1  
    20    3   20 1  
    21    4   21 1  
    22    4   22 1  
    23    5   23 1  
    24    5   24 1  
    25    6   25 1  
    26    6   26 1  
    27    7   27 1  
    28    7   28 1  
    29    8   29 1  
    30    8   30 1  
    31    9   31 1  
    32    9   32 1  
    33   10   33 1  
    34   10   34 1  
    35   12   35 1  
    36   12   36 1  
    37   13   37 1  
    38   13   38 1  
    39   14   39 1  
    40   14   40 1  
# Name:          frag4-445-119/150395 -- energy: -7.312547
# Creation time: Sat Jun  5 12:53:36 2010


@<TRIPOS>MOLECULE
frag4-445-119/150395 -- energy: -7.312547
   40    40     1     1     1
SMALL
USER_CHARGES


@<TRIPOS>ATOM
      1 C1          1.9444    0.6065    0.1472 C.3        1 <1>        0.000
      2 C2          0.9828    0.9907    1.2585 C.3        1 <1>        0.000
      3 C3          1.5470   -0.4363   -0.9056 C.3        1 <1>        0.000
      4 C4         -0.3181    1.7372    0.9425 C.3        1 <1>        0.000
      5 C6          0.1363   -0.4829   -1.4373 C.3        1 <1>        0.000
      6 C20        -3.5691    2.3562    0.1901 C.3        1 <1>        0.000
      7 C9         -1.5509    1.1976    1.6206 C.3        1 <1>        0.000
      8 C11        -0.2310   -1.4914   -2.4845 C.3        1 <1>        0.000
      9 C13        -2.8069    1.9601    1.4093 C.3        1 <1>        0.000
     10 C16        -1.6727   -1.7681   -2.7353 C.3        1 <1>        0.000
     11 O8         -2.8532   -1.2733   -2.5856 O.3        1 <1>        0.000
     12 C24        -4.5587    1.3339   -0.2817 C.3        1 <1>        0.000
     13 C28        -3.1109   -0.0101   -2.0082 C.3        1 <1>        0.000
     14 C31        -4.0834    0.0116   -0.8406 C.3        1 <1>        0.000
     15 H           2.7870    0.1521    0.6684 H.spc      1 <1>        0.000
     16 H           2.0742    1.5261   -0.4235 H.spc      1 <1>        0.000
     17 H           1.5499    1.6902    1.8727 H.spc      1 <1>        0.000
     18 H           0.6508    0.0360    1.6665 H.spc      1 <1>        0.000
     19 H           1.6763   -1.3931   -0.3997 H.spc      1 <1>        0.000
     20 H           2.1549   -0.1867   -1.7753 H.spc      1 <1>        0.000
     21 H          -0.1868    2.7585    1.3001 H.spc      1 <1>        0.000
     22 H          -0.4828    1.6371   -0.1303 H.spc      1 <1>        0.000
     23 H          -0.4739   -0.7486   -0.5741 H.spc      1 <1>        0.000
     24 H          -0.0060    0.4822   -1.9236 H.spc      1 <1>        0.000
     25 H          -4.1331    3.2539    0.4434 H.spc      1 <1>        0.000
     26 H          -2.8426    2.4914   -0.6112 H.spc      1 <1>        0.000
     27 H          -1.3494    1.2365    2.6911 H.spc      1 <1>        0.000
     28 H          -1.7219    0.2085    1.1957 H.spc      1 <1>        0.000
     29 H           0.1455   -1.0784   -3.4203 H.spc      1 <1>        0.000
     30 H           0.1807   -2.4349   -2.1263 H.spc      1 <1>        0.000
     31 H          -2.4646    2.9455    1.7253 H.spc      1 <1>        0.000
     32 H          -3.5144    1.2451    1.8292 H.spc      1 <1>        0.000
     33 H          -1.7745   -2.5336   -1.9660 H.spc      1 <1>        0.000
     34 H          -1.6276   -1.6236   -3.8147 H.spc      1 <1>        0.000
     35 H          -5.1152    1.0630    0.6156 H.spc      1 <1>        0.000
     36 H          -5.0644    1.8145   -1.1192 H.spc      1 <1>        0.000
     37 H          -2.1577    0.3440   -1.6156 H.spc      1 <1>        0.000
     38 H          -3.5654    0.5949   -2.7927 H.spc      1 <1>        0.000
     39 H          -3.5361   -0.4518   -0.0197 H.spc      1 <1>        0.000
     40 H          -4.9856   -0.4626   -1.2269 H.spc      1 <1>        0.000
@<TRIPOS>BOND
     1    8   10 1  
     2    1    2 1  
     3    1    3 1  
     4    5    8 1  
     5    4    7 1  
     6    3    5 1  
     7    2    4 1  
     8    7    9 1  
     9   13   14 1  
    10   12   14 1  
    11   11   13 1  
    12    6   12 1  
    13    9    6 1  
    14   10   11 1  
    15    1   15 1  
    16    1   16 1  
    17    2   17 1  
    18    2   18 1  
    19    3   19 1  
    20    3   20 1  
    21    4   21 1  
    22    4   22 1  
    23    5   23 1  
    24    5   24 1  
    25    6   25 1  
    26    6   26 1  
    27    7   27 1  
    28    7   28 1  
    29    8   29 1  
    30    8   30 1  
    31    9   31 1  
    32    9   32 1  
    33   10   33 1  
    34   10   34 1  
    35   12   35 1  
    36   12   36 1  
    37   13   37 1  
    38   13   38 1  
    39   14   39 1  
    40   14   40 1  
# Name:          frag4-445-119/150395 -- energy: -4.926269
# Creation time: Sat Jun  5 12:53:36 2010


@<TRIPOS>MOLECULE
frag4-445-119/150395 -- energy: -4.926269
   40    40     1     1     1
SMALL
USER_CHARGES


@<TRIPOS>ATOM
      1 C1          1.6719    0.3032    0.3205 C.3        1 <1>        0.000
      2 C2          0.5975    1.3697    0.3779 C.3        1 <1>        0.000
      3 C3          1.8383   -0.5069   -0.9445 C.3        1 <1>        0.000
      4 C4         -0.1042    1.6228    1.7065 C.3        1 <1>        0.000
      5 C6          0.6899   -1.3517   -1.4361 C.3        1 <1>        0.000
      6 C20        -3.1063    1.5828    0.0137 C.3        1 <1>        0.000
      7 C9         -1.3624    2.4956    1.8685 C.3        1 <1>        0.000
      8 C11        -0.4945   -0.7394   -2.1646 C.3        1 <1>        0.000
      9 C13        -2.6651    1.9487    1.3766 C.3        1 <1>        0.000
     10 C16        -1.7376   -1.5271   -2.1322 C.3        1 <1>        0.000
     11 O8         -3.0287   -1.3599   -2.3269 O.3        1 <1>        0.000
     12 C24        -4.2115    0.5874   -0.1699 C.3        1 <1>        0.000
     13 C28        -3.5890   -0.0916   -2.5922 C.3        1 <1>        0.000
     14 C31        -4.6427    0.3984   -1.6078 C.3        1 <1>        0.000
     15 H           1.3861   -0.4227    1.0817 H.spc      1 <1>        0.000
     16 H           2.6107    0.8460    0.4303 H.spc      1 <1>        0.000
     17 H          -0.1853    1.0226   -0.2966 H.spc      1 <1>        0.000
     18 H           1.1092    2.3031    0.1432 H.spc      1 <1>        0.000
     19 H           2.6306   -1.2199   -0.7163 H.spc      1 <1>        0.000
     20 H           1.9961    0.2324   -1.7297 H.spc      1 <1>        0.000
     21 H          -0.4652    0.6309    1.9784 H.spc      1 <1>        0.000
     22 H           0.6455    2.1779    2.2703 H.spc      1 <1>        0.000
     23 H           1.1466   -2.0007   -2.1833 H.spc      1 <1>        0.000
     24 H           0.2528   -1.7526   -0.5216 H.spc      1 <1>        0.000
     25 H          -3.4997    2.5092   -0.4048 H.spc      1 <1>        0.000
     26 H          -2.2344    1.1106   -0.4390 H.spc      1 <1>        0.000
     27 H          -1.1766    3.3851    1.2665 H.spc      1 <1>        0.000
     28 H          -1.4897    2.6224    2.9436 H.spc      1 <1>        0.000
     29 H          -0.7125    0.2036   -1.6632 H.spc      1 <1>        0.000
     30 H          -0.2058   -0.6598   -3.2126 H.spc      1 <1>        0.000
     31 H          -3.3117    2.8067    1.5605 H.spc      1 <1>        0.000
     32 H          -2.6424    0.9619    1.8391 H.spc      1 <1>        0.000
     33 H          -1.7827   -1.6589   -1.0511 H.spc      1 <1>        0.000
     34 H          -1.5439   -2.1170   -3.0281 H.spc      1 <1>        0.000
     35 H          -3.8403   -0.3745    0.1838 H.spc      1 <1>        0.000
     36 H          -5.0759    0.9615    0.3787 H.spc      1 <1>        0.000
     37 H          -2.7666    0.6216   -2.5372 H.spc      1 <1>        0.000
     38 H          -4.0899   -0.1762   -3.5566 H.spc      1 <1>        0.000
     39 H          -5.4105   -0.3750   -1.5871 H.spc      1 <1>        0.000
     40 H          -4.9397    1.3863   -1.9598 H.spc      1 <1>        0.000
@<TRIPOS>BOND
     1    8   10 1  
     2    1    2 1  
     3    1    3 1  
     4    5    8 1  
     5    4    7 1  
     6    3    5 1  
     7    2    4 1  
     8    7    9 1  
     9   13   14 1  
    10   12   14 1  
    11   11   13 1  
    12    6   12 1  
    13    9    6 1  
    14   10   11 1  
    15    1   15 1  
    16    1   16 1  
    17    2   17 1  
    18    2   18 1  
    19    3   19 1  
    20    3   20 1  
    21    4   21 1  
    22    4   22 1  
    23    5   23 1  
    24    5   24 1  
    25    6   25 1  
    26    6   26 1  
    27    7   27 1  
    28    7   28 1  
    29    8   29 1  
    30    8   30 1  
    31    9   31 1  
    32    9   32 1  
    33   10   33 1  
    34   10   34 1  
    35   12   35 1  
    36   12   36 1  
    37   13   37 1  
    38   13   38 1  
    39   14   39 1  
    40   14   40 1  
# Name:          frag4-445-119/150395 -- energy: -6.436135
# Creation time: Sat Jun  5 12:53:36 2010


@<TRIPOS>MOLECULE
frag4-445-119/150395 -- energy: -6.436135
   40    40     1     1     1
SMALL
USER_CHARGES


@<TRIPOS>ATOM
      1 C1          1.2614    0.7528    0.0716 C.3        1 <1>        0.000
      2 C2          0.8041    0.8687    1.4980 C.3        1 <1>        0.000
      3 C3          1.1775   -0.6353   -0.5050 C.3        1 <1>        0.000
      4 C4          0.2453    2.1679    2.0089 C.3        1 <1>        0.000
      5 C6         -0.1752   -1.0775   -1.0114 C.3        1 <1>        0.000
      6 C20        -3.1813    1.7785    0.1236 C.3        1 <1>        0.000
      7 C9         -0.9677    2.7593    1.3431 C.3        1 <1>        0.000
      8 C11        -0.7879   -0.3504   -2.1842 C.3        1 <1>        0.000
      9 C13        -2.1487    1.8674    1.1903 C.3        1 <1>        0.000
     10 C16        -1.6964   -1.1543   -3.0325 C.3        1 <1>        0.000
     11 O8         -2.9309   -1.5441   -3.1307 O.3        1 <1>        0.000
     12 C24        -3.6371    0.3917   -0.2293 C.3        1 <1>        0.000
     13 C28        -3.9723   -1.2383   -2.2193 C.3        1 <1>        0.000
     14 C31        -4.1349    0.1455   -1.6338 C.3        1 <1>        0.000
     15 H           2.3121    1.0421    0.0508 H.spc      1 <1>        0.000
     16 H           0.6032    1.3845   -0.5249 H.spc      1 <1>        0.000
     17 H           1.7083    0.7124    2.0863 H.spc      1 <1>        0.000
     18 H          -0.0268    0.1674    1.5743 H.spc      1 <1>        0.000
     19 H           1.4308   -1.3148    0.3088 H.spc      1 <1>        0.000
     20 H           1.8396   -0.6418   -1.3709 H.spc      1 <1>        0.000
     21 H          -0.0739    1.9521    3.0285 H.spc      1 <1>        0.000
     22 H           1.0381    2.8970    1.8419 H.spc      1 <1>        0.000
     23 H          -0.0253   -2.0992   -1.3603 H.spc      1 <1>        0.000
     24 H          -0.8588   -0.8998   -0.1812 H.spc      1 <1>        0.000
     25 H          -4.0586    2.3051    0.4992 H.spc      1 <1>        0.000
     26 H          -2.7299    2.1933   -0.7777 H.spc      1 <1>        0.000
     27 H          -0.6569    3.0213    0.3317 H.spc      1 <1>        0.000
     28 H          -1.2919    3.5791    1.9841 H.spc      1 <1>        0.000
     29 H          -1.3887    0.4579   -1.7673 H.spc      1 <1>        0.000
     30 H           0.0395   -0.0418   -2.8232 H.spc      1 <1>        0.000
     31 H          -2.7636    2.2321    2.0131 H.spc      1 <1>        0.000
     32 H          -1.6422    0.9144    1.0373 H.spc      1 <1>        0.000
     33 H          -1.2924   -2.1250   -2.7450 H.spc      1 <1>        0.000
     34 H          -1.7329   -0.4483   -3.8622 H.spc      1 <1>        0.000
     35 H          -2.7551   -0.2393   -0.1202 H.spc      1 <1>        0.000
     36 H          -4.4907    0.1939    0.4191 H.spc      1 <1>        0.000
     37 H          -4.8795   -1.3786   -2.8070 H.spc      1 <1>        0.000
     38 H          -3.7487   -1.8609   -1.3530 H.spc      1 <1>        0.000
     39 H          -5.2110    0.3136   -1.5901 H.spc      1 <1>        0.000
     40 H          -3.5354    0.7977   -2.2689 H.spc      1 <1>        0.000
@<TRIPOS>BOND
     1    8   10 1  
     2    1    2 1  
     3    1    3 1  
     4    5    8 1  
     5    4    7 1  
     6    3    5 1  
     7    2    4 1  
     8    7    9 1  
     9   13   14 1  
    10   12   14 1  
    11   11   13 1  
    12    6   12 1  
    13    9    6 1  
    14   10   11 1  
    15    1   15 1  
    16    1   16 1  
    17    2   17 1  
    18    2   18 1  
    19    3   19 1  
    20    3   20 1  
    21    4   21 1  
    22    4   22 1  
    23    5   23 1  
    24    5   24 1  
    25    6   25 1  
    26    6   26 1  
    27    7   27 1  
    28    7   28 1  
    29    8   29 1  
    30    8   30 1  
    31    9   31 1  
    32    9   32 1  
    33   10   33 1  
    34   10   34 1  
    35   12   35 1  
    36   12   36 1  
    37   13   37 1  
    38   13   38 1  
    39   14   39 1  
    40   14   40 1  
# Name:          frag4-445-119/150395 -- energy: -7.582516
# Creation time: Sat Jun  5 12:53:36 2010


@<TRIPOS>MOLECULE
frag4-445-119/150395 -- energy: -7.582516
   40    40     1     1     1
SMALL
USER_CHARGES


@<TRIPOS>ATOM
      1 C1          1.3664    0.3788    0.4934 C.3        1 <1>        0.000
      2 C2          0.2797    0.0496    1.5048 C.3        1 <1>        0.000
      3 C3          1.0364    0.5167   -0.9824 C.3        1 <1>        0.000
      4 C4         -0.7175    1.0917    1.9827 C.3        1 <1>        0.000
      5 C6          0.0395   -0.4777   -1.5123 C.3        1 <1>        0.000
      6 C20        -3.3095    2.2022   -0.2288 C.3        1 <1>        0.000
      7 C9         -1.0238    2.3759    1.2588 C.3        1 <1>        0.000
      8 C11        -0.5660   -0.4668   -2.8818 C.3        1 <1>        0.000
      9 C13        -1.8347    2.3076    0.0188 C.3        1 <1>        0.000
     10 C16        -1.6209   -1.5064   -2.9514 C.3        1 <1>        0.000
     11 O8         -2.8300   -1.6859   -2.4469 O.3        1 <1>        0.000
     12 C24        -3.9680    0.9342    0.2264 C.3        1 <1>        0.000
     13 C28        -3.4878   -0.5816   -1.8551 C.3        1 <1>        0.000
     14 C31        -3.5081   -0.4065   -0.3369 C.3        1 <1>        0.000
     15 H           2.0396   -0.4773    0.5372 H.spc      1 <1>        0.000
     16 H           1.7090    1.3719    0.7839 H.spc      1 <1>        0.000
     17 H           0.8371   -0.2042    2.4065 H.spc      1 <1>        0.000
     18 H          -0.3413   -0.6802    0.9853 H.spc      1 <1>        0.000
     19 H           1.9653    0.3490   -1.5275 H.spc      1 <1>        0.000
     20 H           0.5929    1.5038   -1.1127 H.spc      1 <1>        0.000
     21 H          -1.6649    0.5560    1.9238 H.spc      1 <1>        0.000
     22 H          -0.2637    1.4453    2.9085 H.spc      1 <1>        0.000
     23 H           0.6253   -1.3967   -1.5315 H.spc      1 <1>        0.000
     24 H          -0.8278   -0.2871   -0.8802 H.spc      1 <1>        0.000
     25 H          -3.7723    3.0074    0.3417 H.spc      1 <1>        0.000
     26 H          -3.4403    2.2420   -1.3102 H.spc      1 <1>        0.000
     27 H          -0.0555    2.7672    0.9469 H.spc      1 <1>        0.000
     28 H          -1.6180    2.9644    1.9579 H.spc      1 <1>        0.000
     29 H          -1.0007    0.5121   -3.0837 H.spc      1 <1>        0.000
     30 H           0.2035   -0.6736   -3.6256 H.spc      1 <1>        0.000
     31 H          -1.5269    1.3245   -0.3375 H.spc      1 <1>        0.000
     32 H          -1.6662    3.3171   -0.3562 H.spc      1 <1>        0.000
     33 H          -1.1058   -2.2789   -2.3805 H.spc      1 <1>        0.000
     34 H          -1.9149   -1.3502   -3.9893 H.spc      1 <1>        0.000
     35 H          -3.7412    0.8755    1.2909 H.spc      1 <1>        0.000
     36 H          -5.0021    1.0293   -0.1047 H.spc      1 <1>        0.000
     37 H          -2.9323    0.2841   -2.2158 H.spc      1 <1>        0.000
     38 H          -4.5355   -0.7215   -2.1213 H.spc      1 <1>        0.000
     39 H          -2.4701   -0.5108   -0.0211 H.spc      1 <1>        0.000
     40 H          -4.2319   -1.1355    0.0274 H.spc      1 <1>        0.000
@<TRIPOS>BOND
     1    8   10 1  
     2    1    2 1  
     3    1    3 1  
     4    5    8 1  
     5    4    7 1  
     6    3    5 1  
     7    2    4 1  
     8    7    9 1  
     9   13   14 1  
    10   12   14 1  
    11   11   13 1  
    12    6   12 1  
    13    9    6 1  
    14   10   11 1  
    15    1   15 1  
    16    1   16 1  
    17    2   17 1  
    18    2   18 1  
    19    3   19 1  
    20    3   20 1  
    21    4   21 1  
    22    4   22 1  
    23    5   23 1  
    24    5   24 1  
    25    6   25 1  
    26    6   26 1  
    27    7   27 1  
    28    7   28 1  
    29    8   29 1  
    30    8   30 1  
    31    9   31 1  
    32    9   32 1  
    33   10   33 1  
    34   10   34 1  
    35   12   35 1  
    36   12   36 1  
    37   13   37 1  
    38   13   38 1  
    39   14   39 1  
    40   14   40 1  
# Name:          frag4-445-119/150395 -- energy: -7.390766
# Creation time: Sat Jun  5 12:53:36 2010


@<TRIPOS>MOLECULE
frag4-445-119/150395 -- energy: -7.390766
   40    40     1     1     1
SMALL
USER_CHARGES


@<TRIPOS>ATOM
      1 C1          1.2353    0.7255    0.2151 C.3        1 <1>        0.000
      2 C2          0.4651    0.4917    1.4910 C.3        1 <1>        0.000
      3 C3          1.0535   -0.3011   -0.8662 C.3        1 <1>        0.000
      4 C4         -0.1823    1.6468    2.2262 C.3        1 <1>        0.000
      5 C6         -0.0930   -0.0658   -1.8215 C.3        1 <1>        0.000
      6 C20        -3.3795    1.6258    0.8376 C.3        1 <1>        0.000
      7 C9         -0.9686    2.7155    1.5108 C.3        1 <1>        0.000
      8 C11        -0.3867   -1.1255   -2.8373 C.3        1 <1>        0.000
      9 C13        -2.0210    2.1870    0.6082 C.3        1 <1>        0.000
     10 C16        -1.6264   -1.9104   -2.6966 C.3        1 <1>        0.000
     11 O8         -2.9100   -1.7431   -2.6362 O.3        1 <1>        0.000
     12 C24        -4.1049    1.1624   -0.4087 C.3        1 <1>        0.000
     13 C28        -3.4421   -0.4613   -2.3919 C.3        1 <1>        0.000
     14 C31        -3.7836   -0.2155   -0.9412 C.3        1 <1>        0.000
     15 H           2.2905    0.6980    0.4869 H.spc      1 <1>        0.000
     16 H           0.8685    1.6669   -0.1939 H.spc      1 <1>        0.000
     17 H           1.2133    0.1168    2.1894 H.spc      1 <1>        0.000
     18 H          -0.3737   -0.1337    1.1854 H.spc      1 <1>        0.000
     19 H           0.8402   -1.2426   -0.3600 H.spc      1 <1>        0.000
     20 H           1.9620   -0.2744   -1.4678 H.spc      1 <1>        0.000
     21 H          -0.9276    1.1615    2.8563 H.spc      1 <1>        0.000
     22 H           0.6657    2.1906    2.6425 H.spc      1 <1>        0.000
     23 H          -0.9842   -0.0081   -1.1965 H.spc      1 <1>        0.000
     24 H           0.1848    0.8178   -2.3961 H.spc      1 <1>        0.000
     25 H          -3.2524    0.7475    1.4705 H.spc      1 <1>        0.000
     26 H          -3.9799    2.4264    1.2697 H.spc      1 <1>        0.000
     27 H          -0.2659    3.2767    0.8949 H.spc      1 <1>        0.000
     28 H          -1.4668    3.3153    2.2725 H.spc      1 <1>        0.000
     29 H          -0.4924   -0.5928   -3.7824 H.spc      1 <1>        0.000
     30 H           0.4219   -1.8494   -2.7359 H.spc      1 <1>        0.000
     31 H          -1.5173    1.2806    0.2723 H.spc      1 <1>        0.000
     32 H          -2.3025    3.1163    0.1130 H.spc      1 <1>        0.000
     33 H          -1.4854   -2.1823   -1.6505 H.spc      1 <1>        0.000
     34 H          -1.6045   -2.3597   -3.6895 H.spc      1 <1>        0.000
     35 H          -5.1597    1.1297   -0.1357 H.spc      1 <1>        0.000
     36 H          -3.8038    1.8551   -1.1946 H.spc      1 <1>        0.000
     37 H          -2.6836    0.2676   -2.6774 H.spc      1 <1>        0.000
     38 H          -4.3658   -0.3761   -2.9643 H.spc      1 <1>        0.000
     39 H          -2.8667   -0.4829   -0.4160 H.spc      1 <1>        0.000
     40 H          -4.7153   -0.7642   -0.8035 H.spc      1 <1>        0.000
@<TRIPOS>BOND
     1    8   10 1  
     2    1    2 1  
     3    1    3 1  
     4    5    8 1  
     5    4    7 1  
     6    3    5 1  
     7    2    4 1  
     8    7    9 1  
     9   13   14 1  
    10   12   14 1  
    11   11   13 1  
    12    6   12 1  
    13    9    6 1  
    14   10   11 1  
    15    1   15 1  
    16    1   16 1  
    17    2   17 1  
    18    2   18 1  
    19    3   19 1  
    20    3   20 1  
    21    4   21 1  
    22    4   22 1  
    23    5   23 1  
    24    5   24 1  
    25    6   25 1  
    26    6   26 1  
    27    7   27 1  
    28    7   28 1  
    29    8   29 1  
    30    8   30 1  
    31    9   31 1  
    32    9   32 1  
    33   10   33 1  
    34   10   34 1  
    35   12   35 1  
    36   12   36 1  
    37   13   37 1  
    38   13   38 1  
    39   14   39 1  
    40   14   40 1  
# Name:          frag4-445-119/150395 -- energy: 0.688751
# Creation time: Sat Jun  5 12:53:36 2010


@<TRIPOS>MOLECULE
frag4-445-119/150395 -- energy: 0.688751
   40    40     1     1     1
SMALL
USER_CHARGES


@<TRIPOS>ATOM
      1 C1          1.3877   -0.2031    0.2416 C.3        1 <1>        0.000
      2 C2          0.1258    0.0126    1.0493 C.3        1 <1>        0.000
      3 C3          1.5209    0.2533   -1.1925 C.3        1 <1>        0.000
      4 C4         -0.2940    1.3583    1.6080 C.3        1 <1>        0.000
      5 C6          0.3331    0.1374   -2.1139 C.3        1 <1>        0.000
      6 C20        -3.4389    1.0555    0.7789 C.3        1 <1>        0.000
      7 C9         -1.0335    2.3848    0.7839 C.3        1 <1>        0.000
      8 C11        -0.2521   -1.2264   -2.3900 C.3        1 <1>        0.000
      9 C13        -2.5101    2.2060    0.6403 C.3        1 <1>        0.000
     10 C16        -1.4235   -1.6265   -1.5940 C.3        1 <1>        0.000
     11 O8         -2.6671   -1.2114   -1.4229 O.3        1 <1>        0.000
     12 C24        -4.5468    0.9745   -0.2367 C.3        1 <1>        0.000
     13 C28        -3.0737   -0.0925   -2.1628 C.3        1 <1>        0.000
     14 C31        -4.2719    0.7096   -1.7000 C.3        1 <1>        0.000
     15 H           1.4582   -1.2884    0.1686 H.spc      1 <1>        0.000
     16 H           2.1298    0.3976    0.7676 H.spc      1 <1>        0.000
     17 H           0.3082   -0.5774    1.9475 H.spc      1 <1>        0.000
     18 H          -0.6635   -0.2094    0.3311 H.spc      1 <1>        0.000
     19 H           2.2756   -0.4032   -1.6256 H.spc      1 <1>        0.000
     20 H           1.7210    1.3228   -1.1279 H.spc      1 <1>        0.000
     21 H          -1.0111    1.0955    2.3857 H.spc      1 <1>        0.000
     22 H           0.6552    1.8474    1.8269 H.spc      1 <1>        0.000
     23 H          -0.4638    0.6877   -1.6137 H.spc      1 <1>        0.000
     24 H           0.6938    0.4880   -3.0809 H.spc      1 <1>        0.000
     25 H          -2.8355    0.1576    0.6453 H.spc      1 <1>        0.000
     26 H          -3.9217    1.1676    1.7497 H.spc      1 <1>        0.000
     27 H          -0.6255    2.3065   -0.2238 H.spc      1 <1>        0.000
     28 H          -0.8983    3.3345    1.3014 H.spc      1 <1>        0.000
     29 H          -0.5918   -1.1996   -3.4254 H.spc      1 <1>        0.000
     30 H           0.5326   -1.9416   -2.1436 H.spc      1 <1>        0.000
     31 H          -2.5870    2.3480   -0.4377 H.spc      1 <1>        0.000
     32 H          -2.8286    2.7780    1.5118 H.spc      1 <1>        0.000
     33 H          -1.0387   -1.3402   -0.6152 H.spc      1 <1>        0.000
     34 H          -1.6506   -2.5513   -2.1243 H.spc      1 <1>        0.000
     35 H          -5.1213    0.1035    0.0786 H.spc      1 <1>        0.000
     36 H          -4.9728    1.9778   -0.2328 H.spc      1 <1>        0.000
     37 H          -2.2350    0.6009   -2.1007 H.spc      1 <1>        0.000
     38 H          -3.3662   -0.4931   -3.1334 H.spc      1 <1>        0.000
     39 H          -5.1213    0.1025   -2.0131 H.spc      1 <1>        0.000
     40 H          -4.0868    1.7031   -2.1085 H.spc      1 <1>        0.000
@<TRIPOS>BOND
     1    8   10 1  
     2    1    2 1  
     3    1    3 1  
     4    5    8 1  
     5    4    7 1  
     6    3    5 1  
     7    2    4 1  
     8    7    9 1  
     9   13   14 1  
    10   12   14 1  
    11   11   13 1  
    12    6   12 1  
    13    9    6 1  
    14   10   11 1  
    15    1   15 1  
    16    1   16 1  
    17    2   17 1  
    18    2   18 1  
    19    3   19 1  
    20    3   20 1  
    21    4   21 1  
    22    4   22 1  
    23    5   23 1  
    24    5   24 1  
    25    6   25 1  
    26    6   26 1  
    27    7   27 1  
    28    7   28 1  
    29    8   29 1  
    30    8   30 1  
    31    9   31 1  
    32    9   32 1  
    33   10   33 1  
    34   10   34 1  
    35   12   35 1  
    36   12   36 1  
    37   13   37 1  
    38   13   38 1  
    39   14   39 1  
    40   14   40 1  
# Name:          frag4-445-119/150395 -- energy: -2.091002
# Creation time: Sat Jun  5 12:53:36 2010


@<TRIPOS>MOLECULE
frag4-445-119/150395 -- energy: -2.091002
   40    40     1     1     1
SMALL
USER_CHARGES


@<TRIPOS>ATOM
      1 C1          1.5872    0.6649   -0.1143 C.3        1 <1>        0.000
      2 C2          1.0482    1.1332    1.2154 C.3        1 <1>        0.000
      3 C3          0.7222   -0.0580   -1.1122 C.3        1 <1>        0.000
      4 C4          0.1795    2.3639    1.3927 C.3        1 <1>        0.000
      5 C6         -0.1271   -1.2500   -0.7083 C.3        1 <1>        0.000
      6 C20        -3.6360    1.5793    0.7210 C.3        1 <1>        0.000
      7 C9         -1.2350    2.1507    1.8586 C.3        1 <1>        0.000
      8 C11        -0.8945   -1.9665   -1.7939 C.3        1 <1>        0.000
      9 C13        -2.1623    1.5446    0.8794 C.3        1 <1>        0.000
     10 C16        -1.3933   -1.0679   -2.8314 C.3        1 <1>        0.000
     11 O8         -2.4864   -0.4117   -3.1249 O.3        1 <1>        0.000
     12 C24        -4.1395    1.1132   -0.6210 C.3        1 <1>        0.000
     13 C28        -3.6823   -0.7276   -2.4596 C.3        1 <1>        0.000
     14 C31        -3.9249   -0.3362   -1.0122 C.3        1 <1>        0.000
     15 H           2.3388   -0.0757    0.1591 H.spc      1 <1>        0.000
     16 H           1.8512    1.5907   -0.6255 H.spc      1 <1>        0.000
     17 H           1.9535    1.3974    1.7619 H.spc      1 <1>        0.000
     18 H           0.3779    0.3228    1.5018 H.spc      1 <1>        0.000
     19 H           1.4364   -0.4756   -1.8218 H.spc      1 <1>        0.000
     20 H          -0.0086    0.6919   -1.4150 H.spc      1 <1>        0.000
     21 H           0.6606    2.9541    2.1726 H.spc      1 <1>        0.000
     22 H           0.0989    2.8126    0.4026 H.spc      1 <1>        0.000
     23 H           0.5730   -1.9857   -0.3123 H.spc      1 <1>        0.000
     24 H          -0.8830   -0.8529   -0.0308 H.spc      1 <1>        0.000
     25 H          -4.0502    0.9011    1.4670 H.spc      1 <1>        0.000
     26 H          -3.9411    2.6201    0.8290 H.spc      1 <1>        0.000
     27 H          -1.6336    3.1403    2.0822 H.spc      1 <1>        0.000
     28 H          -1.1776    1.4535    2.6945 H.spc      1 <1>        0.000
     29 H          -0.2147   -2.6746   -2.2678 H.spc      1 <1>        0.000
     30 H          -1.7559   -2.4462   -1.3291 H.spc      1 <1>        0.000
     31 H          -2.0438    0.4970    1.1560 H.spc      1 <1>        0.000
     32 H          -1.8810    2.1199   -0.0026 H.spc      1 <1>        0.000
     33 H          -1.4629   -1.8082   -3.6284 H.spc      1 <1>        0.000
     34 H          -0.7853   -0.2036   -2.5643 H.spc      1 <1>        0.000
     35 H          -5.2214    1.2392   -0.5784 H.spc      1 <1>        0.000
     36 H          -3.5760    1.6919   -1.3529 H.spc      1 <1>        0.000
     37 H          -4.4373   -0.1639   -3.0077 H.spc      1 <1>        0.000
     38 H          -3.6813   -1.8173   -2.4339 H.spc      1 <1>        0.000
     39 H          -3.0007   -0.6130   -0.5049 H.spc      1 <1>        0.000
     40 H          -4.8689   -0.8202   -0.7620 H.spc      1 <1>        0.000
@<TRIPOS>BOND
     1    8   10 1  
     2    1    2 1  
     3    1    3 1  
     4    5    8 1  
     5    4    7 1  
     6    3    5 1  
     7    2    4 1  
     8    7    9 1  
     9   13   14 1  
    10   12   14 1  
    11   11   13 1  
    12    6   12 1  
    13    9    6 1  
    14   10   11 1  
    15    1   15 1  
    16    1   16 1  
    17    2   17 1  
    18    2   18 1  
    19    3   19 1  
    20    3   20 1  
    21    4   21 1  
    22    4   22 1  
    23    5   23 1  
    24    5   24 1  
    25    6   25 1  
    26    6   26 1  
    27    7   27 1  
    28    7   28 1  
    29    8   29 1  
    30    8   30 1  
    31    9   31 1  
    32    9   32 1  
    33   10   33 1  
    34   10   34 1  
    35   12   35 1  
    36   12   36 1  
    37   13   37 1  
    38   13   38 1  
    39   14   39 1  
    40   14   40 1  
# Name:          frag4-445-119/150395 -- energy: -5.428257
# Creation time: Sat Jun  5 12:53:36 2010


@<TRIPOS>MOLECULE
frag4-445-119/150395 -- energy: -5.428257
   40    40     1     1     1
SMALL
USER_CHARGES


@<TRIPOS>ATOM
      1 C1          1.3519    0.4302    0.1436 C.3        1 <1>        0.000
      2 C2          0.3599    0.0599    1.2229 C.3        1 <1>        0.000
      3 C3          0.8564    0.9503   -1.1813 C.3        1 <1>        0.000
      4 C4         -0.2551    1.0874    2.1294 C.3        1 <1>        0.000
      5 C6         -0.2263    0.1875   -1.9088 C.3        1 <1>        0.000
      6 C20        -3.3026    1.5168    0.5811 C.3        1 <1>        0.000
      7 C9         -0.8970    2.3329    1.5959 C.3        1 <1>        0.000
      8 C11        -0.3753   -1.3055   -1.8140 C.3        1 <1>        0.000
      9 C13        -1.9672    2.1858    0.5621 C.3        1 <1>        0.000
     10 C16        -1.5524   -1.8940   -2.4908 C.3        1 <1>        0.000
     11 O8         -2.8517   -1.7936   -2.4798 O.3        1 <1>        0.000
     12 C24        -4.0746    1.4510   -0.7143 C.3        1 <1>        0.000
     13 C28        -3.4800   -0.9681   -1.5115 C.3        1 <1>        0.000
     14 C31        -3.7303    0.4915   -1.8453 C.3        1 <1>        0.000
     15 H           1.8549   -0.5057   -0.0997 H.spc      1 <1>        0.000
     16 H           1.9224    1.2569    0.5670 H.spc      1 <1>        0.000
     17 H           0.9422   -0.5633    1.9017 H.spc      1 <1>        0.000
     18 H          -0.4912   -0.3296    0.6643 H.spc      1 <1>        0.000
     19 H           1.7225    0.9072   -1.8417 H.spc      1 <1>        0.000
     20 H           0.4129    1.9198   -0.9544 H.spc      1 <1>        0.000
     21 H          -1.0813    0.5537    2.5992 H.spc      1 <1>        0.000
     22 H           0.5914    1.4613    2.7053 H.spc      1 <1>        0.000
     23 H          -1.1435    0.5594   -1.4522 H.spc      1 <1>        0.000
     24 H           0.0180    0.3478   -2.9589 H.spc      1 <1>        0.000
     25 H          -3.1052    0.4805    0.8553 H.spc      1 <1>        0.000
     26 H          -3.9170    2.1124    1.2562 H.spc      1 <1>        0.000
     27 H          -0.0947    2.8830    1.1042 H.spc      1 <1>        0.000
     28 H          -1.3858    2.7955    2.4533 H.spc      1 <1>        0.000
     29 H           0.5000   -1.7288   -2.3068 H.spc      1 <1>        0.000
     30 H          -0.4916   -1.5312   -0.7540 H.spc      1 <1>        0.000
     31 H          -1.4496    1.5281   -0.1362 H.spc      1 <1>        0.000
     32 H          -2.2905    3.2245    0.4929 H.spc      1 <1>        0.000
     33 H          -1.4925   -2.8784   -2.0267 H.spc      1 <1>        0.000
     34 H          -1.3925   -1.4270   -3.4626 H.spc      1 <1>        0.000
     35 H          -5.0603    1.1117   -0.3959 H.spc      1 <1>        0.000
     36 H          -3.8929    2.4296   -1.1585 H.spc      1 <1>        0.000
     37 H          -4.4712   -1.3999   -1.3730 H.spc      1 <1>        0.000
     38 H          -2.7917   -0.9503   -0.6665 H.spc      1 <1>        0.000
     39 H          -4.6083    0.4880   -2.4913 H.spc      1 <1>        0.000
     40 H          -2.7856    0.8561   -2.2487 H.spc      1 <1>        0.000
@<TRIPOS>BOND
     1    8   10 1  
     2    1    2 1  
     3    1    3 1  
     4    5    8 1  
     5    4    7 1  
     6    3    5 1  
     7    2    4 1  
     8    7    9 1  
     9   13   14 1  
    10   12   14 1  
    11   11   13 1  
    12    6   12 1  
    13    9    6 1  
    14   10   11 1  
    15    1   15 1  
    16    1   16 1  
    17    2   17 1  
    18    2   18 1  
    19    3   19 1  
    20    3   20 1  
    21    4   21 1  
    22    4   22 1  
    23    5   23 1  
    24    5   24 1  
    25    6   25 1  
    26    6   26 1  
    27    7   27 1  
    28    7   28 1  
    29    8   29 1  
    30    8   30 1  
    31    9   31 1  
    32    9   32 1  
    33   10   33 1  
    34   10   34 1  
    35   12   35 1  
    36   12   36 1  
    37   13   37 1  
    38   13   38 1  
    39   14   39 1  
    40   14   40 1  
