#      Rotatable Fragment
#      Build by yxyuan
#
# Name:          frag5-554-170/138278
# Creation time: Sat Jun  5 12:53:43 2010


@<TRIPOS>MOLECULE
frag5-554-170/138278
   16    16     1     1     1
SMALL
USER_CHARGES


@<TRIPOS>ATOM
      1 C1         -1.8563   -1.0985    0.0407 C.ar       1 <1>        0.000
      2 C2         -1.6473    0.2788   -0.0754 C.ar       1 <1>        0.000
      3 C3         -3.1410   -1.6550    0.1565 C.ar       1 <1>        0.000
      4 C5         -2.7768    1.1150   -0.1025 C.ar       1 <1>        0.000
      5 O1         -0.3611    0.7775   -0.1605 O.3        1 <1>        0.000
      6 C6         -4.2459   -0.7862    0.1990 C.ar       1 <1>        0.000
      7 O2         -3.3295   -3.0227    0.2308 O.3        1 <1>        0.000
      8 C8         -4.0590    0.5894    0.0456 C.ar       1 <1>        0.000
      9 C10        -5.6435   -1.3358    0.4067 C.2        1 <1>        0.000
     10 O3         -6.5589   -1.0352   -0.3456 O.2        1 <1>        0.000
     11 H          -0.9927   -1.7636    0.0414 H.spc      1 <1>        0.000
     12 H          -2.6482    2.1885   -0.2411 H.spc      1 <1>        0.000
     13 H          -0.3942    1.7340   -0.2348 H.spc      1 <1>        0.000
     14 H          -4.2677   -3.2117    0.3057 H.spc      1 <1>        0.000
     15 H          -4.9214    1.2560    0.0417 H.spc      1 <1>        0.000
     16 H          -5.8353   -2.0105    1.2410 H.spc      1 <1>        0.000
@<TRIPOS>BOND
     1    9   10 2  
     2    6    8 ar 
     3    1    2 ar 
     4    1    3 ar 
     5    2    4 ar 
     6    2    5 1  
     7    3    6 ar 
     8    3    7 1  
     9    4    8 ar 
    10    6    9 1  
    11    1   11 1  
    12    4   12 1  
    13    5   13 1  
    14    7   14 1  
    15    8   15 1  
    16    9   16 1  
# Name:          frag5-554-170/138278
# Creation time: Sat Jun  5 12:53:43 2010


@<TRIPOS>MOLECULE
frag5-554-170/138278
   16    16     1     1     1
SMALL
USER_CHARGES


@<TRIPOS>ATOM
      1 C1         -1.9543   -1.1016    0.1249 C.ar       1 <1>        0.000
      2 C2         -1.6158    0.2523    0.0336 C.ar       1 <1>        0.000
      3 C3         -3.2822   -1.5492    0.0299 C.ar       1 <1>        0.000
      4 C5         -2.6510    1.1758   -0.1870 C.ar       1 <1>        0.000
      5 O1         -0.2962    0.6457    0.1586 O.3        1 <1>        0.000
      6 C6         -4.3034   -0.5930   -0.1191 C.ar       1 <1>        0.000
      7 O2         -3.5931   -2.8959    0.0825 O.3        1 <1>        0.000
      8 C8         -3.9799    0.7587   -0.2492 C.ar       1 <1>        0.000
      9 C10        -5.7566   -1.0243   -0.1397 C.2        1 <1>        0.000
     10 O3         -6.1868   -1.8414    0.6608 O.2        1 <1>        0.000
     11 H          -1.1610   -1.8340    0.2748 H.spc      1 <1>        0.000
     12 H          -2.4123    2.2321   -0.3111 H.spc      1 <1>        0.000
     13 H          -0.2384    1.6000    0.0718 H.spc      1 <1>        0.000
     14 H          -4.5432   -3.0072    0.0019 H.spc      1 <1>        0.000
     15 H          -4.7713    1.4928   -0.4004 H.spc      1 <1>        0.000
     16 H          -6.4305   -0.5975   -0.8825 H.spc      1 <1>        0.000
@<TRIPOS>BOND
     1    9   10 2  
     2    6    8 ar 
     3    1    2 ar 
     4    1    3 ar 
     5    2    4 ar 
     6    2    5 1  
     7    3    6 ar 
     8    3    7 1  
     9    4    8 ar 
    10    6    9 1  
    11    1   11 1  
    12    4   12 1  
    13    5   13 1  
    14    7   14 1  
    15    8   15 1  
    16    9   16 1  
# Name:          frag5-554-170/138278 -- energy: -0.242101
# Creation time: Sat Jun  5 12:53:43 2010


@<TRIPOS>MOLECULE
frag5-554-170/138278 -- energy: -0.242101
   16    16     1     1     1
SMALL
USER_CHARGES


@<TRIPOS>ATOM
      1 C1         -1.8563   -1.0985    0.0407 C.ar       1 <1>        0.000
      2 C2         -1.6473    0.2788   -0.0754 C.ar       1 <1>        0.000
      3 C3         -3.1410   -1.6550    0.1565 C.ar       1 <1>        0.000
      4 C5         -2.7768    1.1150   -0.1025 C.ar       1 <1>        0.000
      5 O1         -0.3611    0.7775   -0.1605 O.3        1 <1>        0.000
      6 C6         -4.2459   -0.7862    0.1990 C.ar       1 <1>        0.000
      7 O2         -3.3295   -3.0227    0.2308 O.3        1 <1>        0.000
      8 C8         -4.0590    0.5894    0.0456 C.ar       1 <1>        0.000
      9 C10        -5.6435   -1.3358    0.4067 C.2        1 <1>        0.000
     10 O3         -6.5589   -1.0352   -0.3456 O.2        1 <1>        0.000
     11 H          -0.9927   -1.7636    0.0414 H.spc      1 <1>        0.000
     12 H          -2.6482    2.1885   -0.2411 H.spc      1 <1>        0.000
     13 H          -0.3942    1.7340   -0.2348 H.spc      1 <1>        0.000
     14 H          -4.2677   -3.2117    0.3057 H.spc      1 <1>        0.000
     15 H          -4.9214    1.2560    0.0417 H.spc      1 <1>        0.000
     16 H          -5.8353   -2.0105    1.2410 H.spc      1 <1>        0.000
@<TRIPOS>BOND
     1    9   10 2  
     2    6    8 ar 
     3    1    2 ar 
     4    1    3 ar 
     5    2    4 ar 
     6    2    5 1  
     7    3    6 ar 
     8    3    7 1  
     9    4    8 ar 
    10    6    9 1  
    11    1   11 1  
    12    4   12 1  
    13    5   13 1  
    14    7   14 1  
    15    8   15 1  
    16    9   16 1  
# Name:          frag5-554-170/138278 -- energy: 0.599271
# Creation time: Sat Jun  5 12:53:43 2010


@<TRIPOS>MOLECULE
frag5-554-170/138278 -- energy: 0.599271
   16    16     1     1     1
SMALL
USER_CHARGES


@<TRIPOS>ATOM
      1 C1         -1.9543   -1.1016    0.1249 C.ar       1 <1>        0.000
      2 C2         -1.6158    0.2523    0.0336 C.ar       1 <1>        0.000
      3 C3         -3.2822   -1.5492    0.0299 C.ar       1 <1>        0.000
      4 C5         -2.6510    1.1758   -0.1870 C.ar       1 <1>        0.000
      5 O1         -0.2962    0.6457    0.1586 O.3        1 <1>        0.000
      6 C6         -4.3034   -0.5930   -0.1191 C.ar       1 <1>        0.000
      7 O2         -3.5931   -2.8959    0.0825 O.3        1 <1>        0.000
      8 C8         -3.9799    0.7587   -0.2492 C.ar       1 <1>        0.000
      9 C10        -5.7566   -1.0243   -0.1397 C.2        1 <1>        0.000
     10 O3         -6.1868   -1.8414    0.6608 O.2        1 <1>        0.000
     11 H          -1.1610   -1.8340    0.2748 H.spc      1 <1>        0.000
     12 H          -2.4123    2.2321   -0.3111 H.spc      1 <1>        0.000
     13 H          -0.2384    1.6000    0.0718 H.spc      1 <1>        0.000
     14 H          -4.5432   -3.0072    0.0019 H.spc      1 <1>        0.000
     15 H          -4.7713    1.4928   -0.4004 H.spc      1 <1>        0.000
     16 H          -6.4305   -0.5975   -0.8825 H.spc      1 <1>        0.000
@<TRIPOS>BOND
     1    9   10 2  
     2    6    8 ar 
     3    1    2 ar 
     4    1    3 ar 
     5    2    4 ar 
     6    2    5 1  
     7    3    6 ar 
     8    3    7 1  
     9    4    8 ar 
    10    6    9 1  
    11    1   11 1  
    12    4   12 1  
    13    5   13 1  
    14    7   14 1  
    15    8   15 1  
    16    9   16 1  
