#      Rotatable Fragment
#      Build by yxyuan
#
# Name:          frag4-476-92/150395
# Creation time: Sat Jun  5 12:53:37 2010


@<TRIPOS>MOLECULE
frag4-476-92/150395
   13    13     1     1     1
SMALL
USER_CHARGES


@<TRIPOS>ATOM
      1 C17        -0.3975   -2.8043    0.6326 C.3        1 <1>        0.000
      2 N4          0.7549   -2.0415    0.9298 N.3        1 <1>        0.000
      3 N5          0.0251   -3.7700   -0.3183 N.3        1 <1>        0.000
      4 C18         1.8740   -2.5928    0.2665 C.3        1 <1>        0.000
      5 C20         1.4036   -3.9987   -0.0726 C.3        1 <1>        0.000
      6 H          -1.2004   -2.1804    0.2400 H.spc      1 <1>        0.000
      7 H          -0.8076   -3.2749    1.5261 H.spc      1 <1>        0.000
      8 H           0.9184   -2.0536    1.9365 H.spc      1 <1>        0.000
      9 H          -0.1263   -3.4365   -1.2703 H.spc      1 <1>        0.000
     10 H           2.7771   -2.5826    0.8767 H.spc      1 <1>        0.000
     11 H           2.1714   -2.0207   -0.6124 H.spc      1 <1>        0.000
     12 H           1.9324   -4.4507   -0.9117 H.spc      1 <1>        0.000
     13 H           1.5967   -4.7300    0.7122 H.spc      1 <1>        0.000
@<TRIPOS>BOND
     1    1    2 1  
     2    1    3 1  
     3    2    4 1  
     4    3    5 1  
     5    4    5 1  
     6    1    6 1  
     7    1    7 1  
     8    2    8 1  
     9    3    9 1  
    10    4   10 1  
    11    4   11 1  
    12    5   12 1  
    13    5   13 1  
# Name:          frag4-476-92/150395 -- energy: -0.734054
# Creation time: Sat Jun  5 12:53:37 2010


@<TRIPOS>MOLECULE
frag4-476-92/150395 -- energy: -0.734054
   13    13     1     1     1
SMALL
USER_CHARGES


@<TRIPOS>ATOM
      1 C17        -0.3975   -2.8043    0.6326 C.3        1 <1>        0.000
      2 N4          0.7549   -2.0415    0.9298 N.3        1 <1>        0.000
      3 N5          0.0251   -3.7700   -0.3183 N.3        1 <1>        0.000
      4 C18         1.8740   -2.5928    0.2665 C.3        1 <1>        0.000
      5 C20         1.4036   -3.9987   -0.0726 C.3        1 <1>        0.000
      6 H          -1.2004   -2.1804    0.2400 H.spc      1 <1>        0.000
      7 H          -0.8076   -3.2749    1.5261 H.spc      1 <1>        0.000
      8 H           0.9184   -2.0536    1.9365 H.spc      1 <1>        0.000
      9 H          -0.1263   -3.4365   -1.2703 H.spc      1 <1>        0.000
     10 H           2.7771   -2.5826    0.8767 H.spc      1 <1>        0.000
     11 H           2.1714   -2.0207   -0.6124 H.spc      1 <1>        0.000
     12 H           1.9324   -4.4507   -0.9117 H.spc      1 <1>        0.000
     13 H           1.5967   -4.7300    0.7122 H.spc      1 <1>        0.000
@<TRIPOS>BOND
     1    1    2 1  
     2    1    3 1  
     3    2    4 1  
     4    3    5 1  
     5    4    5 1  
     6    1    6 1  
     7    1    7 1  
     8    2    8 1  
     9    3    9 1  
    10    4   10 1  
    11    4   11 1  
    12    5   12 1  
    13    5   13 1  
