#      Rotatable Fragment
#      Build by yxyuan
#
# Name:          frag5-672-64/138278
# Creation time: Sat Jun  5 12:51:52 2010


@<TRIPOS>MOLECULE
frag5-672-64/138278
   13    13     1     1     1
SMALL
USER_CHARGES


@<TRIPOS>ATOM
      1 N3          2.1075   -0.0058    0.1288 N.pl3      1 <1>        0.000
      2 C12         0.6819    0.0003    0.0416 C.ar       1 <1>        0.000
      3 C15        -0.0436    1.2015   -0.0738 C.ar       1 <1>        0.000
      4 C16        -0.0572   -1.1979    0.0679 C.ar       1 <1>        0.000
      5 C17        -1.4228    1.1812   -0.1558 C.ar       1 <1>        0.000
      6 C18        -1.4315   -1.1730   -0.0189 C.ar       1 <1>        0.000
      7 N4         -2.0672    0.0044   -0.1265 N.ar       1 <1>        0.000
      8 H           2.6235    0.8738    0.1081 H.spc      1 <1>        0.000
      9 H           2.6096   -0.8898    0.2118 H.spc      1 <1>        0.000
     10 H           0.4863    2.1537   -0.0986 H.spc      1 <1>        0.000
     11 H           0.4621   -2.1521    0.1576 H.spc      1 <1>        0.000
     12 H          -1.9823    2.1125   -0.2435 H.spc      1 <1>        0.000
     13 H          -1.9993   -2.1033   -0.0003 H.spc      1 <1>        0.000
@<TRIPOS>BOND
     1    1    2 1  
     2    2    3 ar 
     3    2    4 ar 
     4    3    5 ar 
     5    4    6 ar 
     6    5    7 ar 
     7    6    7 ar 
     8    1    8 1  
     9    1    9 1  
    10    3   10 1  
    11    4   11 1  
    12    5   12 1  
    13    6   13 1  
# Name:          frag5-672-64/138278 -- energy: -0.025326
# Creation time: Sat Jun  5 12:51:52 2010


@<TRIPOS>MOLECULE
frag5-672-64/138278 -- energy: -0.025326
   13    13     1     1     1
SMALL
USER_CHARGES


@<TRIPOS>ATOM
      1 N3          2.1075   -0.0058    0.1288 N.pl3      1 <1>        0.000
      2 C12         0.6819    0.0003    0.0416 C.ar       1 <1>        0.000
      3 C15        -0.0436    1.2015   -0.0738 C.ar       1 <1>        0.000
      4 C16        -0.0572   -1.1979    0.0679 C.ar       1 <1>        0.000
      5 C17        -1.4228    1.1812   -0.1558 C.ar       1 <1>        0.000
      6 C18        -1.4315   -1.1730   -0.0189 C.ar       1 <1>        0.000
      7 N4         -2.0672    0.0044   -0.1265 N.ar       1 <1>        0.000
      8 H           2.6235    0.8738    0.1081 H.spc      1 <1>        0.000
      9 H           2.6096   -0.8898    0.2118 H.spc      1 <1>        0.000
     10 H           0.4863    2.1537   -0.0986 H.spc      1 <1>        0.000
     11 H           0.4621   -2.1521    0.1576 H.spc      1 <1>        0.000
     12 H          -1.9823    2.1125   -0.2435 H.spc      1 <1>        0.000
     13 H          -1.9993   -2.1033   -0.0003 H.spc      1 <1>        0.000
@<TRIPOS>BOND
     1    1    2 1  
     2    2    3 ar 
     3    2    4 ar 
     4    3    5 ar 
     5    4    6 ar 
     6    5    7 ar 
     7    6    7 ar 
     8    1    8 1  
     9    1    9 1  
    10    3   10 1  
    11    4   11 1  
    12    5   12 1  
    13    6   13 1  
