#      Rotatable Fragment
#      Build by yxyuan
#
# Name:          frag5-674-63/138278
# Creation time: Sat Jun  5 12:51:52 2010


@<TRIPOS>MOLECULE
frag5-674-63/138278
   36    39     1     1     1
SMALL
USER_CHARGES


@<TRIPOS>ATOM
      1 C1         -0.4306   -0.3480    0.0773 C.ar       1 <1>        0.000
      2 C2         -0.3880    1.0587    0.1102 C.ar       1 <1>        0.000
      3 C3          0.8497   -1.2205    0.0193 C.3        1 <1>        0.000
      4 C4         -1.6695   -1.0056    0.0887 C.ar       1 <1>        0.000
      5 C5         -1.5842    1.7739    0.2640 C.ar       1 <1>        0.000
      6 C6          0.8902    1.9272   -0.0092 C.3        1 <1>        0.000
      7 C7          2.1423   -0.3637   -0.3266 C.3        1 <1>        0.000
      8 C8         -2.8558   -0.2887    0.2863 C.ar       1 <1>        0.000
      9 O2         -1.7162   -2.3869   -0.1134 O.3        1 <1>        0.000
     10 C9         -2.8103    1.1098    0.3229 C.ar       1 <1>        0.000
     11 O3         -1.5378    3.1758    0.3501 O.3        1 <1>        0.000
     12 C10         2.2488    1.2231   -0.3672 C.3        1 <1>        0.000
     13 C12        -4.1870   -0.9801    0.4652 C.2        1 <1>        0.000
     14 C13        -4.1110    1.8761    0.4096 C.2        1 <1>        0.000
     15 C16        -5.4767   -0.2202    0.2473 C.ar       1 <1>        0.000
     16 O6         -4.2085   -2.1599    0.7860 O.2        1 <1>        0.000
     17 C17        -5.4350    1.1779    0.1986 C.ar       1 <1>        0.000
     18 O7         -4.1018    3.0757    0.6490 O.2        1 <1>        0.000
     19 C21        -6.6992   -0.8816    0.0797 C.ar       1 <1>        0.000
     20 C22        -6.6036    1.9032   -0.0420 C.ar       1 <1>        0.000
     21 C25        -7.8638   -0.1553   -0.1905 C.ar       1 <1>        0.000
     22 C26        -7.8121    1.2402   -0.2558 C.ar       1 <1>        0.000
     23 H           0.7171   -1.9669   -0.7639 H.spc      1 <1>        0.000
     24 H           0.9956   -1.6753    0.9991 H.spc      1 <1>        0.000
     25 H           0.6953    2.6063   -0.8392 H.spc      1 <1>        0.000
     26 H           1.0417    2.3472    0.9851 H.spc      1 <1>        0.000
     27 H           2.3020   -0.6209   -1.3737 H.spc      1 <1>        0.000
     28 H           2.7964   -0.6059    0.5110 H.spc      1 <1>        0.000
     29 H          -2.6284   -2.6838   -0.0770 H.spc      1 <1>        0.000
     30 H          -0.6253    3.4687    0.2934 H.spc      1 <1>        0.000
     31 H           2.9906    1.5292    0.3704 H.spc      1 <1>        0.000
     32 H           2.5222    1.5158   -1.3809 H.spc      1 <1>        0.000
     33 H          -6.7437   -1.9677    0.1601 H.spc      1 <1>        0.000
     34 H          -6.5714    2.9925   -0.0629 H.spc      1 <1>        0.000
     35 H          -8.8083   -0.6756   -0.3496 H.spc      1 <1>        0.000
     36 H          -8.7155    1.8098   -0.4736 H.spc      1 <1>        0.000
@<TRIPOS>BOND
     1    5   10 ar 
     2    1    3 1  
     3    5   11 1  
     4    8   13 1  
     5    6   12 1  
     6    3    7 1  
     7    1    2 ar 
     8    4    9 1  
     9    2    6 1  
    10    2    5 ar 
    11    1    4 ar 
    12    4    8 ar 
    13    8   10 ar 
    14    7   12 1  
    15   21   22 ar 
    16   20   22 ar 
    17   19   21 ar 
    18   15   17 ar 
    19   15   19 ar 
    20   14   18 2  
    21   17   20 ar 
    22   13   16 2  
    23   14   17 1  
    24   13   15 1  
    25   10   14 1  
    26    3   23 1  
    27    3   24 1  
    28    6   25 1  
    29    6   26 1  
    30    7   27 1  
    31    7   28 1  
    32    9   29 1  
    33   11   30 1  
    34   12   31 1  
    35   12   32 1  
    36   19   33 1  
    37   20   34 1  
    38   21   35 1  
    39   22   36 1  
