#      Rotatable Fragment
#      Build by yxyuan
#
# Name:          frag3-122-57/96164
# Creation time: Sat Jun  5 12:52:52 2010


@<TRIPOS>MOLECULE
frag3-122-57/96164
    9     8     1     1     1
SMALL
USER_CHARGES


@<TRIPOS>ATOM
      1 C16        -1.5166    0.1038   -0.0928 C.2        1 <1>        0.000
      2 N2         -0.3986   -0.6439   -0.2784 N.am       1 <1>        0.000
      3 O3         -1.6588    1.1020    0.6024 O.2        1 <1>        0.000
      4 C17        -0.4308   -1.1567   -1.5297 C.2        1 <1>        0.000
      5 O4          0.7662   -1.7269   -1.7145 O.3        1 <1>        0.000
      6 O5         -1.2865   -1.1974   -2.3926 O.2        1 <1>        0.000
      7 H          -2.4034   -0.2276   -0.6331 H.spc      1 <1>        0.000
      8 H           0.3401   -0.7935    0.4089 H.spc      1 <1>        0.000
      9 H           1.3067   -1.5943   -0.9323 H.spc      1 <1>        0.000
@<TRIPOS>BOND
     1    1    2 am 
     2    1    3 2  
     3    2    4 am 
     4    4    5 1  
     5    4    6 2  
     6    1    7 1  
     7    2    8 1  
     8    5    9 1  
# Name:          frag3-122-57/96164
# Creation time: Sat Jun  5 12:52:52 2010


@<TRIPOS>MOLECULE
frag3-122-57/96164
    9     8     1     1     1
SMALL
USER_CHARGES


@<TRIPOS>ATOM
      1 C16        -1.4638    0.1189    0.1965 C.2        1 <1>        0.000
      2 N2         -1.6288   -0.9702   -0.5926 N.am       1 <1>        0.000
      3 O3         -0.5164    0.8830    0.3799 O.2        1 <1>        0.000
      4 C17        -0.6381   -1.1587   -1.5513 C.2        1 <1>        0.000
      5 O4          0.5453   -0.5887   -1.2787 O.3        1 <1>        0.000
      6 O5         -0.8232   -1.8036   -2.5594 O.2        1 <1>        0.000
      7 H          -2.3458    0.3680    0.7864 H.spc      1 <1>        0.000
      8 H          -2.4208   -1.6050   -0.4913 H.spc      1 <1>        0.000
      9 H           0.4902   -0.1251   -0.4399 H.spc      1 <1>        0.000
@<TRIPOS>BOND
     1    1    2 am 
     2    1    3 2  
     3    2    4 am 
     4    4    5 1  
     5    4    6 2  
     6    1    7 1  
     7    2    8 1  
     8    5    9 1  
# Name:          frag3-122-57/96164 -- energy: 1.485075
# Creation time: Sat Jun  5 12:52:52 2010


@<TRIPOS>MOLECULE
frag3-122-57/96164 -- energy: 1.485075
    9     8     1     1     1
SMALL
USER_CHARGES


@<TRIPOS>ATOM
      1 C16        -1.5166    0.1038   -0.0928 C.2        1 <1>        0.000
      2 N2         -0.3986   -0.6439   -0.2784 N.am       1 <1>        0.000
      3 O3         -1.6588    1.1020    0.6024 O.2        1 <1>        0.000
      4 C17        -0.4308   -1.1567   -1.5297 C.2        1 <1>        0.000
      5 O4          0.7662   -1.7269   -1.7145 O.3        1 <1>        0.000
      6 O5         -1.2865   -1.1974   -2.3926 O.2        1 <1>        0.000
      7 H          -2.4034   -0.2276   -0.6331 H.spc      1 <1>        0.000
      8 H           0.3401   -0.7935    0.4089 H.spc      1 <1>        0.000
      9 H           1.3067   -1.5943   -0.9323 H.spc      1 <1>        0.000
@<TRIPOS>BOND
     1    1    2 am 
     2    1    3 2  
     3    2    4 am 
     4    4    5 1  
     5    4    6 2  
     6    1    7 1  
     7    2    8 1  
     8    5    9 1  
