#      Rotatable Fragment
#      Build by yxyuan
#
# Name:          frag4-382-75/48856
# Creation time: Sat Jun  5 12:53:37 2010


@<TRIPOS>MOLECULE
frag4-382-75/48856
   20    22     1     1     1
SMALL
USER_CHARGES


@<TRIPOS>ATOM
      1 N1          0.3489    1.7428    0.1364 N.ar       1 <1>        0.000
      2 C1          1.4295    0.9143    0.1176 C.ar       1 <1>        0.000
      3 C2          2.7729    1.0354    0.1627 C.ar       1 <1>        0.000
      4 N2          3.5684   -0.0872    0.1568 N.ar       1 <1>        0.000
      5 C3          3.0983   -1.3794    0.0732 C.ar       1 <1>        0.000
      6 C4          1.7621   -1.6050   -0.0297 C.ar       1 <1>        0.000
      7 C5          0.8750   -0.4464   -0.0013 C.ar       1 <1>        0.000
      8 C6         -0.4747   -0.4183   -0.0598 C.ar       1 <1>        0.000
      9 C7         -0.7429    1.0638    0.0561 C.ar       1 <1>        0.000
     10 C8         -2.1635    1.5165    0.0711 C.ar       1 <1>        0.000
     11 C9         -3.0907    0.5338   -0.0661 C.ar       1 <1>        0.000
     12 C10        -2.8241   -0.8743   -0.2404 C.ar       1 <1>        0.000
     13 C11        -1.5545   -1.3291   -0.2133 C.ar       1 <1>        0.000
     14 H           3.2287    2.0247    0.2039 H.spc      1 <1>        0.000
     15 H           3.7951   -2.2174    0.0895 H.spc      1 <1>        0.000
     16 H           1.3668   -2.6158   -0.1299 H.spc      1 <1>        0.000
     17 H          -2.4391    2.5650    0.1845 H.spc      1 <1>        0.000
     18 H          -4.1373    0.8375   -0.0423 H.spc      1 <1>        0.000
     19 H          -3.6490   -1.5701   -0.3939 H.spc      1 <1>        0.000
     20 H          -1.3566   -2.3967   -0.3093 H.spc      1 <1>        0.000
@<TRIPOS>BOND
     1   11   12 ar 
     2    8   13 ar 
     3    5    6 ar 
     4    8    9 ar 
     5    2    7 ar 
     6    4    5 ar 
     7    7    8 ar 
     8   12   13 ar 
     9    3    4 ar 
    10    2    3 ar 
    11    6    7 ar 
    12    1    2 ar 
    13    1    9 ar 
    14   10   11 ar 
    15    9   10 ar 
    16    3   14 1  
    17    5   15 1  
    18    6   16 1  
    19   10   17 1  
    20   11   18 1  
    21   12   19 1  
    22   13   20 1  
# Name:          frag4-382-75/48856 -- energy: -1.155228
# Creation time: Sat Jun  5 12:53:37 2010


@<TRIPOS>MOLECULE
frag4-382-75/48856 -- energy: -1.155228
   20    22     1     1     1
SMALL
USER_CHARGES


@<TRIPOS>ATOM
      1 N1          0.3489    1.7428    0.1364 N.ar       1 <1>        0.000
      2 C1          1.4295    0.9143    0.1176 C.ar       1 <1>        0.000
      3 C2          2.7729    1.0354    0.1627 C.ar       1 <1>        0.000
      4 N2          3.5684   -0.0872    0.1568 N.ar       1 <1>        0.000
      5 C3          3.0983   -1.3794    0.0732 C.ar       1 <1>        0.000
      6 C4          1.7621   -1.6050   -0.0297 C.ar       1 <1>        0.000
      7 C5          0.8750   -0.4464   -0.0013 C.ar       1 <1>        0.000
      8 C6         -0.4747   -0.4183   -0.0598 C.ar       1 <1>        0.000
      9 C7         -0.7429    1.0638    0.0561 C.ar       1 <1>        0.000
     10 C8         -2.1635    1.5165    0.0711 C.ar       1 <1>        0.000
     11 C9         -3.0907    0.5338   -0.0661 C.ar       1 <1>        0.000
     12 C10        -2.8241   -0.8743   -0.2404 C.ar       1 <1>        0.000
     13 C11        -1.5545   -1.3291   -0.2133 C.ar       1 <1>        0.000
     14 H           3.2287    2.0247    0.2039 H.spc      1 <1>        0.000
     15 H           3.7951   -2.2174    0.0895 H.spc      1 <1>        0.000
     16 H           1.3668   -2.6158   -0.1299 H.spc      1 <1>        0.000
     17 H          -2.4391    2.5650    0.1845 H.spc      1 <1>        0.000
     18 H          -4.1373    0.8375   -0.0423 H.spc      1 <1>        0.000
     19 H          -3.6490   -1.5701   -0.3939 H.spc      1 <1>        0.000
     20 H          -1.3566   -2.3967   -0.3093 H.spc      1 <1>        0.000
@<TRIPOS>BOND
     1   11   12 ar 
     2    8   13 ar 
     3    5    6 ar 
     4    8    9 ar 
     5    2    7 ar 
     6    4    5 ar 
     7    7    8 ar 
     8   12   13 ar 
     9    3    4 ar 
    10    2    3 ar 
    11    6    7 ar 
    12    1    2 ar 
    13    1    9 ar 
    14   10   11 ar 
    15    9   10 ar 
    16    3   14 1  
    17    5   15 1  
    18    6   16 1  
    19   10   17 1  
    20   11   18 1  
    21   12   19 1  
    22   13   20 1  
