#      Rotatable Fragment
#      Build by yxyuan
#
# Name:          frag5-542-70/41815
# Creation time: Sat Jun  5 12:52:52 2010


@<TRIPOS>MOLECULE
frag5-542-70/41815
   13    13     1     1     1
SMALL
USER_CHARGES


@<TRIPOS>ATOM
      1 S1          1.7239   -1.5636    0.8455 S.3        1 <1>        0.000
      2 C15         3.4475   -1.4983    1.0967 C.ar       1 <1>        0.000
      3 C16         4.2266   -1.6525   -0.0841 C.ar       1 <1>        0.000
      4 C17         5.6037   -1.6240   -0.0090 C.ar       1 <1>        0.000
      5 C18         6.2498   -1.4433    1.2284 C.ar       1 <1>        0.000
      6 C19         5.4733   -1.2948    2.3937 C.ar       1 <1>        0.000
      7 C20         4.1073   -1.3252    2.3290 C.ar       1 <1>        0.000
      8 H           1.1015   -1.4089    2.0106 H.spc      1 <1>        0.000
      9 H           3.7356   -1.7930   -1.0471 H.spc      1 <1>        0.000
     10 H           6.1967   -1.7425   -0.9159 H.spc      1 <1>        0.000
     11 H           7.3381   -1.4186    1.2839 H.spc      1 <1>        0.000
     12 H           5.9653   -1.1543    3.3561 H.spc      1 <1>        0.000
     13 H           3.5224   -1.2141    3.2420 H.spc      1 <1>        0.000
@<TRIPOS>BOND
     1    1    2 1  
     2    2    3 ar 
     3    2    7 ar 
     4    3    4 ar 
     5    4    5 ar 
     6    5    6 ar 
     7    6    7 ar 
     8    1    8 1  
     9    3    9 1  
    10    4   10 1  
    11    5   11 1  
    12    6   12 1  
    13    7   13 1  
# Name:          frag5-542-70/41815 -- energy: -0.190701
# Creation time: Sat Jun  5 12:52:52 2010


@<TRIPOS>MOLECULE
frag5-542-70/41815 -- energy: -0.190701
   13    13     1     1     1
SMALL
USER_CHARGES


@<TRIPOS>ATOM
      1 S1          1.7239   -1.5636    0.8455 S.3        1 <1>        0.000
      2 C15         3.4475   -1.4983    1.0967 C.ar       1 <1>        0.000
      3 C16         4.2266   -1.6525   -0.0841 C.ar       1 <1>        0.000
      4 C17         5.6037   -1.6240   -0.0090 C.ar       1 <1>        0.000
      5 C18         6.2498   -1.4433    1.2284 C.ar       1 <1>        0.000
      6 C19         5.4733   -1.2948    2.3937 C.ar       1 <1>        0.000
      7 C20         4.1073   -1.3252    2.3290 C.ar       1 <1>        0.000
      8 H           1.1015   -1.4089    2.0106 H.spc      1 <1>        0.000
      9 H           3.7356   -1.7930   -1.0471 H.spc      1 <1>        0.000
     10 H           6.1967   -1.7425   -0.9159 H.spc      1 <1>        0.000
     11 H           7.3381   -1.4186    1.2839 H.spc      1 <1>        0.000
     12 H           5.9653   -1.1543    3.3561 H.spc      1 <1>        0.000
     13 H           3.5224   -1.2141    3.2420 H.spc      1 <1>        0.000
@<TRIPOS>BOND
     1    1    2 1  
     2    2    3 ar 
     3    2    7 ar 
     4    3    4 ar 
     5    4    5 ar 
     6    5    6 ar 
     7    6    7 ar 
     8    1    8 1  
     9    3    9 1  
    10    4   10 1  
    11    5   11 1  
    12    6   12 1  
    13    7   13 1  
