#      Rotatable Fragment
#      Build by yxyuan
#
# Name:          frag5-653-73/138278
# Creation time: Sat Jun  5 12:53:50 2010


@<TRIPOS>MOLECULE
frag5-653-73/138278
   12    12     1     1     1
SMALL
USER_CHARGES


@<TRIPOS>ATOM
      1 N1          2.3671    0.0761   -0.0000 N.am       1 <1>        0.000
      2 C1          2.3763   -1.2687    0.0000 C.2        1 <1>        0.000
      3 C2          3.6155    0.5760   -0.0000 C.2        1 <1>        0.000
      4 C4          3.7785   -1.8054   -0.0000 C.3        1 <1>        0.000
      5 O1          1.3876   -1.9862   -0.0000 O.2        1 <1>        0.000
      6 C5          4.6425   -0.5193   -0.0000 C.3        1 <1>        0.000
      7 O2          3.9059    1.7626    0.0000 O.2        1 <1>        0.000
      8 H           1.5204    0.6449   -0.0000 H.spc      1 <1>        0.000
      9 H           3.9836   -2.4526   -0.8527 H.spc      1 <1>        0.000
     10 H           3.9836   -2.4526    0.8527 H.spc      1 <1>        0.000
     11 H           5.3192   -0.4645    0.8527 H.spc      1 <1>        0.000
     12 H           5.3192   -0.4645   -0.8527 H.spc      1 <1>        0.000
@<TRIPOS>BOND
     1    1    2 am 
     2    1    3 am 
     3    2    4 1  
     4    2    5 2  
     5    3    6 1  
     6    3    7 2  
     7    4    6 1  
     8    1    8 1  
     9    4    9 1  
    10    4   10 1  
    11    6   11 1  
    12    6   12 1  
# Name:          frag5-653-73/138278 -- energy: -0.775731
# Creation time: Sat Jun  5 12:53:50 2010


@<TRIPOS>MOLECULE
frag5-653-73/138278 -- energy: -0.775731
   12    12     1     1     1
SMALL
USER_CHARGES


@<TRIPOS>ATOM
      1 N1          2.3671    0.0761   -0.0000 N.am       1 <1>        0.000
      2 C1          2.3763   -1.2687    0.0000 C.2        1 <1>        0.000
      3 C2          3.6155    0.5760   -0.0000 C.2        1 <1>        0.000
      4 C4          3.7785   -1.8054   -0.0000 C.3        1 <1>        0.000
      5 O1          1.3876   -1.9862   -0.0000 O.2        1 <1>        0.000
      6 C5          4.6425   -0.5193   -0.0000 C.3        1 <1>        0.000
      7 O2          3.9059    1.7626    0.0000 O.2        1 <1>        0.000
      8 H           1.5204    0.6449   -0.0000 H.spc      1 <1>        0.000
      9 H           3.9836   -2.4526   -0.8527 H.spc      1 <1>        0.000
     10 H           3.9836   -2.4526    0.8527 H.spc      1 <1>        0.000
     11 H           5.3192   -0.4645    0.8527 H.spc      1 <1>        0.000
     12 H           5.3192   -0.4645   -0.8527 H.spc      1 <1>        0.000
@<TRIPOS>BOND
     1    1    2 am 
     2    1    3 am 
     3    2    4 1  
     4    2    5 2  
     5    3    6 1  
     6    3    7 2  
     7    4    6 1  
     8    1    8 1  
     9    4    9 1  
    10    4   10 1  
    11    6   11 1  
    12    6   12 1  
