#      Rotatable Fragment
#      Build by yxyuan
#
# Name:          frag3-183-10/96164
# Creation time: Sat Jun  5 12:53:08 2010


@<TRIPOS>MOLECULE
frag3-183-10/96164
   17    16     1     1     1
SMALL
USER_CHARGES


@<TRIPOS>ATOM
      1 C53        -1.0222   -0.8608    0.3115 C.2        1 <1>        0.000
      2 C55        -0.0284   -0.3553    1.0474 C.2        1 <1>        0.000
      3 C58         1.3215   -0.7136    0.8815 C.2        1 <1>        0.000
      4 C61         2.2918   -0.7728    1.7718 C.2        1 <1>        0.000
      5 C63         3.6327   -1.1701    1.5963 C.2        1 <1>        0.000
      6 C64         4.5648   -1.2956    2.5365 C.2        1 <1>        0.000
      7 C65         5.8891   -1.7629    2.1726 C.2        1 <1>        0.000
      8 O20         6.7475   -1.7174    3.1854 O.3        1 <1>        0.000
      9 O21         6.1968   -2.1612    1.0607 O.2        1 <1>        0.000
     10 H          -0.8062   -1.5924   -0.4671 H.spc      1 <1>        0.000
     11 H          -2.0491   -0.5417    0.4897 H.spc      1 <1>        0.000
     12 H          -0.2772    0.3743    1.8181 H.spc      1 <1>        0.000
     13 H           1.6082   -0.9825   -0.1352 H.spc      1 <1>        0.000
     14 H           2.0195   -0.4730    2.7838 H.spc      1 <1>        0.000
     15 H           3.9400   -1.4002    0.5761 H.spc      1 <1>        0.000
     16 H           4.3354   -1.0491    3.5732 H.spc      1 <1>        0.000
     17 H           6.3035   -1.3747    3.9645 H.spc      1 <1>        0.000
@<TRIPOS>BOND
     1    7    9 2  
     2    6    7 1  
     3    7    8 1  
     4    1    2 2  
     5    2    3 1  
     6    3    4 2  
     7    4    5 1  
     8    5    6 2  
     9    1   10 1  
    10    1   11 1  
    11    2   12 1  
    12    3   13 1  
    13    4   14 1  
    14    5   15 1  
    15    6   16 1  
    16    8   17 1  
# Name:          frag3-183-10/96164
# Creation time: Sat Jun  5 12:53:08 2010


@<TRIPOS>MOLECULE
frag3-183-10/96164
   17    16     1     1     1
SMALL
USER_CHARGES


@<TRIPOS>ATOM
      1 C53        -0.6108   -0.2610    0.2430 C.2        1 <1>        0.000
      2 C55         0.0965   -0.3043    1.3722 C.2        1 <1>        0.000
      3 C58         1.4835   -0.5261    1.4356 C.2        1 <1>        0.000
      4 C61         2.1289   -1.6873    1.3487 C.2        1 <1>        0.000
      5 C63         3.5254   -1.9139    1.3683 C.2        1 <1>        0.000
      6 C64         4.3716   -1.3368    2.2250 C.2        1 <1>        0.000
      7 C65         5.7963   -1.5727    2.1523 C.2        1 <1>        0.000
      8 O20         6.4624   -0.9797    3.1343 O.3        1 <1>        0.000
      9 O21         6.3398   -2.2280    1.2842 O.2        1 <1>        0.000
     10 H          -0.1143   -0.4029   -0.7169 H.spc      1 <1>        0.000
     11 H          -1.6857   -0.0837    0.2796 H.spc      1 <1>        0.000
     12 H          -0.4373   -0.1576    2.3112 H.spc      1 <1>        0.000
     13 H           2.1049    0.3589    1.5723 H.spc      1 <1>        0.000
     14 H           1.5032   -2.5744    1.2501 H.spc      1 <1>        0.000
     15 H           3.9383   -2.6062    0.6346 H.spc      1 <1>        0.000
     16 H           3.9798   -0.6734    2.9960 H.spc      1 <1>        0.000
     17 H           5.8442   -0.5182    3.7057 H.spc      1 <1>        0.000
@<TRIPOS>BOND
     1    7    9 2  
     2    6    7 1  
     3    7    8 1  
     4    1    2 2  
     5    2    3 1  
     6    3    4 2  
     7    4    5 1  
     8    5    6 2  
     9    1   10 1  
    10    1   11 1  
    11    2   12 1  
    12    3   13 1  
    13    4   14 1  
    14    5   15 1  
    15    6   16 1  
    16    8   17 1  
# Name:          frag3-183-10/96164
# Creation time: Sat Jun  5 12:53:08 2010


@<TRIPOS>MOLECULE
frag3-183-10/96164
   17    16     1     1     1
SMALL
USER_CHARGES


@<TRIPOS>ATOM
      1 C53        -1.2106   -0.8315    0.8595 C.2        1 <1>        0.000
      2 C55         0.0082   -0.2953    0.8994 C.2        1 <1>        0.000
      3 C58         1.1973   -1.0057    1.1659 C.2        1 <1>        0.000
      4 C61         2.4641   -0.6140    1.2814 C.2        1 <1>        0.000
      5 C63         3.6168   -1.3672    1.5768 C.2        1 <1>        0.000
      6 C64         4.8300   -0.8632    1.8189 C.2        1 <1>        0.000
      7 C65         5.9409   -1.7185    2.1603 C.2        1 <1>        0.000
      8 O20         5.8536   -2.2382    3.3818 O.3        1 <1>        0.000
      9 O21         6.8933   -1.8761    1.4197 O.2        1 <1>        0.000
     10 H          -1.3430   -1.8981    1.0412 H.spc      1 <1>        0.000
     11 H          -2.0755   -0.2037    0.6452 H.spc      1 <1>        0.000
     12 H           0.0932    0.7750    0.7116 H.spc      1 <1>        0.000
     13 H           1.0513   -2.0771    1.3031 H.spc      1 <1>        0.000
     14 H           2.6352    0.4508    1.1235 H.spc      1 <1>        0.000
     15 H           3.5102   -2.4514    1.6107 H.spc      1 <1>        0.000
     16 H           4.9836    0.2142    1.7574 H.spc      1 <1>        0.000
     17 H           5.0175   -1.9824    3.7782 H.spc      1 <1>        0.000
@<TRIPOS>BOND
     1    7    9 2  
     2    6    7 1  
     3    7    8 1  
     4    1    2 2  
     5    2    3 1  
     6    3    4 2  
     7    4    5 1  
     8    5    6 2  
     9    1   10 1  
    10    1   11 1  
    11    2   12 1  
    12    3   13 1  
    13    4   14 1  
    14    5   15 1  
    15    6   16 1  
    16    8   17 1  
# Name:          frag3-183-10/96164
# Creation time: Sat Jun  5 12:53:08 2010


@<TRIPOS>MOLECULE
frag3-183-10/96164
   17    16     1     1     1
SMALL
USER_CHARGES


@<TRIPOS>ATOM
      1 C53        -0.5328   -0.7891    0.0681 C.2        1 <1>        0.000
      2 C55        -0.1011   -0.4083    1.2787 C.2        1 <1>        0.000
      3 C58         1.2748   -0.1761    1.5138 C.2        1 <1>        0.000
      4 C61         2.1887   -1.1171    1.6108 C.2        1 <1>        0.000
      5 C63         3.5736   -1.0212    1.7767 C.2        1 <1>        0.000
      6 C64         4.4160   -2.0514    1.9444 C.2        1 <1>        0.000
      7 C65         5.8587   -1.8405    2.0523 C.2        1 <1>        0.000
      8 O20         6.2552   -0.8728    2.8857 O.3        1 <1>        0.000
      9 O21         6.6604   -2.5333    1.4331 O.2        1 <1>        0.000
     10 H           0.1785   -0.9228   -0.7470 H.spc      1 <1>        0.000
     11 H          -1.5951   -0.9651   -0.1012 H.spc      1 <1>        0.000
     12 H          -0.8170   -0.2762    2.0900 H.spc      1 <1>        0.000
     13 H           1.6012    0.8582    1.6225 H.spc      1 <1>        0.000
     14 H           1.8045   -2.1355    1.5525 H.spc      1 <1>        0.000
     15 H           4.0069   -0.0211    1.7691 H.spc      1 <1>        0.000
     16 H           4.0177   -3.0644    2.0013 H.spc      1 <1>        0.000
     17 H           5.4851   -0.4483    3.2709 H.spc      1 <1>        0.000
@<TRIPOS>BOND
     1    7    9 2  
     2    6    7 1  
     3    7    8 1  
     4    1    2 2  
     5    2    3 1  
     6    3    4 2  
     7    4    5 1  
     8    5    6 2  
     9    1   10 1  
    10    1   11 1  
    11    2   12 1  
    12    3   13 1  
    13    4   14 1  
    14    5   15 1  
    15    6   16 1  
    16    8   17 1  
# Name:          frag3-183-10/96164
# Creation time: Sat Jun  5 12:53:08 2010


@<TRIPOS>MOLECULE
frag3-183-10/96164
   17    16     1     1     1
SMALL
USER_CHARGES


@<TRIPOS>ATOM
      1 C53        -0.5953   -1.1000    1.6018 C.2        1 <1>        0.000
      2 C55         0.1956   -0.2054    1.0044 C.2        1 <1>        0.000
      3 C58         1.5764   -0.2875    1.1900 C.2        1 <1>        0.000
      4 C61         2.3896   -1.1522    0.5773 C.2        1 <1>        0.000
      5 C63         3.7799   -1.3168    0.7880 C.2        1 <1>        0.000
      6 C64         4.2209   -1.4934    2.0361 C.2        1 <1>        0.000
      7 C65         5.6337   -1.6894    2.3105 C.2        1 <1>        0.000
      8 O20         5.9041   -1.7848    3.6140 O.3        1 <1>        0.000
      9 O21         6.4887   -1.7803    1.4416 O.2        1 <1>        0.000
     10 H          -0.1606   -1.8815    2.2250 H.spc      1 <1>        0.000
     11 H          -1.6756   -1.0488    1.4663 H.spc      1 <1>        0.000
     12 H          -0.2317    0.5790    0.3797 H.spc      1 <1>        0.000
     13 H           2.0287    0.4119    1.8931 H.spc      1 <1>        0.000
     14 H           1.9320   -1.8033   -0.1675 H.spc      1 <1>        0.000
     15 H           4.4757   -1.2997   -0.0508 H.spc      1 <1>        0.000
     16 H           3.5094   -1.4904    2.8619 H.spc      1 <1>        0.000
     17 H           5.0921   -1.6848    4.1163 H.spc      1 <1>        0.000
@<TRIPOS>BOND
     1    7    9 2  
     2    6    7 1  
     3    7    8 1  
     4    1    2 2  
     5    2    3 1  
     6    3    4 2  
     7    4    5 1  
     8    5    6 2  
     9    1   10 1  
    10    1   11 1  
    11    2   12 1  
    12    3   13 1  
    13    4   14 1  
    14    5   15 1  
    15    6   16 1  
    16    8   17 1  
# Name:          frag3-183-10/96164
# Creation time: Sat Jun  5 12:53:08 2010


@<TRIPOS>MOLECULE
frag3-183-10/96164
   17    16     1     1     1
SMALL
USER_CHARGES


@<TRIPOS>ATOM
      1 C53        -0.6432   -0.4346    0.2570 C.2        1 <1>        0.000
      2 C55        -0.0327   -0.9046    1.3398 C.2        1 <1>        0.000
      3 C58         1.3437   -1.1980    1.4416 C.2        1 <1>        0.000
      4 C61         2.3880   -0.3722    1.3209 C.2        1 <1>        0.000
      5 C63         3.7672   -0.6929    1.3741 C.2        1 <1>        0.000
      6 C64         4.3352   -1.5277    2.2498 C.2        1 <1>        0.000
      7 C65         5.7460   -1.8204    2.1614 C.2        1 <1>        0.000
      8 O20         6.4346   -1.5780    3.2668 O.3        1 <1>        0.000
      9 O21         6.2550   -2.2815    1.1524 O.2        1 <1>        0.000
     10 H          -0.0719   -0.2449   -0.6517 H.spc      1 <1>        0.000
     11 H          -1.7153   -0.2388    0.2776 H.spc      1 <1>        0.000
     12 H          -0.6468   -1.0780    2.2235 H.spc      1 <1>        0.000
     13 H           1.5889   -2.2401    1.6466 H.spc      1 <1>        0.000
     14 H           2.1487    0.6792    1.1617 H.spc      1 <1>        0.000
     15 H           4.4190   -0.2195    0.6399 H.spc      1 <1>        0.000
     16 H           3.7320   -1.9883    3.0322 H.spc      1 <1>        0.000
     17 H           5.8473   -1.2195    3.9362 H.spc      1 <1>        0.000
@<TRIPOS>BOND
     1    7    9 2  
     2    6    7 1  
     3    7    8 1  
     4    1    2 2  
     5    2    3 1  
     6    3    4 2  
     7    4    5 1  
     8    5    6 2  
     9    1   10 1  
    10    1   11 1  
    11    2   12 1  
    12    3   13 1  
    13    4   14 1  
    14    5   15 1  
    15    6   16 1  
    16    8   17 1  
# Name:          frag3-183-10/96164
# Creation time: Sat Jun  5 12:53:08 2010


@<TRIPOS>MOLECULE
frag3-183-10/96164
   17    16     1     1     1
SMALL
USER_CHARGES


@<TRIPOS>ATOM
      1 C53        -0.5012   -0.1520    1.7730 C.2        1 <1>        0.000
      2 C55         0.0851   -0.9713    0.9074 C.2        1 <1>        0.000
      3 C58         1.4374   -1.3186    1.0571 C.2        1 <1>        0.000
      4 C61         2.5032   -0.6980    0.5595 C.2        1 <1>        0.000
      5 C63         3.8369   -1.0740    0.8111 C.2        1 <1>        0.000
      6 C64         4.2814   -1.2144    2.0641 C.2        1 <1>        0.000
      7 C65         5.6363   -1.6418    2.3254 C.2        1 <1>        0.000
      8 O20         5.8100   -2.0350    3.5851 O.3        1 <1>        0.000
      9 O21         6.5046   -1.7047    1.4809 O.2        1 <1>        0.000
     10 H           0.0679    0.2566    2.6080 H.spc      1 <1>        0.000
     11 H          -1.5515    0.1117    1.6483 H.spc      1 <1>        0.000
     12 H          -0.4882   -1.3774    0.0740 H.spc      1 <1>        0.000
     13 H           1.6386   -2.2072    1.6555 H.spc      1 <1>        0.000
     14 H           2.3326    0.1618   -0.0884 H.spc      1 <1>        0.000
     15 H           4.5138   -1.2524   -0.0245 H.spc      1 <1>        0.000
     16 H           3.6131   -1.0037    2.8990 H.spc      1 <1>        0.000
     17 H           4.9974   -1.8967    4.0772 H.spc      1 <1>        0.000
@<TRIPOS>BOND
     1    7    9 2  
     2    6    7 1  
     3    7    8 1  
     4    1    2 2  
     5    2    3 1  
     6    3    4 2  
     7    4    5 1  
     8    5    6 2  
     9    1   10 1  
    10    1   11 1  
    11    2   12 1  
    12    3   13 1  
    13    4   14 1  
    14    5   15 1  
    15    6   16 1  
    16    8   17 1  
# Name:          frag3-183-10/96164
# Creation time: Sat Jun  5 12:53:08 2010


@<TRIPOS>MOLECULE
frag3-183-10/96164
   17    16     1     1     1
SMALL
USER_CHARGES


@<TRIPOS>ATOM
      1 C53        -0.1729   -0.0875   -0.0929 C.2        1 <1>        0.000
      2 C55         0.0660   -0.8579    0.9736 C.2        1 <1>        0.000
      3 C58         1.3753   -1.2068    1.3285 C.2        1 <1>        0.000
      4 C61         2.1332   -0.8247    2.3609 C.2        1 <1>        0.000
      5 C63         3.4827   -1.1891    2.6046 C.2        1 <1>        0.000
      6 C64         4.3615   -1.3270    1.6045 C.2        1 <1>        0.000
      7 C65         5.7329   -1.7010    1.8297 C.2        1 <1>        0.000
      8 O20         6.3167   -1.1365    2.8774 O.3        1 <1>        0.000
      9 O21         6.2982   -2.4791    1.0774 O.2        1 <1>        0.000
     10 H           0.6567    0.2773   -0.6985 H.spc      1 <1>        0.000
     11 H          -1.1972    0.1757   -0.3567 H.spc      1 <1>        0.000
     12 H          -0.7687   -1.2190    1.5744 H.spc      1 <1>        0.000
     13 H           1.8575   -1.9084    0.6478 H.spc      1 <1>        0.000
     14 H           1.6661   -0.1645    3.0917 H.spc      1 <1>        0.000
     15 H           3.8112   -1.3606    3.6297 H.spc      1 <1>        0.000
     16 H           4.0264   -1.1496    0.5826 H.spc      1 <1>        0.000
     17 H           5.6877   -0.5643    3.3230 H.spc      1 <1>        0.000
@<TRIPOS>BOND
     1    7    9 2  
     2    6    7 1  
     3    7    8 1  
     4    1    2 2  
     5    2    3 1  
     6    3    4 2  
     7    4    5 1  
     8    5    6 2  
     9    1   10 1  
    10    1   11 1  
    11    2   12 1  
    12    3   13 1  
    13    4   14 1  
    14    5   15 1  
    15    6   16 1  
    16    8   17 1  
# Name:          frag3-183-10/96164
# Creation time: Sat Jun  5 12:53:08 2010


@<TRIPOS>MOLECULE
frag3-183-10/96164
   17    16     1     1     1
SMALL
USER_CHARGES


@<TRIPOS>ATOM
      1 C53        -0.7980   -0.5418    1.4034 C.2        1 <1>        0.000
      2 C55         0.1900   -0.9482    0.6119 C.2        1 <1>        0.000
      3 C58         1.4844   -1.1795    1.1003 C.2        1 <1>        0.000
      4 C61         2.4674   -0.2880    1.2300 C.2        1 <1>        0.000
      5 C63         3.7576   -0.5143    1.7553 C.2        1 <1>        0.000
      6 C64         4.4053   -1.6578    1.5136 C.2        1 <1>        0.000
      7 C65         5.7010   -1.8484    2.1009 C.2        1 <1>        0.000
      8 O20         5.6884   -1.8911    3.4301 O.3        1 <1>        0.000
      9 O21         6.6974   -1.9407    1.4184 O.2        1 <1>        0.000
     10 H          -0.6137   -0.3788    2.4653 H.spc      1 <1>        0.000
     11 H          -1.7923   -0.3716    0.9904 H.spc      1 <1>        0.000
     12 H          -0.0118   -1.1063   -0.4475 H.spc      1 <1>        0.000
     13 H           1.7117   -2.2003    1.4076 H.spc      1 <1>        0.000
     14 H           2.2509    0.7260    0.8937 H.spc      1 <1>        0.000
     15 H           4.2319    0.2538    2.3662 H.spc      1 <1>        0.000
     16 H           3.9597   -2.4285    0.8846 H.spc      1 <1>        0.000
     17 H           4.7859   -1.7974    3.7436 H.spc      1 <1>        0.000
@<TRIPOS>BOND
     1    7    9 2  
     2    6    7 1  
     3    7    8 1  
     4    1    2 2  
     5    2    3 1  
     6    3    4 2  
     7    4    5 1  
     8    5    6 2  
     9    1   10 1  
    10    1   11 1  
    11    2   12 1  
    12    3   13 1  
    13    4   14 1  
    14    5   15 1  
    15    6   16 1  
    16    8   17 1  
# Name:          frag3-183-10/96164
# Creation time: Sat Jun  5 12:53:08 2010


@<TRIPOS>MOLECULE
frag3-183-10/96164
   17    16     1     1     1
SMALL
USER_CHARGES


@<TRIPOS>ATOM
      1 C53        -0.6415   -1.5458    0.8557 C.2        1 <1>        0.000
      2 C55         0.1394   -0.4874    1.0756 C.2        1 <1>        0.000
      3 C58         1.4638   -0.6546    1.5035 C.2        1 <1>        0.000
      4 C61         2.5680   -0.0536    1.0902 C.2        1 <1>        0.000
      5 C63         3.8756   -0.3290    1.5355 C.2        1 <1>        0.000
      6 C64         4.2843   -1.5969    1.6845 C.2        1 <1>        0.000
      7 C65         5.6193   -1.9375    2.1073 C.2        1 <1>        0.000
      8 O20         5.7674   -2.1114    3.4142 O.3        1 <1>        0.000
      9 O21         6.5173   -2.0936    1.2971 O.2        1 <1>        0.000
     10 H          -0.2514   -2.5521    1.0085 H.spc      1 <1>        0.000
     11 H          -1.6699   -1.4046    0.5231 H.spc      1 <1>        0.000
     12 H          -0.2557    0.5167    0.9212 H.spc      1 <1>        0.000
     13 H           1.6054   -1.3900    2.2955 H.spc      1 <1>        0.000
     14 H           2.4553    0.7256    0.3364 H.spc      1 <1>        0.000
     15 H           4.5573    0.4915    1.7596 H.spc      1 <1>        0.000
     16 H           3.5792   -2.4020    1.4777 H.spc      1 <1>        0.000
     17 H           4.9336   -1.9345    3.8559 H.spc      1 <1>        0.000
@<TRIPOS>BOND
     1    7    9 2  
     2    6    7 1  
     3    7    8 1  
     4    1    2 2  
     5    2    3 1  
     6    3    4 2  
     7    4    5 1  
     8    5    6 2  
     9    1   10 1  
    10    1   11 1  
    11    2   12 1  
    12    3   13 1  
    13    4   14 1  
    14    5   15 1  
    15    6   16 1  
    16    8   17 1  
# Name:          frag3-183-10/96164 -- energy: -0.627681
# Creation time: Sat Jun  5 12:53:08 2010


@<TRIPOS>MOLECULE
frag3-183-10/96164 -- energy: -0.627681
   17    16     1     1     1
SMALL
USER_CHARGES


@<TRIPOS>ATOM
      1 C53        -1.0222   -0.8608    0.3115 C.2        1 <1>        0.000
      2 C55        -0.0284   -0.3553    1.0474 C.2        1 <1>        0.000
      3 C58         1.3215   -0.7136    0.8815 C.2        1 <1>        0.000
      4 C61         2.2918   -0.7728    1.7718 C.2        1 <1>        0.000
      5 C63         3.6327   -1.1701    1.5963 C.2        1 <1>        0.000
      6 C64         4.5648   -1.2956    2.5365 C.2        1 <1>        0.000
      7 C65         5.8891   -1.7629    2.1726 C.2        1 <1>        0.000
      8 O20         6.7475   -1.7174    3.1854 O.3        1 <1>        0.000
      9 O21         6.1968   -2.1612    1.0607 O.2        1 <1>        0.000
     10 H          -0.8062   -1.5924   -0.4671 H.spc      1 <1>        0.000
     11 H          -2.0491   -0.5417    0.4897 H.spc      1 <1>        0.000
     12 H          -0.2772    0.3743    1.8181 H.spc      1 <1>        0.000
     13 H           1.6082   -0.9825   -0.1352 H.spc      1 <1>        0.000
     14 H           2.0195   -0.4730    2.7838 H.spc      1 <1>        0.000
     15 H           3.9400   -1.4002    0.5761 H.spc      1 <1>        0.000
     16 H           4.3354   -1.0491    3.5732 H.spc      1 <1>        0.000
     17 H           6.3035   -1.3747    3.9645 H.spc      1 <1>        0.000
@<TRIPOS>BOND
     1    7    9 2  
     2    6    7 1  
     3    7    8 1  
     4    1    2 2  
     5    2    3 1  
     6    3    4 2  
     7    4    5 1  
     8    5    6 2  
     9    1   10 1  
    10    1   11 1  
    11    2   12 1  
    12    3   13 1  
    13    4   14 1  
    14    5   15 1  
    15    6   16 1  
    16    8   17 1  
# Name:          frag3-183-10/96164 -- energy: -0.792927
# Creation time: Sat Jun  5 12:53:08 2010


@<TRIPOS>MOLECULE
frag3-183-10/96164 -- energy: -0.792927
   17    16     1     1     1
SMALL
USER_CHARGES


@<TRIPOS>ATOM
      1 C53        -0.6108   -0.2610    0.2430 C.2        1 <1>        0.000
      2 C55         0.0965   -0.3043    1.3722 C.2        1 <1>        0.000
      3 C58         1.4835   -0.5261    1.4356 C.2        1 <1>        0.000
      4 C61         2.1289   -1.6873    1.3487 C.2        1 <1>        0.000
      5 C63         3.5254   -1.9139    1.3683 C.2        1 <1>        0.000
      6 C64         4.3716   -1.3368    2.2250 C.2        1 <1>        0.000
      7 C65         5.7963   -1.5727    2.1523 C.2        1 <1>        0.000
      8 O20         6.4624   -0.9797    3.1343 O.3        1 <1>        0.000
      9 O21         6.3398   -2.2280    1.2842 O.2        1 <1>        0.000
     10 H          -0.1143   -0.4029   -0.7169 H.spc      1 <1>        0.000
     11 H          -1.6857   -0.0837    0.2796 H.spc      1 <1>        0.000
     12 H          -0.4373   -0.1576    2.3112 H.spc      1 <1>        0.000
     13 H           2.1049    0.3589    1.5723 H.spc      1 <1>        0.000
     14 H           1.5032   -2.5744    1.2501 H.spc      1 <1>        0.000
     15 H           3.9383   -2.6062    0.6346 H.spc      1 <1>        0.000
     16 H           3.9798   -0.6734    2.9960 H.spc      1 <1>        0.000
     17 H           5.8442   -0.5182    3.7057 H.spc      1 <1>        0.000
@<TRIPOS>BOND
     1    7    9 2  
     2    6    7 1  
     3    7    8 1  
     4    1    2 2  
     5    2    3 1  
     6    3    4 2  
     7    4    5 1  
     8    5    6 2  
     9    1   10 1  
    10    1   11 1  
    11    2   12 1  
    12    3   13 1  
    13    4   14 1  
    14    5   15 1  
    15    6   16 1  
    16    8   17 1  
# Name:          frag3-183-10/96164 -- energy: -0.994404
# Creation time: Sat Jun  5 12:53:08 2010


@<TRIPOS>MOLECULE
frag3-183-10/96164 -- energy: -0.994404
   17    16     1     1     1
SMALL
USER_CHARGES


@<TRIPOS>ATOM
      1 C53        -1.2106   -0.8315    0.8595 C.2        1 <1>        0.000
      2 C55         0.0082   -0.2953    0.8994 C.2        1 <1>        0.000
      3 C58         1.1973   -1.0057    1.1659 C.2        1 <1>        0.000
      4 C61         2.4641   -0.6140    1.2814 C.2        1 <1>        0.000
      5 C63         3.6168   -1.3672    1.5768 C.2        1 <1>        0.000
      6 C64         4.8300   -0.8632    1.8189 C.2        1 <1>        0.000
      7 C65         5.9409   -1.7185    2.1603 C.2        1 <1>        0.000
      8 O20         5.8536   -2.2382    3.3818 O.3        1 <1>        0.000
      9 O21         6.8933   -1.8761    1.4197 O.2        1 <1>        0.000
     10 H          -1.3430   -1.8981    1.0412 H.spc      1 <1>        0.000
     11 H          -2.0755   -0.2037    0.6452 H.spc      1 <1>        0.000
     12 H           0.0932    0.7750    0.7116 H.spc      1 <1>        0.000
     13 H           1.0513   -2.0771    1.3031 H.spc      1 <1>        0.000
     14 H           2.6352    0.4508    1.1235 H.spc      1 <1>        0.000
     15 H           3.5102   -2.4514    1.6107 H.spc      1 <1>        0.000
     16 H           4.9836    0.2142    1.7574 H.spc      1 <1>        0.000
     17 H           5.0175   -1.9824    3.7782 H.spc      1 <1>        0.000
@<TRIPOS>BOND
     1    7    9 2  
     2    6    7 1  
     3    7    8 1  
     4    1    2 2  
     5    2    3 1  
     6    3    4 2  
     7    4    5 1  
     8    5    6 2  
     9    1   10 1  
    10    1   11 1  
    11    2   12 1  
    12    3   13 1  
    13    4   14 1  
    14    5   15 1  
    15    6   16 1  
    16    8   17 1  
# Name:          frag3-183-10/96164 -- energy: -1.039752
# Creation time: Sat Jun  5 12:53:08 2010


@<TRIPOS>MOLECULE
frag3-183-10/96164 -- energy: -1.039752
   17    16     1     1     1
SMALL
USER_CHARGES


@<TRIPOS>ATOM
      1 C53        -0.5328   -0.7891    0.0681 C.2        1 <1>        0.000
      2 C55        -0.1011   -0.4083    1.2787 C.2        1 <1>        0.000
      3 C58         1.2748   -0.1761    1.5138 C.2        1 <1>        0.000
      4 C61         2.1887   -1.1171    1.6108 C.2        1 <1>        0.000
      5 C63         3.5736   -1.0212    1.7767 C.2        1 <1>        0.000
      6 C64         4.4160   -2.0514    1.9444 C.2        1 <1>        0.000
      7 C65         5.8587   -1.8405    2.0523 C.2        1 <1>        0.000
      8 O20         6.2552   -0.8728    2.8857 O.3        1 <1>        0.000
      9 O21         6.6604   -2.5333    1.4331 O.2        1 <1>        0.000
     10 H           0.1785   -0.9228   -0.7470 H.spc      1 <1>        0.000
     11 H          -1.5951   -0.9651   -0.1012 H.spc      1 <1>        0.000
     12 H          -0.8170   -0.2762    2.0900 H.spc      1 <1>        0.000
     13 H           1.6012    0.8582    1.6225 H.spc      1 <1>        0.000
     14 H           1.8045   -2.1355    1.5525 H.spc      1 <1>        0.000
     15 H           4.0069   -0.0211    1.7691 H.spc      1 <1>        0.000
     16 H           4.0177   -3.0644    2.0013 H.spc      1 <1>        0.000
     17 H           5.4851   -0.4483    3.2709 H.spc      1 <1>        0.000
@<TRIPOS>BOND
     1    7    9 2  
     2    6    7 1  
     3    7    8 1  
     4    1    2 2  
     5    2    3 1  
     6    3    4 2  
     7    4    5 1  
     8    5    6 2  
     9    1   10 1  
    10    1   11 1  
    11    2   12 1  
    12    3   13 1  
    13    4   14 1  
    14    5   15 1  
    15    6   16 1  
    16    8   17 1  
# Name:          frag3-183-10/96164 -- energy: -0.906978
# Creation time: Sat Jun  5 12:53:08 2010


@<TRIPOS>MOLECULE
frag3-183-10/96164 -- energy: -0.906978
   17    16     1     1     1
SMALL
USER_CHARGES


@<TRIPOS>ATOM
      1 C53        -0.5953   -1.1000    1.6018 C.2        1 <1>        0.000
      2 C55         0.1956   -0.2054    1.0044 C.2        1 <1>        0.000
      3 C58         1.5764   -0.2875    1.1900 C.2        1 <1>        0.000
      4 C61         2.3896   -1.1522    0.5773 C.2        1 <1>        0.000
      5 C63         3.7799   -1.3168    0.7880 C.2        1 <1>        0.000
      6 C64         4.2209   -1.4934    2.0361 C.2        1 <1>        0.000
      7 C65         5.6337   -1.6894    2.3105 C.2        1 <1>        0.000
      8 O20         5.9041   -1.7848    3.6140 O.3        1 <1>        0.000
      9 O21         6.4887   -1.7803    1.4416 O.2        1 <1>        0.000
     10 H          -0.1606   -1.8815    2.2250 H.spc      1 <1>        0.000
     11 H          -1.6756   -1.0488    1.4663 H.spc      1 <1>        0.000
     12 H          -0.2317    0.5790    0.3797 H.spc      1 <1>        0.000
     13 H           2.0287    0.4119    1.8931 H.spc      1 <1>        0.000
     14 H           1.9320   -1.8033   -0.1675 H.spc      1 <1>        0.000
     15 H           4.4757   -1.2997   -0.0508 H.spc      1 <1>        0.000
     16 H           3.5094   -1.4904    2.8619 H.spc      1 <1>        0.000
     17 H           5.0921   -1.6848    4.1163 H.spc      1 <1>        0.000
@<TRIPOS>BOND
     1    7    9 2  
     2    6    7 1  
     3    7    8 1  
     4    1    2 2  
     5    2    3 1  
     6    3    4 2  
     7    4    5 1  
     8    5    6 2  
     9    1   10 1  
    10    1   11 1  
    11    2   12 1  
    12    3   13 1  
    13    4   14 1  
    14    5   15 1  
    15    6   16 1  
    16    8   17 1  
# Name:          frag3-183-10/96164 -- energy: -1.204959
# Creation time: Sat Jun  5 12:53:08 2010


@<TRIPOS>MOLECULE
frag3-183-10/96164 -- energy: -1.204959
   17    16     1     1     1
SMALL
USER_CHARGES


@<TRIPOS>ATOM
      1 C53        -0.6432   -0.4346    0.2570 C.2        1 <1>        0.000
      2 C55        -0.0327   -0.9046    1.3398 C.2        1 <1>        0.000
      3 C58         1.3437   -1.1980    1.4416 C.2        1 <1>        0.000
      4 C61         2.3880   -0.3722    1.3209 C.2        1 <1>        0.000
      5 C63         3.7672   -0.6929    1.3741 C.2        1 <1>        0.000
      6 C64         4.3352   -1.5277    2.2498 C.2        1 <1>        0.000
      7 C65         5.7460   -1.8204    2.1614 C.2        1 <1>        0.000
      8 O20         6.4346   -1.5780    3.2668 O.3        1 <1>        0.000
      9 O21         6.2550   -2.2815    1.1524 O.2        1 <1>        0.000
     10 H          -0.0719   -0.2449   -0.6517 H.spc      1 <1>        0.000
     11 H          -1.7153   -0.2388    0.2776 H.spc      1 <1>        0.000
     12 H          -0.6468   -1.0780    2.2235 H.spc      1 <1>        0.000
     13 H           1.5889   -2.2401    1.6466 H.spc      1 <1>        0.000
     14 H           2.1487    0.6792    1.1617 H.spc      1 <1>        0.000
     15 H           4.4190   -0.2195    0.6399 H.spc      1 <1>        0.000
     16 H           3.7320   -1.9883    3.0322 H.spc      1 <1>        0.000
     17 H           5.8473   -1.2195    3.9362 H.spc      1 <1>        0.000
@<TRIPOS>BOND
     1    7    9 2  
     2    6    7 1  
     3    7    8 1  
     4    1    2 2  
     5    2    3 1  
     6    3    4 2  
     7    4    5 1  
     8    5    6 2  
     9    1   10 1  
    10    1   11 1  
    11    2   12 1  
    12    3   13 1  
    13    4   14 1  
    14    5   15 1  
    15    6   16 1  
    16    8   17 1  
# Name:          frag3-183-10/96164 -- energy: -0.834407
# Creation time: Sat Jun  5 12:53:08 2010


@<TRIPOS>MOLECULE
frag3-183-10/96164 -- energy: -0.834407
   17    16     1     1     1
SMALL
USER_CHARGES


@<TRIPOS>ATOM
      1 C53        -0.5012   -0.1520    1.7730 C.2        1 <1>        0.000
      2 C55         0.0851   -0.9713    0.9074 C.2        1 <1>        0.000
      3 C58         1.4374   -1.3186    1.0571 C.2        1 <1>        0.000
      4 C61         2.5032   -0.6980    0.5595 C.2        1 <1>        0.000
      5 C63         3.8369   -1.0740    0.8111 C.2        1 <1>        0.000
      6 C64         4.2814   -1.2144    2.0641 C.2        1 <1>        0.000
      7 C65         5.6363   -1.6418    2.3254 C.2        1 <1>        0.000
      8 O20         5.8100   -2.0350    3.5851 O.3        1 <1>        0.000
      9 O21         6.5046   -1.7047    1.4809 O.2        1 <1>        0.000
     10 H           0.0679    0.2566    2.6080 H.spc      1 <1>        0.000
     11 H          -1.5515    0.1117    1.6483 H.spc      1 <1>        0.000
     12 H          -0.4882   -1.3774    0.0740 H.spc      1 <1>        0.000
     13 H           1.6386   -2.2072    1.6555 H.spc      1 <1>        0.000
     14 H           2.3326    0.1618   -0.0884 H.spc      1 <1>        0.000
     15 H           4.5138   -1.2524   -0.0245 H.spc      1 <1>        0.000
     16 H           3.6131   -1.0037    2.8990 H.spc      1 <1>        0.000
     17 H           4.9974   -1.8967    4.0772 H.spc      1 <1>        0.000
@<TRIPOS>BOND
     1    7    9 2  
     2    6    7 1  
     3    7    8 1  
     4    1    2 2  
     5    2    3 1  
     6    3    4 2  
     7    4    5 1  
     8    5    6 2  
     9    1   10 1  
    10    1   11 1  
    11    2   12 1  
    12    3   13 1  
    13    4   14 1  
    14    5   15 1  
    15    6   16 1  
    16    8   17 1  
# Name:          frag3-183-10/96164 -- energy: -0.791099
# Creation time: Sat Jun  5 12:53:08 2010


@<TRIPOS>MOLECULE
frag3-183-10/96164 -- energy: -0.791099
   17    16     1     1     1
SMALL
USER_CHARGES


@<TRIPOS>ATOM
      1 C53        -0.1729   -0.0875   -0.0929 C.2        1 <1>        0.000
      2 C55         0.0660   -0.8579    0.9736 C.2        1 <1>        0.000
      3 C58         1.3753   -1.2068    1.3285 C.2        1 <1>        0.000
      4 C61         2.1332   -0.8247    2.3609 C.2        1 <1>        0.000
      5 C63         3.4827   -1.1891    2.6046 C.2        1 <1>        0.000
      6 C64         4.3615   -1.3270    1.6045 C.2        1 <1>        0.000
      7 C65         5.7329   -1.7010    1.8297 C.2        1 <1>        0.000
      8 O20         6.3167   -1.1365    2.8774 O.3        1 <1>        0.000
      9 O21         6.2982   -2.4791    1.0774 O.2        1 <1>        0.000
     10 H           0.6567    0.2773   -0.6985 H.spc      1 <1>        0.000
     11 H          -1.1972    0.1757   -0.3567 H.spc      1 <1>        0.000
     12 H          -0.7687   -1.2190    1.5744 H.spc      1 <1>        0.000
     13 H           1.8575   -1.9084    0.6478 H.spc      1 <1>        0.000
     14 H           1.6661   -0.1645    3.0917 H.spc      1 <1>        0.000
     15 H           3.8112   -1.3606    3.6297 H.spc      1 <1>        0.000
     16 H           4.0264   -1.1496    0.5826 H.spc      1 <1>        0.000
     17 H           5.6877   -0.5643    3.3230 H.spc      1 <1>        0.000
@<TRIPOS>BOND
     1    7    9 2  
     2    6    7 1  
     3    7    8 1  
     4    1    2 2  
     5    2    3 1  
     6    3    4 2  
     7    4    5 1  
     8    5    6 2  
     9    1   10 1  
    10    1   11 1  
    11    2   12 1  
    12    3   13 1  
    13    4   14 1  
    14    5   15 1  
    15    6   16 1  
    16    8   17 1  
# Name:          frag3-183-10/96164 -- energy: -1.088648
# Creation time: Sat Jun  5 12:53:08 2010


@<TRIPOS>MOLECULE
frag3-183-10/96164 -- energy: -1.088648
   17    16     1     1     1
SMALL
USER_CHARGES


@<TRIPOS>ATOM
      1 C53        -0.7980   -0.5418    1.4034 C.2        1 <1>        0.000
      2 C55         0.1900   -0.9482    0.6119 C.2        1 <1>        0.000
      3 C58         1.4844   -1.1795    1.1003 C.2        1 <1>        0.000
      4 C61         2.4674   -0.2880    1.2300 C.2        1 <1>        0.000
      5 C63         3.7576   -0.5143    1.7553 C.2        1 <1>        0.000
      6 C64         4.4053   -1.6578    1.5136 C.2        1 <1>        0.000
      7 C65         5.7010   -1.8484    2.1009 C.2        1 <1>        0.000
      8 O20         5.6884   -1.8911    3.4301 O.3        1 <1>        0.000
      9 O21         6.6974   -1.9407    1.4184 O.2        1 <1>        0.000
     10 H          -0.6137   -0.3788    2.4653 H.spc      1 <1>        0.000
     11 H          -1.7923   -0.3716    0.9904 H.spc      1 <1>        0.000
     12 H          -0.0118   -1.1063   -0.4475 H.spc      1 <1>        0.000
     13 H           1.7117   -2.2003    1.4076 H.spc      1 <1>        0.000
     14 H           2.2509    0.7260    0.8937 H.spc      1 <1>        0.000
     15 H           4.2319    0.2538    2.3662 H.spc      1 <1>        0.000
     16 H           3.9597   -2.4285    0.8846 H.spc      1 <1>        0.000
     17 H           4.7859   -1.7974    3.7436 H.spc      1 <1>        0.000
@<TRIPOS>BOND
     1    7    9 2  
     2    6    7 1  
     3    7    8 1  
     4    1    2 2  
     5    2    3 1  
     6    3    4 2  
     7    4    5 1  
     8    5    6 2  
     9    1   10 1  
    10    1   11 1  
    11    2   12 1  
    12    3   13 1  
    13    4   14 1  
    14    5   15 1  
    15    6   16 1  
    16    8   17 1  
# Name:          frag3-183-10/96164 -- energy: -1.182317
# Creation time: Sat Jun  5 12:53:08 2010


@<TRIPOS>MOLECULE
frag3-183-10/96164 -- energy: -1.182317
   17    16     1     1     1
SMALL
USER_CHARGES


@<TRIPOS>ATOM
      1 C53        -0.6415   -1.5458    0.8557 C.2        1 <1>        0.000
      2 C55         0.1394   -0.4874    1.0756 C.2        1 <1>        0.000
      3 C58         1.4638   -0.6546    1.5035 C.2        1 <1>        0.000
      4 C61         2.5680   -0.0536    1.0902 C.2        1 <1>        0.000
      5 C63         3.8756   -0.3290    1.5355 C.2        1 <1>        0.000
      6 C64         4.2843   -1.5969    1.6845 C.2        1 <1>        0.000
      7 C65         5.6193   -1.9375    2.1073 C.2        1 <1>        0.000
      8 O20         5.7674   -2.1114    3.4142 O.3        1 <1>        0.000
      9 O21         6.5173   -2.0936    1.2971 O.2        1 <1>        0.000
     10 H          -0.2514   -2.5521    1.0085 H.spc      1 <1>        0.000
     11 H          -1.6699   -1.4046    0.5231 H.spc      1 <1>        0.000
     12 H          -0.2557    0.5167    0.9212 H.spc      1 <1>        0.000
     13 H           1.6054   -1.3900    2.2955 H.spc      1 <1>        0.000
     14 H           2.4553    0.7256    0.3364 H.spc      1 <1>        0.000
     15 H           4.5573    0.4915    1.7596 H.spc      1 <1>        0.000
     16 H           3.5792   -2.4020    1.4777 H.spc      1 <1>        0.000
     17 H           4.9336   -1.9345    3.8559 H.spc      1 <1>        0.000
@<TRIPOS>BOND
     1    7    9 2  
     2    6    7 1  
     3    7    8 1  
     4    1    2 2  
     5    2    3 1  
     6    3    4 2  
     7    4    5 1  
     8    5    6 2  
     9    1   10 1  
    10    1   11 1  
    11    2   12 1  
    12    3   13 1  
    13    4   14 1  
    14    5   15 1  
    15    6   16 1  
    16    8   17 1  
