#      Rotatable Fragment
#      Build by yxyuan
#
# Name:          frag3-196-6/31924
# Creation time: Sat Jun  5 12:52:19 2010


@<TRIPOS>MOLECULE
frag3-196-6/31924
    8     7     1     1     1
SMALL
USER_CHARGES


@<TRIPOS>ATOM
      1 C9         -0.2561    0.3036    0.1687 C.2        1 <1>        0.000
      2 N2          0.8027   -0.3690   -0.0133 N.2        1 <1>        0.000
      3 O1          2.0128    0.2518    0.1105 O.3        1 <1>        0.000
      4 N3         -1.5122   -0.1649    0.0842 N.pl3      1 <1>        0.000
      5 H          -0.1365    1.3583    0.4164 H.spc      1 <1>        0.000
      6 H           2.7147   -0.3819   -0.0550 H.spc      1 <1>        0.000
      7 H          -1.6766   -1.1452   -0.1448 H.spc      1 <1>        0.000
      8 H          -2.3016    0.4596    0.2491 H.spc      1 <1>        0.000
@<TRIPOS>BOND
     1    1    2 2  
     2    1    4 1  
     3    2    3 1  
     4    1    5 1  
     5    3    6 1  
     6    4    7 1  
     7    4    8 1  
# Name:          frag3-196-6/31924 -- energy: -0.191468
# Creation time: Sat Jun  5 12:52:19 2010


@<TRIPOS>MOLECULE
frag3-196-6/31924 -- energy: -0.191468
    8     7     1     1     1
SMALL
USER_CHARGES


@<TRIPOS>ATOM
      1 C9         -0.2561    0.3036    0.1687 C.2        1 <1>        0.000
      2 N2          0.8027   -0.3690   -0.0133 N.2        1 <1>        0.000
      3 O1          2.0128    0.2518    0.1105 O.3        1 <1>        0.000
      4 N3         -1.5122   -0.1649    0.0842 N.pl3      1 <1>        0.000
      5 H          -0.1365    1.3583    0.4164 H.spc      1 <1>        0.000
      6 H           2.7147   -0.3819   -0.0550 H.spc      1 <1>        0.000
      7 H          -1.6766   -1.1452   -0.1448 H.spc      1 <1>        0.000
      8 H          -2.3016    0.4596    0.2491 H.spc      1 <1>        0.000
@<TRIPOS>BOND
     1    1    2 2  
     2    1    4 1  
     3    2    3 1  
     4    1    5 1  
     5    3    6 1  
     6    4    7 1  
     7    4    8 1  
