#      Rotatable Fragment
#      Build by yxyuan
#
# Name:          frag2-080-1/92655
# Creation time: Sat Jun  5 12:51:58 2010


@<TRIPOS>MOLECULE
frag2-080-1/92655
    6     5     1     1     1
SMALL
USER_CHARGES


@<TRIPOS>ATOM
      1 S1          0.9405    0.0449   -0.0525 S.o        1 <1>        0.000
      2 O1          2.2520    0.5903    0.2651 O.2        1 <1>        0.000
      3 C1         -0.6323   -0.1537   -0.0569 C.2        1 <1>        0.000
      4 H           1.1033   -0.9533    0.8112 H.spc      1 <1>        0.000
      5 H          -1.2655    0.4975    0.5457 H.spc      1 <1>        0.000
      6 H          -1.0805   -0.9414   -0.6625 H.spc      1 <1>        0.000
@<TRIPOS>BOND
     1    1    2 2  
     2    1    3 2  
     3    1    4 1  
     4    3    5 1  
     5    3    6 1  
# Name:          frag2-080-1/92655 -- energy: -0.052763
# Creation time: Sat Jun  5 12:51:58 2010


@<TRIPOS>MOLECULE
frag2-080-1/92655 -- energy: -0.052763
    6     5     1     1     1
SMALL
USER_CHARGES


@<TRIPOS>ATOM
      1 S1          0.9405    0.0449   -0.0525 S.o        1 <1>        0.000
      2 O1          2.2520    0.5903    0.2651 O.2        1 <1>        0.000
      3 C1         -0.6323   -0.1537   -0.0569 C.2        1 <1>        0.000
      4 H           1.1033   -0.9533    0.8112 H.spc      1 <1>        0.000
      5 H          -1.2655    0.4975    0.5457 H.spc      1 <1>        0.000
      6 H          -1.0805   -0.9414   -0.6625 H.spc      1 <1>        0.000
@<TRIPOS>BOND
     1    1    2 2  
     2    1    3 2  
     3    1    4 1  
     4    3    5 1  
     5    3    6 1  
