#      Rotatable Fragment
#      Build by yxyuan
#
# Name:          frag5-577-131/138278
# Creation time: Sat Jun  5 12:53:45 2010


@<TRIPOS>MOLECULE
frag5-577-131/138278
   21    22     1     1     1
SMALL
USER_CHARGES


@<TRIPOS>ATOM
      1 C1         -3.1783    0.6743    0.0232 C.ar       1 <1>        0.000
      2 C2         -3.2101    2.0433   -0.2751 C.ar       1 <1>        0.000
      3 N1         -2.0000    0.0301    0.1512 N.ar       1 <1>        0.000
      4 C3         -4.3726   -0.0309    0.1882 C.ar       1 <1>        0.000
      5 C4         -1.9963    2.7153   -0.4383 C.ar       1 <1>        0.000
      6 C5         -4.4388    2.6992   -0.4005 C.ar       1 <1>        0.000
      7 C6         -0.8140    0.6427   -0.0475 C.ar       1 <1>        0.000
      8 C7         -5.5994    0.6233    0.0518 C.ar       1 <1>        0.000
      9 C8         -0.7937    2.0178   -0.3104 C.ar       1 <1>        0.000
     10 C9         -5.6316    1.9904   -0.2378 C.ar       1 <1>        0.000
     11 C10         0.4372   -0.2086    0.0354 C.2        1 <1>        0.000
     12 N2          0.4689   -1.3918    0.6908 N.am       1 <1>        0.000
     13 O1          1.4349    0.2307   -0.5152 O.2        1 <1>        0.000
     14 H          -4.3473   -1.0948    0.4241 H.spc      1 <1>        0.000
     15 H          -1.9882    3.7815   -0.6649 H.spc      1 <1>        0.000
     16 H          -4.4659    3.7654   -0.6256 H.spc      1 <1>        0.000
     17 H          -6.5301    0.0685    0.1710 H.spc      1 <1>        0.000
     18 H           0.1566    2.5413   -0.4147 H.spc      1 <1>        0.000
     19 H          -6.5880    2.5038   -0.3368 H.spc      1 <1>        0.000
     20 H           1.3344   -1.9301    0.7299 H.spc      1 <1>        0.000
     21 H          -0.3727   -1.7455    1.1458 H.spc      1 <1>        0.000
@<TRIPOS>BOND
     1    4    8 ar 
     2   11   12 am 
     3    8   10 ar 
     4    5    9 ar 
     5    7    9 ar 
     6    2    6 ar 
     7   11   13 2  
     8    7   11 1  
     9    3    7 ar 
    10    2    5 ar 
    11    6   10 ar 
    12    1    2 ar 
    13    1    3 ar 
    14    1    4 ar 
    15    4   14 1  
    16    5   15 1  
    17    6   16 1  
    18    8   17 1  
    19    9   18 1  
    20   10   19 1  
    21   12   20 1  
    22   12   21 1  
# Name:          frag5-577-131/138278
# Creation time: Sat Jun  5 12:53:45 2010


@<TRIPOS>MOLECULE
frag5-577-131/138278
   21    22     1     1     1
SMALL
USER_CHARGES


@<TRIPOS>ATOM
      1 C1         -3.1710    0.7056    0.1166 C.ar       1 <1>        0.000
      2 C2         -3.2172    2.0084   -0.4030 C.ar       1 <1>        0.000
      3 N1         -1.9881    0.0797    0.2854 N.ar       1 <1>        0.000
      4 C3         -4.3559    0.0513    0.4602 C.ar       1 <1>        0.000
      5 C4         -2.0129    2.6297   -0.7402 C.ar       1 <1>        0.000
      6 C5         -4.4502    2.6460   -0.5681 C.ar       1 <1>        0.000
      7 C6         -0.8146    0.6387   -0.0760 C.ar       1 <1>        0.000
      8 C7         -5.5871    0.6865    0.2841 C.ar       1 <1>        0.000
      9 C8         -0.8065    1.9507   -0.5641 C.ar       1 <1>        0.000
     10 C9         -5.6331    1.9872   -0.2260 C.ar       1 <1>        0.000
     11 C10         0.4382   -0.2010    0.0788 C.2        1 <1>        0.000
     12 N2          0.5619   -1.4304   -0.4728 N.am       1 <1>        0.000
     13 O1          1.3427    0.2833    0.7409 O.2        1 <1>        0.000
     14 H          -4.3197   -0.9591    0.8674 H.spc      1 <1>        0.000
     15 H          -2.0152    3.6436   -1.1404 H.spc      1 <1>        0.000
     16 H          -4.4885    3.6604   -0.9650 H.spc      1 <1>        0.000
     17 H          -6.5105    0.1690    0.5439 H.spc      1 <1>        0.000
     18 H           0.1374    2.4395   -0.8054 H.spc      1 <1>        0.000
     19 H          -6.5927    2.4874   -0.3568 H.spc      1 <1>        0.000
     20 H           1.4195   -1.9659   -0.3380 H.spc      1 <1>        0.000
     21 H          -0.2024   -1.8216   -1.0234 H.spc      1 <1>        0.000
@<TRIPOS>BOND
     1    4    8 ar 
     2   11   12 am 
     3    8   10 ar 
     4    5    9 ar 
     5    7    9 ar 
     6    2    6 ar 
     7   11   13 2  
     8    7   11 1  
     9    3    7 ar 
    10    2    5 ar 
    11    6   10 ar 
    12    1    2 ar 
    13    1    3 ar 
    14    1    4 ar 
    15    4   14 1  
    16    5   15 1  
    17    6   16 1  
    18    8   17 1  
    19    9   18 1  
    20   10   19 1  
    21   12   20 1  
    22   12   21 1  
# Name:          frag5-577-131/138278
# Creation time: Sat Jun  5 12:53:45 2010


@<TRIPOS>MOLECULE
frag5-577-131/138278
   21    22     1     1     1
SMALL
USER_CHARGES


@<TRIPOS>ATOM
      1 C1         -3.1858    0.6587   -0.0763 C.ar       1 <1>        0.000
      2 C2         -3.2047    2.0622   -0.1448 C.ar       1 <1>        0.000
      3 N1         -2.0144   -0.0036    0.0168 N.ar       1 <1>        0.000
      4 C3         -4.3860   -0.0542   -0.1062 C.ar       1 <1>        0.000
      5 C4         -1.9853    2.7410   -0.1174 C.ar       1 <1>        0.000
      6 C5         -4.4265    2.7341   -0.2365 C.ar       1 <1>        0.000
      7 C6         -0.8223    0.6267   -0.0024 C.ar       1 <1>        0.000
      8 C7         -5.6039    0.6203   -0.2089 C.ar       1 <1>        0.000
      9 C8         -0.7909    2.0257   -0.0319 C.ar       1 <1>        0.000
     10 C9         -5.6236    2.0168   -0.2690 C.ar       1 <1>        0.000
     11 C10         0.4253   -0.2351    0.0164 C.2        1 <1>        0.000
     12 N2          1.4896    0.0451    0.8046 N.am       1 <1>        0.000
     13 O1          0.4344   -1.2019   -0.7287 O.2        1 <1>        0.000
     14 H          -4.3719   -1.1426   -0.0491 H.spc      1 <1>        0.000
     15 H          -1.9665    3.8299   -0.1628 H.spc      1 <1>        0.000
     16 H          -4.4449    3.8230   -0.2829 H.spc      1 <1>        0.000
     17 H          -6.5377    0.0591   -0.2422 H.spc      1 <1>        0.000
     18 H           0.1619    2.5534    0.0117 H.spc      1 <1>        0.000
     19 H          -6.5739    2.5457   -0.3413 H.spc      1 <1>        0.000
     20 H           2.3139   -0.5553    0.7810 H.spc      1 <1>        0.000
     21 H           1.4673    0.8566    1.4221 H.spc      1 <1>        0.000
@<TRIPOS>BOND
     1    4    8 ar 
     2   11   12 am 
     3    8   10 ar 
     4    5    9 ar 
     5    7    9 ar 
     6    2    6 ar 
     7   11   13 2  
     8    7   11 1  
     9    3    7 ar 
    10    2    5 ar 
    11    6   10 ar 
    12    1    2 ar 
    13    1    3 ar 
    14    1    4 ar 
    15    4   14 1  
    16    5   15 1  
    17    6   16 1  
    18    8   17 1  
    19    9   18 1  
    20   10   19 1  
    21   12   20 1  
    22   12   21 1  
# Name:          frag5-577-131/138278
# Creation time: Sat Jun  5 12:53:45 2010


@<TRIPOS>MOLECULE
frag5-577-131/138278
   21    22     1     1     1
SMALL
USER_CHARGES


@<TRIPOS>ATOM
      1 C1         -3.1804    0.6882    0.0692 C.ar       1 <1>        0.000
      2 C2         -3.2076    2.0322   -0.3402 C.ar       1 <1>        0.000
      3 N1         -2.0042    0.0463    0.2241 N.ar       1 <1>        0.000
      4 C3         -4.3775    0.0130    0.3157 C.ar       1 <1>        0.000
      5 C4         -1.9916    2.6734   -0.5823 C.ar       1 <1>        0.000
      6 C5         -4.4339    2.6848   -0.4918 C.ar       1 <1>        0.000
      7 C6         -0.8192    0.6295   -0.0489 C.ar       1 <1>        0.000
      8 C7         -5.6009    0.6653    0.1525 C.ar       1 <1>        0.000
      9 C8         -0.7929    1.9779   -0.4235 C.ar       1 <1>        0.000
     10 C9         -5.6282    2.0046   -0.2471 C.ar       1 <1>        0.000
     11 C10         0.4270   -0.2253    0.0768 C.2        1 <1>        0.000
     12 N2          1.4407   -0.1675   -0.8184 N.am       1 <1>        0.000
     13 O1          0.4748   -0.9867    1.0296 O.2        1 <1>        0.000
     14 H          -4.3567   -1.0283    0.6371 H.spc      1 <1>        0.000
     15 H          -1.9787    3.7174   -0.8954 H.spc      1 <1>        0.000
     16 H          -4.4581    3.7293   -0.8024 H.spc      1 <1>        0.000
     17 H          -6.5332    0.1313    0.3363 H.spc      1 <1>        0.000
     18 H           0.1592    2.4818   -0.5902 H.spc      1 <1>        0.000
     19 H          -6.5822    2.5179   -0.3676 H.spc      1 <1>        0.000
     20 H           2.2589   -0.7653   -0.7017 H.spc      1 <1>        0.000
     21 H           1.3864    0.4739   -1.6097 H.spc      1 <1>        0.000
@<TRIPOS>BOND
     1    4    8 ar 
     2   11   12 am 
     3    8   10 ar 
     4    5    9 ar 
     5    7    9 ar 
     6    2    6 ar 
     7   11   13 2  
     8    7   11 1  
     9    3    7 ar 
    10    2    5 ar 
    11    6   10 ar 
    12    1    2 ar 
    13    1    3 ar 
    14    1    4 ar 
    15    4   14 1  
    16    5   15 1  
    17    6   16 1  
    18    8   17 1  
    19    9   18 1  
    20   10   19 1  
    21   12   20 1  
    22   12   21 1  
# Name:          frag5-577-131/138278 -- energy: -0.834894
# Creation time: Sat Jun  5 12:53:45 2010


@<TRIPOS>MOLECULE
frag5-577-131/138278 -- energy: -0.834894
   21    22     1     1     1
SMALL
USER_CHARGES


@<TRIPOS>ATOM
      1 C1         -3.1783    0.6743    0.0232 C.ar       1 <1>        0.000
      2 C2         -3.2101    2.0433   -0.2751 C.ar       1 <1>        0.000
      3 N1         -2.0000    0.0301    0.1512 N.ar       1 <1>        0.000
      4 C3         -4.3726   -0.0309    0.1882 C.ar       1 <1>        0.000
      5 C4         -1.9963    2.7153   -0.4383 C.ar       1 <1>        0.000
      6 C5         -4.4388    2.6992   -0.4005 C.ar       1 <1>        0.000
      7 C6         -0.8140    0.6427   -0.0475 C.ar       1 <1>        0.000
      8 C7         -5.5994    0.6233    0.0518 C.ar       1 <1>        0.000
      9 C8         -0.7937    2.0178   -0.3104 C.ar       1 <1>        0.000
     10 C9         -5.6316    1.9904   -0.2378 C.ar       1 <1>        0.000
     11 C10         0.4372   -0.2086    0.0354 C.2        1 <1>        0.000
     12 N2          0.4689   -1.3918    0.6908 N.am       1 <1>        0.000
     13 O1          1.4349    0.2307   -0.5152 O.2        1 <1>        0.000
     14 H          -4.3473   -1.0948    0.4241 H.spc      1 <1>        0.000
     15 H          -1.9882    3.7815   -0.6649 H.spc      1 <1>        0.000
     16 H          -4.4659    3.7654   -0.6256 H.spc      1 <1>        0.000
     17 H          -6.5301    0.0685    0.1710 H.spc      1 <1>        0.000
     18 H           0.1566    2.5413   -0.4147 H.spc      1 <1>        0.000
     19 H          -6.5880    2.5038   -0.3368 H.spc      1 <1>        0.000
     20 H           1.3344   -1.9301    0.7299 H.spc      1 <1>        0.000
     21 H          -0.3727   -1.7455    1.1458 H.spc      1 <1>        0.000
@<TRIPOS>BOND
     1    4    8 ar 
     2   11   12 am 
     3    8   10 ar 
     4    5    9 ar 
     5    7    9 ar 
     6    2    6 ar 
     7   11   13 2  
     8    7   11 1  
     9    3    7 ar 
    10    2    5 ar 
    11    6   10 ar 
    12    1    2 ar 
    13    1    3 ar 
    14    1    4 ar 
    15    4   14 1  
    16    5   15 1  
    17    6   16 1  
    18    8   17 1  
    19    9   18 1  
    20   10   19 1  
    21   12   20 1  
    22   12   21 1  
# Name:          frag5-577-131/138278 -- energy: -0.893603
# Creation time: Sat Jun  5 12:53:45 2010


@<TRIPOS>MOLECULE
frag5-577-131/138278 -- energy: -0.893603
   21    22     1     1     1
SMALL
USER_CHARGES


@<TRIPOS>ATOM
      1 C1         -3.1710    0.7056    0.1166 C.ar       1 <1>        0.000
      2 C2         -3.2172    2.0084   -0.4030 C.ar       1 <1>        0.000
      3 N1         -1.9881    0.0797    0.2854 N.ar       1 <1>        0.000
      4 C3         -4.3559    0.0513    0.4602 C.ar       1 <1>        0.000
      5 C4         -2.0129    2.6297   -0.7402 C.ar       1 <1>        0.000
      6 C5         -4.4502    2.6460   -0.5681 C.ar       1 <1>        0.000
      7 C6         -0.8146    0.6387   -0.0760 C.ar       1 <1>        0.000
      8 C7         -5.5871    0.6865    0.2841 C.ar       1 <1>        0.000
      9 C8         -0.8065    1.9507   -0.5641 C.ar       1 <1>        0.000
     10 C9         -5.6331    1.9872   -0.2260 C.ar       1 <1>        0.000
     11 C10         0.4382   -0.2010    0.0788 C.2        1 <1>        0.000
     12 N2          0.5619   -1.4304   -0.4728 N.am       1 <1>        0.000
     13 O1          1.3427    0.2833    0.7409 O.2        1 <1>        0.000
     14 H          -4.3197   -0.9591    0.8674 H.spc      1 <1>        0.000
     15 H          -2.0152    3.6436   -1.1404 H.spc      1 <1>        0.000
     16 H          -4.4885    3.6604   -0.9650 H.spc      1 <1>        0.000
     17 H          -6.5105    0.1690    0.5439 H.spc      1 <1>        0.000
     18 H           0.1374    2.4395   -0.8054 H.spc      1 <1>        0.000
     19 H          -6.5927    2.4874   -0.3568 H.spc      1 <1>        0.000
     20 H           1.4195   -1.9659   -0.3380 H.spc      1 <1>        0.000
     21 H          -0.2024   -1.8216   -1.0234 H.spc      1 <1>        0.000
@<TRIPOS>BOND
     1    4    8 ar 
     2   11   12 am 
     3    8   10 ar 
     4    5    9 ar 
     5    7    9 ar 
     6    2    6 ar 
     7   11   13 2  
     8    7   11 1  
     9    3    7 ar 
    10    2    5 ar 
    11    6   10 ar 
    12    1    2 ar 
    13    1    3 ar 
    14    1    4 ar 
    15    4   14 1  
    16    5   15 1  
    17    6   16 1  
    18    8   17 1  
    19    9   18 1  
    20   10   19 1  
    21   12   20 1  
    22   12   21 1  
# Name:          frag5-577-131/138278 -- energy: -0.910559
# Creation time: Sat Jun  5 12:53:45 2010


@<TRIPOS>MOLECULE
frag5-577-131/138278 -- energy: -0.910559
   21    22     1     1     1
SMALL
USER_CHARGES


@<TRIPOS>ATOM
      1 C1         -3.1858    0.6587   -0.0763 C.ar       1 <1>        0.000
      2 C2         -3.2047    2.0622   -0.1448 C.ar       1 <1>        0.000
      3 N1         -2.0144   -0.0036    0.0168 N.ar       1 <1>        0.000
      4 C3         -4.3860   -0.0542   -0.1062 C.ar       1 <1>        0.000
      5 C4         -1.9853    2.7410   -0.1174 C.ar       1 <1>        0.000
      6 C5         -4.4265    2.7341   -0.2365 C.ar       1 <1>        0.000
      7 C6         -0.8223    0.6267   -0.0024 C.ar       1 <1>        0.000
      8 C7         -5.6039    0.6203   -0.2089 C.ar       1 <1>        0.000
      9 C8         -0.7909    2.0257   -0.0319 C.ar       1 <1>        0.000
     10 C9         -5.6236    2.0168   -0.2690 C.ar       1 <1>        0.000
     11 C10         0.4253   -0.2351    0.0164 C.2        1 <1>        0.000
     12 N2          1.4896    0.0451    0.8046 N.am       1 <1>        0.000
     13 O1          0.4344   -1.2019   -0.7287 O.2        1 <1>        0.000
     14 H          -4.3719   -1.1426   -0.0491 H.spc      1 <1>        0.000
     15 H          -1.9665    3.8299   -0.1628 H.spc      1 <1>        0.000
     16 H          -4.4449    3.8230   -0.2829 H.spc      1 <1>        0.000
     17 H          -6.5377    0.0591   -0.2422 H.spc      1 <1>        0.000
     18 H           0.1619    2.5534    0.0117 H.spc      1 <1>        0.000
     19 H          -6.5739    2.5457   -0.3413 H.spc      1 <1>        0.000
     20 H           2.3139   -0.5553    0.7810 H.spc      1 <1>        0.000
     21 H           1.4673    0.8566    1.4221 H.spc      1 <1>        0.000
@<TRIPOS>BOND
     1    4    8 ar 
     2   11   12 am 
     3    8   10 ar 
     4    5    9 ar 
     5    7    9 ar 
     6    2    6 ar 
     7   11   13 2  
     8    7   11 1  
     9    3    7 ar 
    10    2    5 ar 
    11    6   10 ar 
    12    1    2 ar 
    13    1    3 ar 
    14    1    4 ar 
    15    4   14 1  
    16    5   15 1  
    17    6   16 1  
    18    8   17 1  
    19    9   18 1  
    20   10   19 1  
    21   12   20 1  
    22   12   21 1  
# Name:          frag5-577-131/138278 -- energy: -0.903692
# Creation time: Sat Jun  5 12:53:45 2010


@<TRIPOS>MOLECULE
frag5-577-131/138278 -- energy: -0.903692
   21    22     1     1     1
SMALL
USER_CHARGES


@<TRIPOS>ATOM
      1 C1         -3.1804    0.6882    0.0692 C.ar       1 <1>        0.000
      2 C2         -3.2076    2.0322   -0.3402 C.ar       1 <1>        0.000
      3 N1         -2.0042    0.0463    0.2241 N.ar       1 <1>        0.000
      4 C3         -4.3775    0.0130    0.3157 C.ar       1 <1>        0.000
      5 C4         -1.9916    2.6734   -0.5823 C.ar       1 <1>        0.000
      6 C5         -4.4339    2.6848   -0.4918 C.ar       1 <1>        0.000
      7 C6         -0.8192    0.6295   -0.0489 C.ar       1 <1>        0.000
      8 C7         -5.6009    0.6653    0.1525 C.ar       1 <1>        0.000
      9 C8         -0.7929    1.9779   -0.4235 C.ar       1 <1>        0.000
     10 C9         -5.6282    2.0046   -0.2471 C.ar       1 <1>        0.000
     11 C10         0.4270   -0.2253    0.0768 C.2        1 <1>        0.000
     12 N2          1.4407   -0.1675   -0.8184 N.am       1 <1>        0.000
     13 O1          0.4748   -0.9867    1.0296 O.2        1 <1>        0.000
     14 H          -4.3567   -1.0283    0.6371 H.spc      1 <1>        0.000
     15 H          -1.9787    3.7174   -0.8954 H.spc      1 <1>        0.000
     16 H          -4.4581    3.7293   -0.8024 H.spc      1 <1>        0.000
     17 H          -6.5332    0.1313    0.3363 H.spc      1 <1>        0.000
     18 H           0.1592    2.4818   -0.5902 H.spc      1 <1>        0.000
     19 H          -6.5822    2.5179   -0.3676 H.spc      1 <1>        0.000
     20 H           2.2589   -0.7653   -0.7017 H.spc      1 <1>        0.000
     21 H           1.3864    0.4739   -1.6097 H.spc      1 <1>        0.000
@<TRIPOS>BOND
     1    4    8 ar 
     2   11   12 am 
     3    8   10 ar 
     4    5    9 ar 
     5    7    9 ar 
     6    2    6 ar 
     7   11   13 2  
     8    7   11 1  
     9    3    7 ar 
    10    2    5 ar 
    11    6   10 ar 
    12    1    2 ar 
    13    1    3 ar 
    14    1    4 ar 
    15    4   14 1  
    16    5   15 1  
    17    6   16 1  
    18    8   17 1  
    19    9   18 1  
    20   10   19 1  
    21   12   20 1  
    22   12   21 1  
