#      Rotatable Fragment
#      Build by yxyuan
#
# Name:          frag3-238-5/96164
# Creation time: Sat Jun  5 12:53:16 2010


@<TRIPOS>MOLECULE
frag3-238-5/96164
    7     6     1     1     1
SMALL
USER_CHARGES


@<TRIPOS>ATOM
      1 C9          1.0934    0.2554    0.0645 C.2        1 <1>        0.000
      2 N1         -0.1072    0.6158   -0.1008 N.2        1 <1>        0.000
      3 N2         -1.1596   -0.1330   -0.1313 N.pl3      1 <1>        0.000
      4 H           1.3317   -0.7992    0.2029 H.spc      1 <1>        0.000
      5 H           1.8901    0.9993    0.0686 H.spc      1 <1>        0.000
      6 H          -1.0710   -1.1423   -0.0135 H.spc      1 <1>        0.000
      7 H          -2.0791    0.2851   -0.2732 H.spc      1 <1>        0.000
@<TRIPOS>BOND
     1    2    3 1  
     2    1    2 2  
     3    1    4 1  
     4    1    5 1  
     5    3    6 1  
     6    3    7 1  
# Name:          frag3-238-5/96164 -- energy: -0.129136
# Creation time: Sat Jun  5 12:53:16 2010


@<TRIPOS>MOLECULE
frag3-238-5/96164 -- energy: -0.129136
    7     6     1     1     1
SMALL
USER_CHARGES


@<TRIPOS>ATOM
      1 C9          1.0934    0.2554    0.0645 C.2        1 <1>        0.000
      2 N1         -0.1072    0.6158   -0.1008 N.2        1 <1>        0.000
      3 N2         -1.1596   -0.1330   -0.1313 N.pl3      1 <1>        0.000
      4 H           1.3317   -0.7992    0.2029 H.spc      1 <1>        0.000
      5 H           1.8901    0.9993    0.0686 H.spc      1 <1>        0.000
      6 H          -1.0710   -1.1423   -0.0135 H.spc      1 <1>        0.000
      7 H          -2.0791    0.2851   -0.2732 H.spc      1 <1>        0.000
@<TRIPOS>BOND
     1    2    3 1  
     2    1    2 2  
     3    1    4 1  
     4    1    5 1  
     5    3    6 1  
     6    3    7 1  
