#      Rotatable Fragment
#      Build by yxyuan
#
# Name:          frag3-092-3423/96164
# Creation time: Sat Jun  5 12:52:36 2010


@<TRIPOS>MOLECULE
frag3-092-3423/96164
    9     8     1     1     1
SMALL
USER_CHARGES


@<TRIPOS>ATOM
      1 N5         -0.9014   -0.9635    0.1585 N.pl3      1 <1>        0.000
      2 C17        -0.0023    0.0001   -0.0007 C.cat      1 <1>        0.000
      3 N6          1.2926   -0.2884    0.0452 N.pl3      1 <1>        0.000
      4 N7         -0.3955    1.2513   -0.2032 N.pl3      1 <1>        0.000
      5 H          -0.5969   -1.9242    0.3159 H.spc      1 <1>        0.000
      6 H           1.5957   -1.2495    0.2026 H.spc      1 <1>        0.000
      7 H           1.9845    0.4510   -0.0770 H.spc      1 <1>        0.000
      8 H          -1.3903    1.4742   -0.2368 H.spc      1 <1>        0.000
      9 H           0.2971    1.9901   -0.3253 H.spc      1 <1>        0.000
@<TRIPOS>BOND
     1    1    2 ar 
     2    2    4 ar 
     3    2    3 ar 
     4    1    5 1  
     5    3    6 1  
     6    3    7 1  
     7    4    8 1  
     8    4    9 1  
# Name:          frag3-092-3423/96164 -- energy: -0.291385
# Creation time: Sat Jun  5 12:52:36 2010


@<TRIPOS>MOLECULE
frag3-092-3423/96164 -- energy: -0.291385
    9     8     1     1     1
SMALL
USER_CHARGES


@<TRIPOS>ATOM
      1 N5         -0.9014   -0.9635    0.1585 N.pl3      1 <1>        0.000
      2 C17        -0.0023    0.0001   -0.0007 C.cat      1 <1>        0.000
      3 N6          1.2926   -0.2884    0.0452 N.pl3      1 <1>        0.000
      4 N7         -0.3955    1.2513   -0.2032 N.pl3      1 <1>        0.000
      5 H          -0.5969   -1.9242    0.3159 H.spc      1 <1>        0.000
      6 H           1.5957   -1.2495    0.2026 H.spc      1 <1>        0.000
      7 H           1.9845    0.4510   -0.0770 H.spc      1 <1>        0.000
      8 H          -1.3903    1.4742   -0.2368 H.spc      1 <1>        0.000
      9 H           0.2971    1.9901   -0.3253 H.spc      1 <1>        0.000
@<TRIPOS>BOND
     1    1    2 ar 
     2    2    4 ar 
     3    2    3 ar 
     4    1    5 1  
     5    3    6 1  
     6    3    7 1  
     7    4    8 1  
     8    4    9 1  
