#      Rotatable Fragment
#      Build by yxyuan
#
# Name:          frag5-573-143/138278
# Creation time: Sat Jun  5 12:53:44 2010


@<TRIPOS>MOLECULE
frag5-573-143/138278
   17    18     1     1     1
SMALL
USER_CHARGES


@<TRIPOS>ATOM
      1 C1          0.4800   -1.0862   -0.1934 C.2        1 <1>        0.000
      2 N1          1.4036   -1.9392    0.0358 N.2        1 <1>        0.000
      3 C2          0.9395    0.3084    0.0531 C.2        1 <1>        0.000
      4 N2         -0.7830   -1.2994   -0.5980 N.2        1 <1>        0.000
      5 C4          2.5151   -1.1474    0.4989 C.3        1 <1>        0.000
      6 N3          2.1518    0.2195    0.4567 N.2        1 <1>        0.000
      7 C5         -0.0132    1.4203   -0.1903 C.2        1 <1>        0.000
      8 C6         -1.6666   -0.3689   -0.4347 C.2        1 <1>        0.000
      9 N4         -1.1740    0.9155   -0.4389 N.2        1 <1>        0.000
     10 N5          0.4150    2.6985   -0.1151 N.pl3      1 <1>        0.000
     11 N6         -2.9543   -0.5373   -0.1232 N.pl3      1 <1>        0.000
     12 H           3.3815   -1.3187   -0.1399 H.spc      1 <1>        0.000
     13 H           2.7692   -1.4302    1.5205 H.spc      1 <1>        0.000
     14 H          -0.2391    3.4655   -0.2711 H.spc      1 <1>        0.000
     15 H           1.3926    2.8972    0.0977 H.spc      1 <1>        0.000
     16 H          -3.3281   -1.4769    0.0102 H.spc      1 <1>        0.000
     17 H          -3.5640    0.2737   -0.0187 H.spc      1 <1>        0.000
@<TRIPOS>BOND
     1    8    9 1  
     2    8   11 1  
     3    7    9 2  
     4    7   10 1  
     5    1    2 2  
     6    1    3 1  
     7    1    4 1  
     8    2    5 1  
     9    3    6 2  
    10    3    7 1  
    11    4    8 2  
    12    5    6 1  
    13    5   12 1  
    14    5   13 1  
    15   10   14 1  
    16   10   15 1  
    17   11   16 1  
    18   11   17 1  
# Name:          frag5-573-143/138278 -- energy: -0.749833
# Creation time: Sat Jun  5 12:53:44 2010


@<TRIPOS>MOLECULE
frag5-573-143/138278 -- energy: -0.749833
   17    18     1     1     1
SMALL
USER_CHARGES


@<TRIPOS>ATOM
      1 C1          0.4800   -1.0862   -0.1934 C.2        1 <1>        0.000
      2 N1          1.4036   -1.9392    0.0358 N.2        1 <1>        0.000
      3 C2          0.9395    0.3084    0.0531 C.2        1 <1>        0.000
      4 N2         -0.7830   -1.2994   -0.5980 N.2        1 <1>        0.000
      5 C4          2.5151   -1.1474    0.4989 C.3        1 <1>        0.000
      6 N3          2.1518    0.2195    0.4567 N.2        1 <1>        0.000
      7 C5         -0.0132    1.4203   -0.1903 C.2        1 <1>        0.000
      8 C6         -1.6666   -0.3689   -0.4347 C.2        1 <1>        0.000
      9 N4         -1.1740    0.9155   -0.4389 N.2        1 <1>        0.000
     10 N5          0.4150    2.6985   -0.1151 N.pl3      1 <1>        0.000
     11 N6         -2.9543   -0.5373   -0.1232 N.pl3      1 <1>        0.000
     12 H           3.3815   -1.3187   -0.1399 H.spc      1 <1>        0.000
     13 H           2.7692   -1.4302    1.5205 H.spc      1 <1>        0.000
     14 H          -0.2391    3.4655   -0.2711 H.spc      1 <1>        0.000
     15 H           1.3926    2.8972    0.0977 H.spc      1 <1>        0.000
     16 H          -3.3281   -1.4769    0.0102 H.spc      1 <1>        0.000
     17 H          -3.5640    0.2737   -0.0187 H.spc      1 <1>        0.000
@<TRIPOS>BOND
     1    8    9 1  
     2    8   11 1  
     3    7    9 2  
     4    7   10 1  
     5    1    2 2  
     6    1    3 1  
     7    1    4 1  
     8    2    5 1  
     9    3    6 2  
    10    3    7 1  
    11    4    8 2  
    12    5    6 1  
    13    5   12 1  
    14    5   13 1  
    15   10   14 1  
    16   10   15 1  
    17   11   16 1  
    18   11   17 1  
