#      Rotatable Fragment
#      Build by yxyuan
#
# Name:          frag5-572-145/138278
# Creation time: Sat Jun  5 12:53:44 2010


@<TRIPOS>MOLECULE
frag5-572-145/138278
   23    24     1     1     1
SMALL
USER_CHARGES


@<TRIPOS>ATOM
      1 C1         -2.0098    0.2364   -0.0178 C.ar       1 <1>        0.000
      2 C2         -2.0768   -1.1502   -0.3036 C.ar       1 <1>        0.000
      3 C3         -0.8078    1.1168    0.0240 C.3        1 <1>        0.000
      4 C4         -3.2803    0.8471    0.0670 C.ar       1 <1>        0.000
      5 N1         -0.9621   -1.9256   -0.6800 N.am       1 <1>        0.000
      6 C5         -3.2722   -1.8508   -0.0339 C.ar       1 <1>        0.000
      7 C6          0.4015    0.3510    0.4859 C.3        1 <1>        0.000
      8 C7         -4.4790    0.1737    0.2439 C.ar       1 <1>        0.000
      9 C9          0.3557   -1.7310   -0.9610 C.2        1 <1>        0.000
     10 C11        -4.4697   -1.1851    0.2134 C.ar       1 <1>        0.000
     11 C12         1.0696   -0.4847   -0.5700 C.3        1 <1>        0.000
     12 O1          0.9783   -2.6302   -1.5281 O.2        1 <1>        0.000
     13 H          -0.6185    1.5000   -0.9787 H.spc      1 <1>        0.000
     14 H          -0.9945    1.9324    0.7226 H.spc      1 <1>        0.000
     15 H          -3.3216    1.9334   -0.0129 H.spc      1 <1>        0.000
     16 H          -1.2134   -2.9104   -0.7663 H.spc      1 <1>        0.000
     17 H          -3.2574   -2.9406   -0.0189 H.spc      1 <1>        0.000
     18 H           0.0606   -0.3361    1.2604 H.spc      1 <1>        0.000
     19 H           1.1344    1.0891    0.8118 H.spc      1 <1>        0.000
     20 H          -5.4078    0.7214    0.4038 H.spc      1 <1>        0.000
     21 H          -5.3887   -1.7469    0.3805 H.spc      1 <1>        0.000
     22 H           2.0272   -0.7973   -0.1537 H.spc      1 <1>        0.000
     23 H           1.1192    0.1345   -1.4657 H.spc      1 <1>        0.000
@<TRIPOS>BOND
     1    2    6 ar 
     2    3    7 1  
     3    5    9 am 
     4    2    5 1  
     5    9   12 2  
     6    7   11 1  
     7    8   10 ar 
     8    1    2 ar 
     9    4    8 ar 
    10    9   11 1  
    11    1    3 1  
    12    1    4 ar 
    13    6   10 ar 
    14    3   13 1  
    15    3   14 1  
    16    4   15 1  
    17    5   16 1  
    18    6   17 1  
    19    7   18 1  
    20    7   19 1  
    21    8   20 1  
    22   10   21 1  
    23   11   22 1  
    24   11   23 1  
# Name:          frag5-572-145/138278
# Creation time: Sat Jun  5 12:53:44 2010


@<TRIPOS>MOLECULE
frag5-572-145/138278
   23    24     1     1     1
SMALL
USER_CHARGES


@<TRIPOS>ATOM
      1 C1         -1.9557    0.1783    0.1677 C.ar       1 <1>        0.000
      2 C2         -2.0862   -1.0518   -0.5208 C.ar       1 <1>        0.000
      3 C3         -0.7338    0.9877    0.3665 C.3        1 <1>        0.000
      4 C4         -3.1757    0.6052    0.7494 C.ar       1 <1>        0.000
      5 N1         -1.0041   -1.7768   -1.0054 N.am       1 <1>        0.000
      6 C5         -3.3604   -1.6730   -0.6801 C.ar       1 <1>        0.000
      7 C6          0.3838    0.8114   -0.6340 C.3        1 <1>        0.000
      8 C7         -4.4311    0.0048    0.5885 C.ar       1 <1>        0.000
      9 C9          0.3216   -1.7622   -0.7693 C.2        1 <1>        0.000
     10 C11        -4.5112   -1.1874   -0.0757 C.ar       1 <1>        0.000
     11 C12         1.1168   -0.5042   -0.6117 C.3        1 <1>        0.000
     12 O1          0.8836   -2.8647   -0.6353 O.2        1 <1>        0.000
     13 H          -1.0501    2.0268    0.2757 H.spc      1 <1>        0.000
     14 H          -0.3236    0.6723    1.3259 H.spc      1 <1>        0.000
     15 H          -3.1328    1.4892    1.3857 H.spc      1 <1>        0.000
     16 H          -1.2750   -2.4777   -1.6951 H.spc      1 <1>        0.000
     17 H          -3.4330   -2.5653   -1.3018 H.spc      1 <1>        0.000
     18 H           1.1262    1.5710   -0.3891 H.spc      1 <1>        0.000
     19 H          -0.0825    0.8767   -1.6170 H.spc      1 <1>        0.000
     20 H          -5.3281    0.4798    0.9858 H.spc      1 <1>        0.000
     21 H          -5.4497   -1.7392   -0.1288 H.spc      1 <1>        0.000
     22 H           1.5606   -0.5682    0.3818 H.spc      1 <1>        0.000
     23 H           1.7826   -0.4760   -1.4743 H.spc      1 <1>        0.000
@<TRIPOS>BOND
     1    2    6 ar 
     2    3    7 1  
     3    5    9 am 
     4    2    5 1  
     5    9   12 2  
     6    7   11 1  
     7    8   10 ar 
     8    1    2 ar 
     9    4    8 ar 
    10    9   11 1  
    11    1    3 1  
    12    1    4 ar 
    13    6   10 ar 
    14    3   13 1  
    15    3   14 1  
    16    4   15 1  
    17    5   16 1  
    18    6   17 1  
    19    7   18 1  
    20    7   19 1  
    21    8   20 1  
    22   10   21 1  
    23   11   22 1  
    24   11   23 1  
# Name:          frag5-572-145/138278 -- energy: -1.800510
# Creation time: Sat Jun  5 12:53:44 2010


@<TRIPOS>MOLECULE
frag5-572-145/138278 -- energy: -1.800510
   23    24     1     1     1
SMALL
USER_CHARGES


@<TRIPOS>ATOM
      1 C1         -2.0098    0.2364   -0.0178 C.ar       1 <1>        0.000
      2 C2         -2.0768   -1.1502   -0.3036 C.ar       1 <1>        0.000
      3 C3         -0.8078    1.1168    0.0240 C.3        1 <1>        0.000
      4 C4         -3.2803    0.8471    0.0670 C.ar       1 <1>        0.000
      5 N1         -0.9621   -1.9256   -0.6800 N.am       1 <1>        0.000
      6 C5         -3.2722   -1.8508   -0.0339 C.ar       1 <1>        0.000
      7 C6          0.4015    0.3510    0.4859 C.3        1 <1>        0.000
      8 C7         -4.4790    0.1737    0.2439 C.ar       1 <1>        0.000
      9 C9          0.3557   -1.7310   -0.9610 C.2        1 <1>        0.000
     10 C11        -4.4697   -1.1851    0.2134 C.ar       1 <1>        0.000
     11 C12         1.0696   -0.4847   -0.5700 C.3        1 <1>        0.000
     12 O1          0.9783   -2.6302   -1.5281 O.2        1 <1>        0.000
     13 H          -0.6185    1.5000   -0.9787 H.spc      1 <1>        0.000
     14 H          -0.9945    1.9324    0.7226 H.spc      1 <1>        0.000
     15 H          -3.3216    1.9334   -0.0129 H.spc      1 <1>        0.000
     16 H          -1.2134   -2.9104   -0.7663 H.spc      1 <1>        0.000
     17 H          -3.2574   -2.9406   -0.0189 H.spc      1 <1>        0.000
     18 H           0.0606   -0.3361    1.2604 H.spc      1 <1>        0.000
     19 H           1.1344    1.0891    0.8118 H.spc      1 <1>        0.000
     20 H          -5.4078    0.7214    0.4038 H.spc      1 <1>        0.000
     21 H          -5.3887   -1.7469    0.3805 H.spc      1 <1>        0.000
     22 H           2.0272   -0.7973   -0.1537 H.spc      1 <1>        0.000
     23 H           1.1192    0.1345   -1.4657 H.spc      1 <1>        0.000
@<TRIPOS>BOND
     1    2    6 ar 
     2    3    7 1  
     3    5    9 am 
     4    2    5 1  
     5    9   12 2  
     6    7   11 1  
     7    8   10 ar 
     8    1    2 ar 
     9    4    8 ar 
    10    9   11 1  
    11    1    3 1  
    12    1    4 ar 
    13    6   10 ar 
    14    3   13 1  
    15    3   14 1  
    16    4   15 1  
    17    5   16 1  
    18    6   17 1  
    19    7   18 1  
    20    7   19 1  
    21    8   20 1  
    22   10   21 1  
    23   11   22 1  
    24   11   23 1  
# Name:          frag5-572-145/138278 -- energy: -2.059490
# Creation time: Sat Jun  5 12:53:44 2010


@<TRIPOS>MOLECULE
frag5-572-145/138278 -- energy: -2.059490
   23    24     1     1     1
SMALL
USER_CHARGES


@<TRIPOS>ATOM
      1 C1         -1.9557    0.1783    0.1677 C.ar       1 <1>        0.000
      2 C2         -2.0862   -1.0518   -0.5208 C.ar       1 <1>        0.000
      3 C3         -0.7338    0.9877    0.3665 C.3        1 <1>        0.000
      4 C4         -3.1757    0.6052    0.7494 C.ar       1 <1>        0.000
      5 N1         -1.0041   -1.7768   -1.0054 N.am       1 <1>        0.000
      6 C5         -3.3604   -1.6730   -0.6801 C.ar       1 <1>        0.000
      7 C6          0.3838    0.8114   -0.6340 C.3        1 <1>        0.000
      8 C7         -4.4311    0.0048    0.5885 C.ar       1 <1>        0.000
      9 C9          0.3216   -1.7622   -0.7693 C.2        1 <1>        0.000
     10 C11        -4.5112   -1.1874   -0.0757 C.ar       1 <1>        0.000
     11 C12         1.1168   -0.5042   -0.6117 C.3        1 <1>        0.000
     12 O1          0.8836   -2.8647   -0.6353 O.2        1 <1>        0.000
     13 H          -1.0501    2.0268    0.2757 H.spc      1 <1>        0.000
     14 H          -0.3236    0.6723    1.3259 H.spc      1 <1>        0.000
     15 H          -3.1328    1.4892    1.3857 H.spc      1 <1>        0.000
     16 H          -1.2750   -2.4777   -1.6951 H.spc      1 <1>        0.000
     17 H          -3.4330   -2.5653   -1.3018 H.spc      1 <1>        0.000
     18 H           1.1262    1.5710   -0.3891 H.spc      1 <1>        0.000
     19 H          -0.0825    0.8767   -1.6170 H.spc      1 <1>        0.000
     20 H          -5.3281    0.4798    0.9858 H.spc      1 <1>        0.000
     21 H          -5.4497   -1.7392   -0.1288 H.spc      1 <1>        0.000
     22 H           1.5606   -0.5682    0.3818 H.spc      1 <1>        0.000
     23 H           1.7826   -0.4760   -1.4743 H.spc      1 <1>        0.000
@<TRIPOS>BOND
     1    2    6 ar 
     2    3    7 1  
     3    5    9 am 
     4    2    5 1  
     5    9   12 2  
     6    7   11 1  
     7    8   10 ar 
     8    1    2 ar 
     9    4    8 ar 
    10    9   11 1  
    11    1    3 1  
    12    1    4 ar 
    13    6   10 ar 
    14    3   13 1  
    15    3   14 1  
    16    4   15 1  
    17    5   16 1  
    18    6   17 1  
    19    7   18 1  
    20    7   19 1  
    21    8   20 1  
    22   10   21 1  
    23   11   22 1  
    24   11   23 1  
