#      Rotatable Fragment
#      Build by yxyuan
#
# Name:          frag3-176-9/31924
# Creation time: Sat Jun  5 12:52:07 2010


@<TRIPOS>MOLECULE
frag3-176-9/31924
   26    25     1     1     1
SMALL
USER_CHARGES


@<TRIPOS>ATOM
      1 N1         -5.5694   -1.2243   -0.4690 N.am       1 <1>        0.000
      2 C4         -5.2654   -1.8383   -1.6337 C.2        1 <1>        0.000
      3 O2         -4.3295   -2.6194   -1.7152 O.2        1 <1>        0.000
      4 C5         -6.0802   -1.5717   -2.8372 C.2        1 <1>        0.000
      5 C6         -5.6410   -1.7077   -4.1009 C.2        1 <1>        0.000
      6 C7         -6.4539   -1.4684   -5.2987 C.2        1 <1>        0.000
      7 C8         -6.1092   -1.8071   -6.5496 C.2        1 <1>        0.000
      8 C9         -6.9566   -1.5992   -7.7362 C.2        1 <1>        0.000
      9 C10        -6.7321   -2.0811   -8.9701 C.2        1 <1>        0.000
     10 C11        -5.6081   -2.9241   -9.4022 C.2        1 <1>        0.000
     11 C12        -5.4690   -3.4262  -10.6376 C.2        1 <1>        0.000
     12 C13        -4.3400   -4.2627  -11.0612 C.2        1 <1>        0.000
     13 C14        -4.0759   -4.5561  -12.3377 C.2        1 <1>        0.000
     14 H          -5.0128   -1.4093    0.3655 H.spc      1 <1>        0.000
     15 H          -6.3554   -0.5758   -0.4243 H.spc      1 <1>        0.000
     16 H          -7.1087   -1.2419   -2.6905 H.spc      1 <1>        0.000
     17 H          -4.6063   -2.0182   -4.2459 H.spc      1 <1>        0.000
     18 H          -7.4161   -0.9753   -5.1606 H.spc      1 <1>        0.000
     19 H          -5.1331   -2.2688   -6.6987 H.spc      1 <1>        0.000
     20 H          -7.8537   -0.9952   -7.6000 H.spc      1 <1>        0.000
     21 H          -7.4635   -1.8182   -9.7344 H.spc      1 <1>        0.000
     22 H          -4.8358   -3.1566   -8.6690 H.spc      1 <1>        0.000
     23 H          -6.2416   -3.1992  -11.3722 H.spc      1 <1>        0.000
     24 H          -3.6810   -4.6666  -10.2926 H.spc      1 <1>        0.000
     25 H          -4.7159   -4.1676  -13.1299 H.spc      1 <1>        0.000
     26 H          -3.2204   -5.1840  -12.5869 H.spc      1 <1>        0.000
@<TRIPOS>BOND
     1    4    5 2  
     2   10   11 2  
     3    1    2 am 
     4   12   13 2  
     5    8    9 2  
     6    9   10 1  
     7   11   12 1  
     8    7    8 1  
     9    2    4 1  
    10    6    7 2  
    11    2    3 2  
    12    5    6 1  
    13    1   14 1  
    14    1   15 1  
    15    4   16 1  
    16    5   17 1  
    17    6   18 1  
    18    7   19 1  
    19    8   20 1  
    20    9   21 1  
    21   10   22 1  
    22   11   23 1  
    23   12   24 1  
    24   13   25 1  
    25   13   26 1  
# Name:          frag3-176-9/31924
# Creation time: Sat Jun  5 12:52:07 2010


@<TRIPOS>MOLECULE
frag3-176-9/31924
   26    25     1     1     1
SMALL
USER_CHARGES


@<TRIPOS>ATOM
      1 N1         -4.2734   -1.1385   -1.7836 N.am       1 <1>        0.000
      2 C4         -4.9372   -2.2189   -2.2445 C.2        1 <1>        0.000
      3 O2         -4.9722   -3.2638   -1.6089 O.2        1 <1>        0.000
      4 C5         -5.6419   -2.1536   -3.5410 C.2        1 <1>        0.000
      5 C6         -6.3624   -1.1009   -3.9667 C.2        1 <1>        0.000
      6 C7         -7.0424   -1.0298   -5.2654 C.2        1 <1>        0.000
      7 C8         -6.5750   -1.5591   -6.4084 C.2        1 <1>        0.000
      8 C9         -7.2855   -1.5214   -7.6978 C.2        1 <1>        0.000
      9 C10        -6.8841   -2.0921   -8.8458 C.2        1 <1>        0.000
     10 C11        -5.6642   -2.8835   -9.0639 C.2        1 <1>        0.000
     11 C12        -5.3244   -3.4433  -10.2338 C.2        1 <1>        0.000
     12 C13        -4.1010   -4.2271  -10.4432 C.2        1 <1>        0.000
     13 C14        -3.5667   -4.4545  -11.6465 C.2        1 <1>        0.000
     14 H          -3.7872   -1.1824   -0.8880 H.spc      1 <1>        0.000
     15 H          -4.2578   -0.2778   -2.3307 H.spc      1 <1>        0.000
     16 H          -5.5731   -3.0198   -4.1991 H.spc      1 <1>        0.000
     17 H          -6.4472   -0.2415   -3.3016 H.spc      1 <1>        0.000
     18 H          -7.9987   -0.5083   -5.3056 H.spc      1 <1>        0.000
     19 H          -5.6025   -2.0505   -6.3794 H.spc      1 <1>        0.000
     20 H          -8.2295   -0.9771   -7.7232 H.spc      1 <1>        0.000
     21 H          -7.5337   -1.9533   -9.7100 H.spc      1 <1>        0.000
     22 H          -4.9913   -3.0244   -8.2181 H.spc      1 <1>        0.000
     23 H          -5.9972   -3.3083  -11.0807 H.spc      1 <1>        0.000
     24 H          -3.6015   -4.6462   -9.5698 H.spc      1 <1>        0.000
     25 H          -4.0424   -4.0490  -12.5395 H.spc      1 <1>        0.000
     26 H          -2.6551   -5.0455  -11.7352 H.spc      1 <1>        0.000
@<TRIPOS>BOND
     1    4    5 2  
     2   10   11 2  
     3    1    2 am 
     4   12   13 2  
     5    8    9 2  
     6    9   10 1  
     7   11   12 1  
     8    7    8 1  
     9    2    4 1  
    10    6    7 2  
    11    2    3 2  
    12    5    6 1  
    13    1   14 1  
    14    1   15 1  
    15    4   16 1  
    16    5   17 1  
    17    6   18 1  
    18    7   19 1  
    19    8   20 1  
    20    9   21 1  
    21   10   22 1  
    22   11   23 1  
    23   12   24 1  
    24   13   25 1  
    25   13   26 1  
# Name:          frag3-176-9/31924
# Creation time: Sat Jun  5 12:52:07 2010


@<TRIPOS>MOLECULE
frag3-176-9/31924
   26    25     1     1     1
SMALL
USER_CHARGES


@<TRIPOS>ATOM
      1 N1         -3.8364   -1.4641   -2.2485 N.am       1 <1>        0.000
      2 C4         -4.9509   -2.2255   -2.2412 C.2        1 <1>        0.000
      3 O2         -5.3853   -2.7082   -1.2045 O.2        1 <1>        0.000
      4 C5         -5.6730   -2.4886   -3.5038 C.2        1 <1>        0.000
      5 C6         -5.8890   -1.5741   -4.4633 C.2        1 <1>        0.000
      6 C7         -6.5868   -1.8396   -5.7287 C.2        1 <1>        0.000
      7 C8         -6.9278   -0.9083   -6.6324 C.2        1 <1>        0.000
      8 C9         -7.5899   -1.1977   -7.9178 C.2        1 <1>        0.000
      9 C10        -7.0896   -1.9542   -8.9118 C.2        1 <1>        0.000
     10 C11        -5.7944   -2.6535   -8.9300 C.2        1 <1>        0.000
     11 C12        -5.3657   -3.4199   -9.9430 C.2        1 <1>        0.000
     12 C13        -4.0682   -4.1101   -9.9543 C.2        1 <1>        0.000
     13 C14        -3.4734   -4.5426  -11.0700 C.2        1 <1>        0.000
     14 H          -3.3382   -1.2809   -1.3775 H.spc      1 <1>        0.000
     15 H          -3.4924   -1.0719   -3.1250 H.spc      1 <1>        0.000
     16 H          -6.0571   -3.4954   -3.6676 H.spc      1 <1>        0.000
     17 H          -5.5204   -0.5629   -4.2910 H.spc      1 <1>        0.000
     18 H          -6.8479   -2.8743   -5.9508 H.spc      1 <1>        0.000
     19 H          -6.7001    0.1322   -6.4008 H.spc      1 <1>        0.000
     20 H          -8.5747   -0.7586   -8.0774 H.spc      1 <1>        0.000
     21 H          -7.7114   -2.0609   -9.8007 H.spc      1 <1>        0.000
     22 H          -5.1419   -2.5410   -8.0642 H.spc      1 <1>        0.000
     23 H          -6.0174   -3.5380  -10.8087 H.spc      1 <1>        0.000
     24 H          -3.5645   -4.2781   -9.0024 H.spc      1 <1>        0.000
     25 H          -3.9520   -4.3895  -12.0373 H.spc      1 <1>        0.000
     26 H          -2.5096   -5.0484  -11.0128 H.spc      1 <1>        0.000
@<TRIPOS>BOND
     1    4    5 2  
     2   10   11 2  
     3    1    2 am 
     4   12   13 2  
     5    8    9 2  
     6    9   10 1  
     7   11   12 1  
     8    7    8 1  
     9    2    4 1  
    10    6    7 2  
    11    2    3 2  
    12    5    6 1  
    13    1   14 1  
    14    1   15 1  
    15    4   16 1  
    16    5   17 1  
    17    6   18 1  
    18    7   19 1  
    19    8   20 1  
    20    9   21 1  
    21   10   22 1  
    22   11   23 1  
    23   12   24 1  
    24   13   25 1  
    25   13   26 1  
# Name:          frag3-176-9/31924
# Creation time: Sat Jun  5 12:52:07 2010


@<TRIPOS>MOLECULE
frag3-176-9/31924
   26    25     1     1     1
SMALL
USER_CHARGES


@<TRIPOS>ATOM
      1 N1         -4.6079   -3.4004   -2.0335 N.am       1 <1>        0.000
      2 C4         -4.9976   -2.1114   -2.1239 C.2        1 <1>        0.000
      3 O2         -4.6176   -1.2739   -1.3169 O.2        1 <1>        0.000
      4 C5         -5.9001   -1.6879   -3.2145 C.2        1 <1>        0.000
      5 C6         -5.6616   -1.8848   -4.5216 C.2        1 <1>        0.000
      6 C7         -6.5683   -1.4859   -5.6061 C.2        1 <1>        0.000
      7 C8         -6.3728   -1.7371   -6.9085 C.2        1 <1>        0.000
      8 C9         -7.3145   -1.3674   -7.9807 C.2        1 <1>        0.000
      9 C10        -7.1295   -1.5436   -9.3010 C.2        1 <1>        0.000
     10 C11        -5.9606   -2.1547   -9.9529 C.2        1 <1>        0.000
     11 C12        -5.4557   -3.3536   -9.6196 C.2        1 <1>        0.000
     12 C13        -4.2899   -3.9609  -10.2743 C.2        1 <1>        0.000
     13 C14        -3.7544   -5.1249   -9.8957 C.2        1 <1>        0.000
     14 H          -3.9843   -3.6931   -1.2813 H.spc      1 <1>        0.000
     15 H          -4.9370   -4.0819   -2.7174 H.spc      1 <1>        0.000
     16 H          -6.8243   -1.1800   -2.9390 H.spc      1 <1>        0.000
     17 H          -4.7283   -2.3758   -4.7973 H.spc      1 <1>        0.000
     18 H          -7.4720   -0.9424   -5.3301 H.spc      1 <1>        0.000
     19 H          -5.4544   -2.2500   -7.1942 H.spc      1 <1>        0.000
     20 H          -8.2529   -0.9059   -7.6732 H.spc      1 <1>        0.000
     21 H          -7.9288   -1.1977   -9.9565 H.spc      1 <1>        0.000
     22 H          -5.4746   -1.6002  -10.7557 H.spc      1 <1>        0.000
     23 H          -5.9396   -3.9086   -8.8159 H.spc      1 <1>        0.000
     24 H          -3.8372   -3.4338  -11.1141 H.spc      1 <1>        0.000
     25 H          -4.1842   -5.6762   -9.0593 H.spc      1 <1>        0.000
     26 H          -2.8877   -5.5233  -10.4232 H.spc      1 <1>        0.000
@<TRIPOS>BOND
     1    4    5 2  
     2   10   11 2  
     3    1    2 am 
     4   12   13 2  
     5    8    9 2  
     6    9   10 1  
     7   11   12 1  
     8    7    8 1  
     9    2    4 1  
    10    6    7 2  
    11    2    3 2  
    12    5    6 1  
    13    1   14 1  
    14    1   15 1  
    15    4   16 1  
    16    5   17 1  
    17    6   18 1  
    18    7   19 1  
    19    8   20 1  
    20    9   21 1  
    21   10   22 1  
    22   11   23 1  
    23   12   24 1  
    24   13   25 1  
    25   13   26 1  
# Name:          frag3-176-9/31924
# Creation time: Sat Jun  5 12:52:07 2010


@<TRIPOS>MOLECULE
frag3-176-9/31924
   26    25     1     1     1
SMALL
USER_CHARGES


@<TRIPOS>ATOM
      1 N1         -3.3729   -2.6641   -2.7007 N.am       1 <1>        0.000
      2 C4         -4.6941   -2.3999   -2.7907 C.2        1 <1>        0.000
      3 O2         -5.4255   -2.4792   -1.8147 O.2        1 <1>        0.000
      4 C5         -5.2745   -2.0026   -4.0878 C.2        1 <1>        0.000
      5 C6         -6.4641   -1.3894   -4.2381 C.2        1 <1>        0.000
      6 C7         -7.0305   -0.9759   -5.5233 C.2        1 <1>        0.000
      7 C8         -6.8370   -1.6097   -6.6929 C.2        1 <1>        0.000
      8 C9         -7.4408   -1.2114   -7.9725 C.2        1 <1>        0.000
      9 C10        -7.2684   -1.8173   -9.1609 C.2        1 <1>        0.000
     10 C11        -6.4472   -3.0021   -9.4342 C.2        1 <1>        0.000
     11 C12        -5.1079   -3.0346   -9.3385 C.2        1 <1>        0.000
     12 C13        -4.2924   -4.2218   -9.6030 C.2        1 <1>        0.000
     13 C14        -2.9750   -4.2784   -9.3922 C.2        1 <1>        0.000
     14 H          -2.9670   -2.9361   -1.8053 H.spc      1 <1>        0.000
     15 H          -2.7808   -2.5917   -3.5281 H.spc      1 <1>        0.000
     16 H          -4.6998   -2.2208   -4.9879 H.spc      1 <1>        0.000
     17 H          -7.0464   -1.1866   -3.3393 H.spc      1 <1>        0.000
     18 H          -7.6580   -0.0847   -5.5325 H.spc      1 <1>        0.000
     19 H          -6.1846   -2.4829   -6.6923 H.spc      1 <1>        0.000
     20 H          -8.0931   -0.3383   -7.9568 H.spc      1 <1>        0.000
     21 H          -7.7943   -1.3822  -10.0107 H.spc      1 <1>        0.000
     22 H          -6.9581   -3.9168   -9.7349 H.spc      1 <1>        0.000
     23 H          -4.5951   -2.1186   -9.0452 H.spc      1 <1>        0.000
     24 H          -4.7890   -5.1098   -9.9942 H.spc      1 <1>        0.000
     25 H          -2.4477   -3.4080   -9.0017 H.spc      1 <1>        0.000
     26 H          -2.4270   -5.1950   -9.6107 H.spc      1 <1>        0.000
@<TRIPOS>BOND
     1    4    5 2  
     2   10   11 2  
     3    1    2 am 
     4   12   13 2  
     5    8    9 2  
     6    9   10 1  
     7   11   12 1  
     8    7    8 1  
     9    2    4 1  
    10    6    7 2  
    11    2    3 2  
    12    5    6 1  
    13    1   14 1  
    14    1   15 1  
    15    4   16 1  
    16    5   17 1  
    17    6   18 1  
    18    7   19 1  
    19    8   20 1  
    20    9   21 1  
    21   10   22 1  
    22   11   23 1  
    23   12   24 1  
    24   13   25 1  
    25   13   26 1  
# Name:          frag3-176-9/31924
# Creation time: Sat Jun  5 12:52:07 2010


@<TRIPOS>MOLECULE
frag3-176-9/31924
   26    25     1     1     1
SMALL
USER_CHARGES


@<TRIPOS>ATOM
      1 N1         -5.3684   -3.2366   -1.3876 N.am       1 <1>        0.000
      2 C4         -5.0016   -2.2480   -2.2308 C.2        1 <1>        0.000
      3 O2         -4.1103   -1.4633   -1.9419 O.2        1 <1>        0.000
      4 C5         -5.6794   -2.1086   -3.5353 C.2        1 <1>        0.000
      5 C6         -6.1910   -0.9587   -4.0120 C.2        1 <1>        0.000
      6 C7         -6.8405   -0.8169   -5.3186 C.2        1 <1>        0.000
      7 C8         -6.4422   -1.4267   -6.4481 C.2        1 <1>        0.000
      8 C9         -7.1260   -1.3139   -7.7459 C.2        1 <1>        0.000
      9 C10        -6.7407   -1.8792   -8.9021 C.2        1 <1>        0.000
     10 C11        -5.5690   -2.7367   -9.1232 C.2        1 <1>        0.000
     11 C12        -5.3187   -3.4029  -10.2595 C.2        1 <1>        0.000
     12 C13        -4.1445   -4.2550  -10.4715 C.2        1 <1>        0.000
     13 C14        -4.0981   -5.2397  -11.3728 C.2        1 <1>        0.000
     14 H          -4.8987   -3.3402   -0.4881 H.spc      1 <1>        0.000
     15 H          -6.1152   -3.8799   -1.6501 H.spc      1 <1>        0.000
     16 H          -5.7719   -2.9999   -4.1559 H.spc      1 <1>        0.000
     17 H          -6.1173   -0.0715   -3.3831 H.spc      1 <1>        0.000
     18 H          -7.7135   -0.1670   -5.3786 H.spc      1 <1>        0.000
     19 H          -5.5488   -2.0493   -6.3992 H.spc      1 <1>        0.000
     20 H          -8.0347   -0.7125   -7.7719 H.spc      1 <1>        0.000
     21 H          -7.3666   -1.6795   -9.7719 H.spc      1 <1>        0.000
     22 H          -4.8535   -2.8385   -8.3072 H.spc      1 <1>        0.000
     23 H          -6.0330   -3.3049  -11.0770 H.spc      1 <1>        0.000
     24 H          -3.2605   -4.0749   -9.8597 H.spc      1 <1>        0.000
     25 H          -4.9653   -5.4455  -12.0003 H.spc      1 <1>        0.000
     26 H          -3.1931   -5.8375  -11.4808 H.spc      1 <1>        0.000
@<TRIPOS>BOND
     1    4    5 2  
     2   10   11 2  
     3    1    2 am 
     4   12   13 2  
     5    8    9 2  
     6    9   10 1  
     7   11   12 1  
     8    7    8 1  
     9    2    4 1  
    10    6    7 2  
    11    2    3 2  
    12    5    6 1  
    13    1   14 1  
    14    1   15 1  
    15    4   16 1  
    16    5   17 1  
    17    6   18 1  
    18    7   19 1  
    19    8   20 1  
    20    9   21 1  
    21   10   22 1  
    22   11   23 1  
    23   12   24 1  
    24   13   25 1  
    25   13   26 1  
# Name:          frag3-176-9/31924
# Creation time: Sat Jun  5 12:52:07 2010


@<TRIPOS>MOLECULE
frag3-176-9/31924
   26    25     1     1     1
SMALL
USER_CHARGES


@<TRIPOS>ATOM
      1 N1         -4.3885   -2.7718   -1.6429 N.am       1 <1>        0.000
      2 C4         -5.2947   -1.7720   -1.6121 C.2        1 <1>        0.000
      3 O2         -5.5392   -1.1661   -0.5774 O.2        1 <1>        0.000
      4 C5         -6.0120   -1.3871   -2.8460 C.2        1 <1>        0.000
      5 C6         -5.6695   -1.7843   -4.0825 C.2        1 <1>        0.000
      6 C7         -6.3954   -1.4214   -5.3075 C.2        1 <1>        0.000
      7 C8         -6.1778   -1.9531   -6.5192 C.2        1 <1>        0.000
      8 C9         -6.9453   -1.6089   -7.7306 C.2        1 <1>        0.000
      9 C10        -6.7229   -2.0711   -8.9722 C.2        1 <1>        0.000
     10 C11        -5.6809   -3.0233   -9.3903 C.2        1 <1>        0.000
     11 C12        -5.3477   -3.2629  -10.6667 C.2        1 <1>        0.000
     12 C13        -4.3020   -4.2122  -11.0744 C.2        1 <1>        0.000
     13 C14        -4.1543   -4.6519  -12.3275 C.2        1 <1>        0.000
     14 H          -3.8915   -3.0360   -0.7923 H.spc      1 <1>        0.000
     15 H          -4.2007   -3.2631   -2.5168 H.spc      1 <1>        0.000
     16 H          -6.8798   -0.7352   -2.7453 H.spc      1 <1>        0.000
     17 H          -4.7907   -2.4210   -4.1845 H.spc      1 <1>        0.000
     18 H          -7.1715   -0.6605   -5.2248 H.spc      1 <1>        0.000
     19 H          -5.3798   -2.6894   -6.6153 H.spc      1 <1>        0.000
     20 H          -7.7737   -0.9115   -7.6064 H.spc      1 <1>        0.000
     21 H          -7.3855   -1.7011   -9.7546 H.spc      1 <1>        0.000
     22 H          -5.1461   -3.5684   -8.6125 H.spc      1 <1>        0.000
     23 H          -5.8832   -2.7225  -11.4473 H.spc      1 <1>        0.000
     24 H          -3.6107   -4.5766  -10.3145 H.spc      1 <1>        0.000
     25 H          -4.8299   -4.3058  -13.1097 H.spc      1 <1>        0.000
     26 H          -3.3582   -5.3566  -12.5675 H.spc      1 <1>        0.000
@<TRIPOS>BOND
     1    4    5 2  
     2   10   11 2  
     3    1    2 am 
     4   12   13 2  
     5    8    9 2  
     6    9   10 1  
     7   11   12 1  
     8    7    8 1  
     9    2    4 1  
    10    6    7 2  
    11    2    3 2  
    12    5    6 1  
    13    1   14 1  
    14    1   15 1  
    15    4   16 1  
    16    5   17 1  
    17    6   18 1  
    18    7   19 1  
    19    8   20 1  
    20    9   21 1  
    21   10   22 1  
    22   11   23 1  
    23   12   24 1  
    24   13   25 1  
    25   13   26 1  
# Name:          frag3-176-9/31924
# Creation time: Sat Jun  5 12:52:07 2010


@<TRIPOS>MOLECULE
frag3-176-9/31924
   26    25     1     1     1
SMALL
USER_CHARGES


@<TRIPOS>ATOM
      1 N1         -3.4725   -2.1922   -2.1572 N.am       1 <1>        0.000
      2 C4         -4.8049   -2.1160   -2.3610 C.2        1 <1>        0.000
      3 O2         -5.6001   -2.3520   -1.4639 O.2        1 <1>        0.000
      4 C5         -5.3195   -1.7349   -3.6909 C.2        1 <1>        0.000
      5 C6         -6.6238   -1.6889   -4.0227 C.2        1 <1>        0.000
      6 C7         -7.1370   -1.2927   -5.3333 C.2        1 <1>        0.000
      7 C8         -6.7340   -1.8017   -6.5103 C.2        1 <1>        0.000
      8 C9         -7.2806   -1.4251   -7.8205 C.2        1 <1>        0.000
      9 C10        -6.8621   -1.8686   -9.0176 C.2        1 <1>        0.000
     10 C11        -5.7860   -2.8259   -9.2823 C.2        1 <1>        0.000
     11 C12        -5.3619   -3.1840  -10.5056 C.2        1 <1>        0.000
     12 C13        -4.2810   -4.1381  -10.7535 C.2        1 <1>        0.000
     13 C14        -3.3670   -4.4663   -9.8305 C.2        1 <1>        0.000
     14 H          -3.1110   -2.4512   -1.2393 H.spc      1 <1>        0.000
     15 H          -2.8274   -1.9907   -2.9212 H.spc      1 <1>        0.000
     16 H          -4.5921   -1.4720   -4.4590 H.spc      1 <1>        0.000
     17 H          -7.3497   -1.9672   -3.2587 H.spc      1 <1>        0.000
     18 H          -7.9082   -0.5228   -5.3578 H.spc      1 <1>        0.000
     19 H          -5.9419   -2.5503   -6.4909 H.spc      1 <1>        0.000
     20 H          -8.1079   -0.7154   -7.8217 H.spc      1 <1>        0.000
     21 H          -7.3818   -1.4714   -9.8895 H.spc      1 <1>        0.000
     22 H          -5.2929   -3.2814   -8.4236 H.spc      1 <1>        0.000
     23 H          -5.8544   -2.7352  -11.3682 H.spc      1 <1>        0.000
     24 H          -4.2161   -4.6045  -11.7365 H.spc      1 <1>        0.000
     25 H          -3.4075   -4.0155   -8.8389 H.spc      1 <1>        0.000
     26 H          -2.5829   -5.1841  -10.0711 H.spc      1 <1>        0.000
@<TRIPOS>BOND
     1    4    5 2  
     2   10   11 2  
     3    1    2 am 
     4   12   13 2  
     5    8    9 2  
     6    9   10 1  
     7   11   12 1  
     8    7    8 1  
     9    2    4 1  
    10    6    7 2  
    11    2    3 2  
    12    5    6 1  
    13    1   14 1  
    14    1   15 1  
    15    4   16 1  
    16    5   17 1  
    17    6   18 1  
    18    7   19 1  
    19    8   20 1  
    20    9   21 1  
    21   10   22 1  
    22   11   23 1  
    23   12   24 1  
    24   13   25 1  
    25   13   26 1  
# Name:          frag3-176-9/31924
# Creation time: Sat Jun  5 12:52:07 2010


@<TRIPOS>MOLECULE
frag3-176-9/31924
   26    25     1     1     1
SMALL
USER_CHARGES


@<TRIPOS>ATOM
      1 N1         -3.6463   -1.9680   -1.7369 N.am       1 <1>        0.000
      2 C4         -4.8654   -2.0970   -2.3045 C.2        1 <1>        0.000
      3 O2         -5.8316   -2.4709   -1.6570 O.2        1 <1>        0.000
      4 C5         -5.0447   -1.7767   -3.7355 C.2        1 <1>        0.000
      5 C6         -6.2155   -1.8500   -4.3930 C.2        1 <1>        0.000
      6 C7         -6.4038   -1.5098   -5.8065 C.2        1 <1>        0.000
      7 C8         -7.5169   -1.7427   -6.5197 C.2        1 <1>        0.000
      8 C9         -7.7027   -1.3568   -7.9283 C.2        1 <1>        0.000
      9 C10        -6.9228   -1.7299   -8.9597 C.2        1 <1>        0.000
     10 C11        -5.7464   -2.6092   -8.9103 C.2        1 <1>        0.000
     11 C12        -5.2850   -3.3170   -9.9514 C.2        1 <1>        0.000
     12 C13        -4.1069   -4.1893   -9.8937 C.2        1 <1>        0.000
     13 C14        -3.3423   -4.4690  -10.9529 C.2        1 <1>        0.000
     14 H          -3.5185   -2.1845   -0.7484 H.spc      1 <1>        0.000
     15 H          -2.8536   -1.6541   -2.2969 H.spc      1 <1>        0.000
     16 H          -4.1667   -1.4587   -4.2977 H.spc      1 <1>        0.000
     17 H          -7.0884   -2.1871   -3.8340 H.spc      1 <1>        0.000
     18 H          -5.5718   -1.0283   -6.3204 H.spc      1 <1>        0.000
     19 H          -8.3408   -2.2532   -6.0211 H.spc      1 <1>        0.000
     20 H          -8.5495   -0.7096   -8.1567 H.spc      1 <1>        0.000
     21 H          -7.1935   -1.3366   -9.9395 H.spc      1 <1>        0.000
     22 H          -5.2129   -2.6916   -7.9634 H.spc      1 <1>        0.000
     23 H          -5.8181   -3.2395  -10.8990 H.spc      1 <1>        0.000
     24 H          -3.8409   -4.6334   -8.9344 H.spc      1 <1>        0.000
     25 H          -3.5817   -4.0406  -11.9262 H.spc      1 <1>        0.000
     26 H          -2.4791   -5.1256  -10.8438 H.spc      1 <1>        0.000
@<TRIPOS>BOND
     1    4    5 2  
     2   10   11 2  
     3    1    2 am 
     4   12   13 2  
     5    8    9 2  
     6    9   10 1  
     7   11   12 1  
     8    7    8 1  
     9    2    4 1  
    10    6    7 2  
    11    2    3 2  
    12    5    6 1  
    13    1   14 1  
    14    1   15 1  
    15    4   16 1  
    16    5   17 1  
    17    6   18 1  
    18    7   19 1  
    19    8   20 1  
    20    9   21 1  
    21   10   22 1  
    22   11   23 1  
    23   12   24 1  
    24   13   25 1  
    25   13   26 1  
# Name:          frag3-176-9/31924
# Creation time: Sat Jun  5 12:52:07 2010


@<TRIPOS>MOLECULE
frag3-176-9/31924
   26    25     1     1     1
SMALL
USER_CHARGES


@<TRIPOS>ATOM
      1 N1         -3.5092   -1.7832   -2.1675 N.am       1 <1>        0.000
      2 C4         -4.8144   -2.0605   -2.3758 C.2        1 <1>        0.000
      3 O2         -5.5113   -2.5392   -1.4938 O.2        1 <1>        0.000
      4 C5         -5.4212   -1.7778   -3.6915 C.2        1 <1>        0.000
      5 C6         -6.7323   -1.9020   -3.9717 C.2        1 <1>        0.000
      6 C7         -7.3375   -1.6012   -5.2710 C.2        1 <1>        0.000
      7 C8         -6.7259   -1.7442   -6.4596 C.2        1 <1>        0.000
      8 C9         -7.3532   -1.4779   -7.7622 C.2        1 <1>        0.000
      9 C10        -6.8076   -1.6973   -8.9707 C.2        1 <1>        0.000
     10 C11        -5.4825   -2.2612   -9.2541 C.2        1 <1>        0.000
     11 C12        -5.2672   -3.3667   -9.9827 C.2        1 <1>        0.000
     12 C13        -3.9408   -3.9232  -10.2622 C.2        1 <1>        0.000
     13 C14        -3.7274   -4.9519  -11.0865 C.2        1 <1>        0.000
     14 H          -3.0861   -1.9732   -1.2591 H.spc      1 <1>        0.000
     15 H          -2.9465   -1.3837   -2.9186 H.spc      1 <1>        0.000
     16 H          -4.7613   -1.4450   -4.4927 H.spc      1 <1>        0.000
     17 H          -7.3896   -2.2510   -3.1753 H.spc      1 <1>        0.000
     18 H          -8.3634   -1.2328   -5.2746 H.spc      1 <1>        0.000
     19 H          -5.6896   -2.0821   -6.4573 H.spc      1 <1>        0.000
     20 H          -8.3603   -1.0613   -7.7463 H.spc      1 <1>        0.000
     21 H          -7.4153   -1.4271   -9.8343 H.spc      1 <1>        0.000
     22 H          -4.6136   -1.7462   -8.8443 H.spc      1 <1>        0.000
     23 H          -6.1344   -3.8841  -10.3931 H.spc      1 <1>        0.000
     24 H          -3.0796   -3.4720   -9.7694 H.spc      1 <1>        0.000
     25 H          -4.5668   -5.4259  -11.5952 H.spc      1 <1>        0.000
     26 H          -2.7138   -5.3176  -11.2506 H.spc      1 <1>        0.000
@<TRIPOS>BOND
     1    4    5 2  
     2   10   11 2  
     3    1    2 am 
     4   12   13 2  
     5    8    9 2  
     6    9   10 1  
     7   11   12 1  
     8    7    8 1  
     9    2    4 1  
    10    6    7 2  
    11    2    3 2  
    12    5    6 1  
    13    1   14 1  
    14    1   15 1  
    15    4   16 1  
    16    5   17 1  
    17    6   18 1  
    18    7   19 1  
    19    8   20 1  
    20    9   21 1  
    21   10   22 1  
    22   11   23 1  
    23   12   24 1  
    24   13   25 1  
    25   13   26 1  
# Name:          frag3-176-9/31924
# Creation time: Sat Jun  5 12:52:07 2010


@<TRIPOS>MOLECULE
frag3-176-9/31924
   26    25     1     1     1
SMALL
USER_CHARGES


@<TRIPOS>ATOM
      1 N1         -5.7355   -3.1337   -1.2700 N.am       1 <1>        0.000
      2 C4         -5.2888   -2.0859   -1.9960 C.2        1 <1>        0.000
      3 O2         -4.3844   -1.3712   -1.5898 O.2        1 <1>        0.000
      4 C5         -5.8958   -1.7919   -3.3095 C.2        1 <1>        0.000
      5 C6         -5.2679   -1.1551   -4.3157 C.2        1 <1>        0.000
      6 C7         -5.8637   -0.8853   -5.6282 C.2        1 <1>        0.000
      7 C8         -6.5752   -1.7697   -6.3481 C.2        1 <1>        0.000
      8 C9         -7.2069   -1.4757   -7.6445 C.2        1 <1>        0.000
      9 C10        -6.8410   -1.9741   -8.8379 C.2        1 <1>        0.000
     10 C11        -5.7557   -2.9272   -9.1066 C.2        1 <1>        0.000
     11 C12        -5.4178   -3.3679  -10.3270 C.2        1 <1>        0.000
     12 C13        -4.3295   -4.3166  -10.5859 C.2        1 <1>        0.000
     13 C14        -4.0682   -4.8318  -11.7902 C.2        1 <1>        0.000
     14 H          -5.3168   -3.3415   -0.3634 H.spc      1 <1>        0.000
     15 H          -6.4916   -3.7171   -1.6283 H.spc      1 <1>        0.000
     16 H          -6.9241   -2.1129   -3.4760 H.spc      1 <1>        0.000
     17 H          -4.2463   -0.8167   -4.1429 H.spc      1 <1>        0.000
     18 H          -5.7185    0.1082   -6.0523 H.spc      1 <1>        0.000
     19 H          -6.6926   -2.7750   -5.9435 H.spc      1 <1>        0.000
     20 H          -8.0525   -0.7879   -7.6360 H.spc      1 <1>        0.000
     21 H          -7.4124   -1.6337   -9.7015 H.spc      1 <1>        0.000
     22 H          -5.1864   -3.3016   -8.2558 H.spc      1 <1>        0.000
     23 H          -5.9872   -2.9982  -11.1797 H.spc      1 <1>        0.000
     24 H          -3.6991   -4.6178   -9.7492 H.spc      1 <1>        0.000
     25 H          -4.6799   -4.5509  -12.6475 H.spc      1 <1>        0.000
     26 H          -3.2433   -5.5331  -11.9156 H.spc      1 <1>        0.000
@<TRIPOS>BOND
     1    4    5 2  
     2   10   11 2  
     3    1    2 am 
     4   12   13 2  
     5    8    9 2  
     6    9   10 1  
     7   11   12 1  
     8    7    8 1  
     9    2    4 1  
    10    6    7 2  
    11    2    3 2  
    12    5    6 1  
    13    1   14 1  
    14    1   15 1  
    15    4   16 1  
    16    5   17 1  
    17    6   18 1  
    18    7   19 1  
    19    8   20 1  
    20    9   21 1  
    21   10   22 1  
    22   11   23 1  
    23   12   24 1  
    24   13   25 1  
    25   13   26 1  
# Name:          frag3-176-9/31924
# Creation time: Sat Jun  5 12:52:07 2010


@<TRIPOS>MOLECULE
frag3-176-9/31924
   26    25     1     1     1
SMALL
USER_CHARGES


@<TRIPOS>ATOM
      1 N1         -5.6534   -2.1710   -0.6744 N.am       1 <1>        0.000
      2 C4         -5.1261   -2.0703   -1.9140 C.2        1 <1>        0.000
      3 O2         -3.9212   -2.1538   -2.1004 O.2        1 <1>        0.000
      4 C5         -6.0157   -1.8609   -3.0745 C.2        1 <1>        0.000
      5 C6         -5.5974   -1.5070   -4.3028 C.2        1 <1>        0.000
      6 C7         -6.4744   -1.3236   -5.4640 C.2        1 <1>        0.000
      7 C8         -6.0923   -1.4158   -6.7465 C.2        1 <1>        0.000
      8 C9         -6.9958   -1.2742   -7.9006 C.2        1 <1>        0.000
      9 C10        -6.9374   -1.9725   -9.0476 C.2        1 <1>        0.000
     10 C11        -5.9743   -3.0255   -9.3967 C.2        1 <1>        0.000
     11 C12        -5.6748   -3.3928  -10.6528 C.2        1 <1>        0.000
     12 C13        -4.7041   -4.4405  -10.9886 C.2        1 <1>        0.000
     13 C14        -3.4636   -4.4783  -10.4866 C.2        1 <1>        0.000
     14 H          -5.0428   -2.3197    0.1290 H.spc      1 <1>        0.000
     15 H          -6.6621   -2.0983   -0.5418 H.spc      1 <1>        0.000
     16 H          -7.0860   -2.0031   -2.9249 H.spc      1 <1>        0.000
     17 H          -4.5291   -1.3447   -4.4456 H.spc      1 <1>        0.000
     18 H          -7.5219   -1.0937   -5.2690 H.spc      1 <1>        0.000
     19 H          -5.0388   -1.6092   -6.9486 H.spc      1 <1>        0.000
     20 H          -7.7888   -0.5311   -7.8166 H.spc      1 <1>        0.000
     21 H          -7.6868   -1.7310   -9.8014 H.spc      1 <1>        0.000
     22 H          -5.4691   -3.5432   -8.5813 H.spc      1 <1>        0.000
     23 H          -6.1826   -2.8827  -11.4713 H.spc      1 <1>        0.000
     24 H          -5.0077   -5.2262  -11.6804 H.spc      1 <1>        0.000
     25 H          -3.1327   -3.7057   -9.7926 H.spc      1 <1>        0.000
     26 H          -2.7845   -5.2817  -10.7719 H.spc      1 <1>        0.000
@<TRIPOS>BOND
     1    4    5 2  
     2   10   11 2  
     3    1    2 am 
     4   12   13 2  
     5    8    9 2  
     6    9   10 1  
     7   11   12 1  
     8    7    8 1  
     9    2    4 1  
    10    6    7 2  
    11    2    3 2  
    12    5    6 1  
    13    1   14 1  
    14    1   15 1  
    15    4   16 1  
    16    5   17 1  
    17    6   18 1  
    18    7   19 1  
    19    8   20 1  
    20    9   21 1  
    21   10   22 1  
    22   11   23 1  
    23   12   24 1  
    24   13   25 1  
    25   13   26 1  
# Name:          frag3-176-9/31924
# Creation time: Sat Jun  5 12:52:07 2010


@<TRIPOS>MOLECULE
frag3-176-9/31924
   26    25     1     1     1
SMALL
USER_CHARGES


@<TRIPOS>ATOM
      1 N1         -4.8970   -1.0227   -1.6705 N.am       1 <1>        0.000
      2 C4         -4.9400   -2.2494   -2.2311 C.2        1 <1>        0.000
      3 O2         -4.3625   -3.2017   -1.7244 O.2        1 <1>        0.000
      4 C5         -5.7041   -2.4645   -3.4778 C.2        1 <1>        0.000
      5 C6         -5.8617   -1.5448   -4.4441 C.2        1 <1>        0.000
      6 C7         -6.5989   -1.7649   -5.6951 C.2        1 <1>        0.000
      7 C8         -6.7688   -0.8512   -6.6629 C.2        1 <1>        0.000
      8 C9         -7.4753   -1.1027   -7.9321 C.2        1 <1>        0.000
      9 C10        -7.0687   -1.9292   -8.9130 C.2        1 <1>        0.000
     10 C11        -5.8510   -2.7552   -8.9307 C.2        1 <1>        0.000
     11 C12        -5.4375   -3.4674   -9.9888 C.2        1 <1>        0.000
     12 C13        -4.2164   -4.2842   -9.9987 C.2        1 <1>        0.000
     13 C14        -3.4484   -4.4483  -11.0800 C.2        1 <1>        0.000
     14 H          -4.3753   -0.8748   -0.8066 H.spc      1 <1>        0.000
     15 H          -5.3862   -0.2434   -2.1107 H.spc      1 <1>        0.000
     16 H          -6.1727   -3.4378   -3.6234 H.spc      1 <1>        0.000
     17 H          -5.4101   -0.5650   -4.2886 H.spc      1 <1>        0.000
     18 H          -7.0431   -2.7482   -5.8496 H.spc      1 <1>        0.000
     19 H          -6.3565    0.1445   -6.4996 H.spc      1 <1>        0.000
     20 H          -8.4131   -0.5703   -8.0905 H.spc      1 <1>        0.000
     21 H          -7.7118   -1.9940   -9.7907 H.spc      1 <1>        0.000
     22 H          -5.2459   -2.7904   -8.0248 H.spc      1 <1>        0.000
     23 H          -6.0429   -3.4387  -10.8948 H.spc      1 <1>        0.000
     24 H          -3.9212   -4.7827   -9.0754 H.spc      1 <1>        0.000
     25 H          -3.7171   -3.9627  -12.0181 H.spc      1 <1>        0.000
     26 H          -2.5533   -5.0677  -11.0238 H.spc      1 <1>        0.000
@<TRIPOS>BOND
     1    4    5 2  
     2   10   11 2  
     3    1    2 am 
     4   12   13 2  
     5    8    9 2  
     6    9   10 1  
     7   11   12 1  
     8    7    8 1  
     9    2    4 1  
    10    6    7 2  
    11    2    3 2  
    12    5    6 1  
    13    1   14 1  
    14    1   15 1  
    15    4   16 1  
    16    5   17 1  
    17    6   18 1  
    18    7   19 1  
    19    8   20 1  
    20    9   21 1  
    21   10   22 1  
    22   11   23 1  
    23   12   24 1  
    24   13   25 1  
    25   13   26 1  
# Name:          frag3-176-9/31924
# Creation time: Sat Jun  5 12:52:07 2010


@<TRIPOS>MOLECULE
frag3-176-9/31924
   26    25     1     1     1
SMALL
USER_CHARGES


@<TRIPOS>ATOM
      1 N1         -5.3388   -2.2463   -1.6090 N.am       1 <1>        0.000
      2 C4         -4.6509   -2.2889   -2.7680 C.2        1 <1>        0.000
      3 O2         -3.4770   -2.6340   -2.8000 O.2        1 <1>        0.000
      4 C5         -5.3145   -1.9162   -4.0330 C.2        1 <1>        0.000
      5 C6         -6.6405   -1.9760   -4.2493 C.2        1 <1>        0.000
      6 C7         -7.2985   -1.5852   -5.4989 C.2        1 <1>        0.000
      7 C8         -6.6867   -1.4727   -6.6906 C.2        1 <1>        0.000
      8 C9         -7.3624   -1.1205   -7.9485 C.2        1 <1>        0.000
      9 C10        -6.9040   -1.3492   -9.1923 C.2        1 <1>        0.000
     10 C11        -5.6456   -2.0107   -9.5597 C.2        1 <1>        0.000
     11 C12        -5.3807   -3.3085   -9.3388 C.2        1 <1>        0.000
     12 C13        -4.1229   -3.9647   -9.7075 C.2        1 <1>        0.000
     13 C14        -3.8078   -5.2133   -9.3538 C.2        1 <1>        0.000
     14 H          -4.8815   -2.5049   -0.7347 H.spc      1 <1>        0.000
     15 H          -6.3165   -1.9555   -1.6066 H.spc      1 <1>        0.000
     16 H          -4.6841   -1.5673   -4.8509 H.spc      1 <1>        0.000
     17 H          -7.2702   -2.3409   -3.4378 H.spc      1 <1>        0.000
     18 H          -8.3661   -1.3691   -5.4591 H.spc      1 <1>        0.000
     19 H          -5.6128   -1.6556   -6.7272 H.spc      1 <1>        0.000
     20 H          -8.3299   -0.6254   -7.8647 H.spc      1 <1>        0.000
     21 H          -7.5331   -1.0074  -10.0142 H.spc      1 <1>        0.000
     22 H          -4.8762   -1.4089  -10.0434 H.spc      1 <1>        0.000
     23 H          -6.1490   -3.9117   -8.8551 H.spc      1 <1>        0.000
     24 H          -3.4046   -3.4020  -10.3037 H.spc      1 <1>        0.000
     25 H          -4.5041   -5.8030   -8.7576 H.spc      1 <1>        0.000
     26 H          -2.8543   -5.6427   -9.6613 H.spc      1 <1>        0.000
@<TRIPOS>BOND
     1    4    5 2  
     2   10   11 2  
     3    1    2 am 
     4   12   13 2  
     5    8    9 2  
     6    9   10 1  
     7   11   12 1  
     8    7    8 1  
     9    2    4 1  
    10    6    7 2  
    11    2    3 2  
    12    5    6 1  
    13    1   14 1  
    14    1   15 1  
    15    4   16 1  
    16    5   17 1  
    17    6   18 1  
    18    7   19 1  
    19    8   20 1  
    20    9   21 1  
    21   10   22 1  
    22   11   23 1  
    23   12   24 1  
    24   13   25 1  
    25   13   26 1  
# Name:          frag3-176-9/31924
# Creation time: Sat Jun  5 12:52:07 2010


@<TRIPOS>MOLECULE
frag3-176-9/31924
   26    25     1     1     1
SMALL
USER_CHARGES


@<TRIPOS>ATOM
      1 N1         -4.0036   -1.4468   -1.5856 N.am       1 <1>        0.000
      2 C4         -4.7479   -2.1671   -2.4523 C.2        1 <1>        0.000
      3 O2         -4.9884   -3.3485   -2.2547 O.2        1 <1>        0.000
      4 C5         -5.2908   -1.5200   -3.6641 C.2        1 <1>        0.000
      5 C6         -6.1962   -2.0779   -4.4874 C.2        1 <1>        0.000
      6 C7         -6.7542   -1.4329   -5.6785 C.2        1 <1>        0.000
      7 C8         -6.9268   -2.0208   -6.8716 C.2        1 <1>        0.000
      8 C9         -7.5228   -1.3699   -8.0491 C.2        1 <1>        0.000
      9 C10        -7.2848   -1.6757   -9.3376 C.2        1 <1>        0.000
     10 C11        -6.3908   -2.7255   -9.8413 C.2        1 <1>        0.000
     11 C12        -5.1619   -2.9696   -9.3560 C.2        1 <1>        0.000
     12 C13        -4.2753   -4.0234   -9.8548 C.2        1 <1>        0.000
     13 C14        -3.0868   -4.3081   -9.3164 C.2        1 <1>        0.000
     14 H          -3.6295   -1.8880   -0.7455 H.spc      1 <1>        0.000
     15 H          -3.8156   -0.4616   -1.7711 H.spc      1 <1>        0.000
     16 H          -4.9324   -0.5200   -3.9082 H.spc      1 <1>        0.000
     17 H          -6.5404   -3.0847   -4.2508 H.spc      1 <1>        0.000
     18 H          -7.0539   -0.3889   -5.5876 H.spc      1 <1>        0.000
     19 H          -6.6020   -3.0560   -6.9766 H.spc      1 <1>        0.000
     20 H          -8.2268   -0.5598   -7.8586 H.spc      1 <1>        0.000
     21 H          -7.8106   -1.0820  -10.0854 H.spc      1 <1>        0.000
     22 H          -6.7471   -3.3474  -10.6625 H.spc      1 <1>        0.000
     23 H          -4.8019   -2.3438   -8.5394 H.spc      1 <1>        0.000
     24 H          -4.6041   -4.6082  -10.7139 H.spc      1 <1>        0.000
     25 H          -2.7284   -3.7422   -8.4565 H.spc      1 <1>        0.000
     26 H          -2.4752   -5.1064   -9.7368 H.spc      1 <1>        0.000
@<TRIPOS>BOND
     1    4    5 2  
     2   10   11 2  
     3    1    2 am 
     4   12   13 2  
     5    8    9 2  
     6    9   10 1  
     7   11   12 1  
     8    7    8 1  
     9    2    4 1  
    10    6    7 2  
    11    2    3 2  
    12    5    6 1  
    13    1   14 1  
    14    1   15 1  
    15    4   16 1  
    16    5   17 1  
    17    6   18 1  
    18    7   19 1  
    19    8   20 1  
    20    9   21 1  
    21   10   22 1  
    22   11   23 1  
    23   12   24 1  
    24   13   25 1  
    25   13   26 1  
# Name:          frag3-176-9/31924
# Creation time: Sat Jun  5 12:52:07 2010


@<TRIPOS>MOLECULE
frag3-176-9/31924
   26    25     1     1     1
SMALL
USER_CHARGES


@<TRIPOS>ATOM
      1 N1         -4.5088   -3.4940   -1.9939 N.am       1 <1>        0.000
      2 C4         -4.8620   -2.2643   -2.4251 C.2        1 <1>        0.000
      3 O2         -4.6523   -1.2684   -1.7488 O.2        1 <1>        0.000
      4 C5         -5.5081   -2.1093   -3.7430 C.2        1 <1>        0.000
      5 C6         -6.4926   -1.2310   -4.0141 C.2        1 <1>        0.000
      6 C7         -7.1155   -1.0604   -5.3284 C.2        1 <1>        0.000
      7 C8         -6.5414   -1.3766   -6.5024 C.2        1 <1>        0.000
      8 C9         -7.1892   -1.2441   -7.8151 C.2        1 <1>        0.000
      9 C10        -6.7908   -1.8185   -8.9626 C.2        1 <1>        0.000
     10 C11        -5.6381   -2.7049   -9.1578 C.2        1 <1>        0.000
     11 C12        -5.2146   -3.1534  -10.3498 C.2        1 <1>        0.000
     12 C13        -4.0596   -4.0357  -10.5316 C.2        1 <1>        0.000
     13 C14        -4.0573   -5.3257  -10.1768 C.2        1 <1>        0.000
     14 H          -4.0569   -3.6059   -1.0863 H.spc      1 <1>        0.000
     15 H          -4.6939   -4.3111   -2.5757 H.spc      1 <1>        0.000
     16 H          -5.1642   -2.7510   -4.5543 H.spc      1 <1>        0.000
     17 H          -6.8507   -0.6033   -3.1981 H.spc      1 <1>        0.000
     18 H          -8.1228   -0.6448   -5.3572 H.spc      1 <1>        0.000
     19 H          -5.5210   -1.7592   -6.4789 H.spc      1 <1>        0.000
     20 H          -8.0804   -0.6183   -7.8624 H.spc      1 <1>        0.000
     21 H          -7.3906   -1.6019   -9.8466 H.spc      1 <1>        0.000
     22 H          -5.0868   -3.0215   -8.2724 H.spc      1 <1>        0.000
     23 H          -5.7644   -2.8417  -11.2379 H.spc      1 <1>        0.000
     24 H          -3.1564   -3.6203  -10.9785 H.spc      1 <1>        0.000
     25 H          -4.9460   -5.7690   -9.7275 H.spc      1 <1>        0.000
     26 H          -3.1667   -5.9334  -10.3370 H.spc      1 <1>        0.000
@<TRIPOS>BOND
     1    4    5 2  
     2   10   11 2  
     3    1    2 am 
     4   12   13 2  
     5    8    9 2  
     6    9   10 1  
     7   11   12 1  
     8    7    8 1  
     9    2    4 1  
    10    6    7 2  
    11    2    3 2  
    12    5    6 1  
    13    1   14 1  
    14    1   15 1  
    15    4   16 1  
    16    5   17 1  
    17    6   18 1  
    18    7   19 1  
    19    8   20 1  
    20    9   21 1  
    21   10   22 1  
    22   11   23 1  
    23   12   24 1  
    24   13   25 1  
    25   13   26 1  
# Name:          frag3-176-9/31924
# Creation time: Sat Jun  5 12:52:07 2010


@<TRIPOS>MOLECULE
frag3-176-9/31924
   26    25     1     1     1
SMALL
USER_CHARGES


@<TRIPOS>ATOM
      1 N1         -3.8445   -2.1647   -2.0242 N.am       1 <1>        0.000
      2 C4         -5.1621   -1.9440   -1.8337 C.2        1 <1>        0.000
      3 O2         -5.6320   -1.8269   -0.7100 O.2        1 <1>        0.000
      4 C5         -6.0682   -1.8346   -2.9963 C.2        1 <1>        0.000
      5 C6         -5.6645   -1.7795   -4.2760 C.2        1 <1>        0.000
      6 C7         -6.5646   -1.6935   -5.4337 C.2        1 <1>        0.000
      7 C8         -6.1823   -1.4238   -6.6906 C.2        1 <1>        0.000
      8 C9         -7.0936   -1.3833   -7.8488 C.2        1 <1>        0.000
      9 C10        -6.9389   -2.0512   -9.0050 C.2        1 <1>        0.000
     10 C11        -5.8419   -2.9648   -9.3619 C.2        1 <1>        0.000
     11 C12        -5.7018   -3.5414  -10.5653 C.2        1 <1>        0.000
     12 C13        -4.5978   -4.4468  -10.9127 C.2        1 <1>        0.000
     13 C14        -3.3383   -4.0319  -11.0910 C.2        1 <1>        0.000
     14 H          -3.2184   -2.2371   -1.2223 H.spc      1 <1>        0.000
     15 H          -3.4747   -2.2591   -2.9701 H.spc      1 <1>        0.000
     16 H          -7.1399   -1.7959   -2.8012 H.spc      1 <1>        0.000
     17 H          -4.5920   -1.8001   -4.4695 H.spc      1 <1>        0.000
     18 H          -7.6269   -1.8622   -5.2573 H.spc      1 <1>        0.000
     19 H          -5.1261   -1.2208   -6.8679 H.spc      1 <1>        0.000
     20 H          -7.9772   -0.7514   -7.7590 H.spc      1 <1>        0.000
     21 H          -7.7099   -1.8996   -9.7604 H.spc      1 <1>        0.000
     22 H          -5.0952   -3.1874   -8.5997 H.spc      1 <1>        0.000
     23 H          -6.4494   -3.3260  -11.3287 H.spc      1 <1>        0.000
     24 H          -4.8156   -5.5083  -11.0309 H.spc      1 <1>        0.000
     25 H          -3.0913   -2.9762  -10.9792 H.spc      1 <1>        0.000
     26 H          -2.5593   -4.7496  -11.3480 H.spc      1 <1>        0.000
@<TRIPOS>BOND
     1    4    5 2  
     2   10   11 2  
     3    1    2 am 
     4   12   13 2  
     5    8    9 2  
     6    9   10 1  
     7   11   12 1  
     8    7    8 1  
     9    2    4 1  
    10    6    7 2  
    11    2    3 2  
    12    5    6 1  
    13    1   14 1  
    14    1   15 1  
    15    4   16 1  
    16    5   17 1  
    17    6   18 1  
    18    7   19 1  
    19    8   20 1  
    20    9   21 1  
    21   10   22 1  
    22   11   23 1  
    23   12   24 1  
    24   13   25 1  
    25   13   26 1  
# Name:          frag3-176-9/31924
# Creation time: Sat Jun  5 12:52:07 2010


@<TRIPOS>MOLECULE
frag3-176-9/31924
   26    25     1     1     1
SMALL
USER_CHARGES


@<TRIPOS>ATOM
      1 N1         -5.6127   -2.0314   -0.7485 N.am       1 <1>        0.000
      2 C4         -5.0865   -1.9774   -1.9910 C.2        1 <1>        0.000
      3 O2         -3.9073   -2.2244   -2.1936 O.2        1 <1>        0.000
      4 C5         -5.9480   -1.6168   -3.1354 C.2        1 <1>        0.000
      5 C6         -5.7357   -2.0087   -4.4044 C.2        1 <1>        0.000
      6 C7         -6.5983   -1.6724   -5.5398 C.2        1 <1>        0.000
      7 C8         -6.2140   -1.6343   -6.8243 C.2        1 <1>        0.000
      8 C9         -7.1031   -1.3337   -7.9573 C.2        1 <1>        0.000
      9 C10        -6.8889   -1.6525   -9.2466 C.2        1 <1>        0.000
     10 C11        -5.7368   -2.3781   -9.7944 C.2        1 <1>        0.000
     11 C12        -5.4351   -3.6546   -9.4979 C.2        1 <1>        0.000
     12 C13        -4.2842   -4.3730  -10.0513 C.2        1 <1>        0.000
     13 C14        -4.0796   -4.5290  -11.3649 C.2        1 <1>        0.000
     14 H          -5.0227   -2.2825    0.0447 H.spc      1 <1>        0.000
     15 H          -6.6002   -1.8211   -0.6033 H.spc      1 <1>        0.000
     16 H          -6.8168   -0.9890   -2.9376 H.spc      1 <1>        0.000
     17 H          -4.8567   -2.6220   -4.6028 H.spc      1 <1>        0.000
     18 H          -7.6393   -1.4332   -5.3226 H.spc      1 <1>        0.000
     19 H          -5.1668   -1.8411   -7.0448 H.spc      1 <1>        0.000
     20 H          -8.0260   -0.8003   -7.7297 H.spc      1 <1>        0.000
     21 H          -7.6514   -1.3388   -9.9596 H.spc      1 <1>        0.000
     22 H          -5.0830   -1.8477  -10.4868 H.spc      1 <1>        0.000
     23 H          -6.0859   -4.1869   -8.8042 H.spc      1 <1>        0.000
     24 H          -3.5591   -4.8014   -9.3594 H.spc      1 <1>        0.000
     25 H          -4.7881   -4.1113  -12.0802 H.spc      1 <1>        0.000
     26 H          -3.2045   -5.0737  -11.7193 H.spc      1 <1>        0.000
@<TRIPOS>BOND
     1    4    5 2  
     2   10   11 2  
     3    1    2 am 
     4   12   13 2  
     5    8    9 2  
     6    9   10 1  
     7   11   12 1  
     8    7    8 1  
     9    2    4 1  
    10    6    7 2  
    11    2    3 2  
    12    5    6 1  
    13    1   14 1  
    14    1   15 1  
    15    4   16 1  
    16    5   17 1  
    17    6   18 1  
    18    7   19 1  
    19    8   20 1  
    20    9   21 1  
    21   10   22 1  
    22   11   23 1  
    23   12   24 1  
    24   13   25 1  
    25   13   26 1  
# Name:          frag3-176-9/31924
# Creation time: Sat Jun  5 12:52:07 2010


@<TRIPOS>MOLECULE
frag3-176-9/31924
   26    25     1     1     1
SMALL
USER_CHARGES


@<TRIPOS>ATOM
      1 N1         -4.7440   -3.1398   -1.7852 N.am       1 <1>        0.000
      2 C4         -5.3240   -1.9380   -1.9852 C.2        1 <1>        0.000
      3 O2         -5.4376   -1.1272   -1.0758 O.2        1 <1>        0.000
      4 C5         -5.8364   -1.5797   -3.3234 C.2        1 <1>        0.000
      5 C6         -5.1289   -1.6791   -4.4630 C.2        1 <1>        0.000
      6 C7         -5.6474   -1.3451   -5.7949 C.2        1 <1>        0.000
      7 C8         -6.7873   -1.8261   -6.3197 C.2        1 <1>        0.000
      8 C9         -7.3214   -1.4498   -7.6399 C.2        1 <1>        0.000
      9 C10        -6.9067   -1.9257   -8.8273 C.2        1 <1>        0.000
     10 C11        -5.8589   -2.9295   -9.0644 C.2        1 <1>        0.000
     11 C12        -5.4454   -3.3193  -10.2787 C.2        1 <1>        0.000
     12 C13        -4.3938   -4.3182  -10.5056 C.2        1 <1>        0.000
     13 C14        -3.7987   -4.5089  -11.6864 C.2        1 <1>        0.000
     14 H          -4.3897   -3.3877   -0.8614 H.spc      1 <1>        0.000
     15 H          -4.6599   -3.8004   -2.5578 H.spc      1 <1>        0.000
     16 H          -6.8591   -1.2089   -3.3922 H.spc      1 <1>        0.000
     17 H          -4.1000   -2.0319   -4.3926 H.spc      1 <1>        0.000
     18 H          -5.0640   -0.6549   -6.4043 H.spc      1 <1>        0.000
     19 H          -7.3555   -2.5438   -5.7279 H.spc      1 <1>        0.000
     20 H          -8.1282   -0.7171   -7.6559 H.spc      1 <1>        0.000
     21 H          -7.4017   -1.5231   -9.7110 H.spc      1 <1>        0.000
     22 H          -5.3869   -3.3872   -8.1951 H.spc      1 <1>        0.000
     23 H          -5.9187   -2.8671  -11.1503 H.spc      1 <1>        0.000
     24 H          -4.0816   -4.9379   -9.6650 H.spc      1 <1>        0.000
     25 H          -4.0884   -3.9053  -12.5465 H.spc      1 <1>        0.000
     26 H          -3.0234   -5.2681  -11.7897 H.spc      1 <1>        0.000
@<TRIPOS>BOND
     1    4    5 2  
     2   10   11 2  
     3    1    2 am 
     4   12   13 2  
     5    8    9 2  
     6    9   10 1  
     7   11   12 1  
     8    7    8 1  
     9    2    4 1  
    10    6    7 2  
    11    2    3 2  
    12    5    6 1  
    13    1   14 1  
    14    1   15 1  
    15    4   16 1  
    16    5   17 1  
    17    6   18 1  
    18    7   19 1  
    19    8   20 1  
    20    9   21 1  
    21   10   22 1  
    22   11   23 1  
    23   12   24 1  
    24   13   25 1  
    25   13   26 1  
# Name:          frag3-176-9/31924
# Creation time: Sat Jun  5 12:52:07 2010


@<TRIPOS>MOLECULE
frag3-176-9/31924
   26    25     1     1     1
SMALL
USER_CHARGES


@<TRIPOS>ATOM
      1 N1         -4.6493   -3.4861   -1.8976 N.am       1 <1>        0.000
      2 C4         -5.0845   -2.2908   -2.3505 C.2        1 <1>        0.000
      3 O2         -5.0998   -1.3046   -1.6294 O.2        1 <1>        0.000
      4 C5         -5.5490   -2.1629   -3.7459 C.2        1 <1>        0.000
      5 C6         -5.5938   -1.0073   -4.4346 C.2        1 <1>        0.000
      6 C7         -6.0365   -0.8830   -5.8245 C.2        1 <1>        0.000
      7 C8         -7.0967   -1.5163   -6.3578 C.2        1 <1>        0.000
      8 C9         -7.5567   -1.3561   -7.7446 C.2        1 <1>        0.000
      9 C10        -6.9603   -1.8614   -8.8397 C.2        1 <1>        0.000
     10 C11        -5.7521   -2.6923   -8.8896 C.2        1 <1>        0.000
     11 C12        -5.3483   -3.3869   -9.9630 C.2        1 <1>        0.000
     12 C13        -4.1385   -4.2113  -10.0044 C.2        1 <1>        0.000
     13 C14        -3.7649   -4.9273  -11.0678 C.2        1 <1>        0.000
     14 H          -4.3243   -3.5793   -0.9353 H.spc      1 <1>        0.000
     15 H          -4.6456   -4.2959   -2.5178 H.spc      1 <1>        0.000
     16 H          -5.8791   -3.0686   -4.2546 H.spc      1 <1>        0.000
     17 H          -5.2780   -0.0993   -3.9209 H.spc      1 <1>        0.000
     18 H          -5.4624   -0.2262   -6.4780 H.spc      1 <1>        0.000
     19 H          -7.6548   -2.1973   -5.7153 H.spc      1 <1>        0.000
     20 H          -8.4651   -0.7741   -7.9002 H.spc      1 <1>        0.000
     21 H          -7.4268   -1.6273   -9.7966 H.spc      1 <1>        0.000
     22 H          -5.1392   -2.7489   -7.9900 H.spc      1 <1>        0.000
     23 H          -5.9603   -3.3346  -10.8635 H.spc      1 <1>        0.000
     24 H          -3.5070   -4.2422   -9.1165 H.spc      1 <1>        0.000
     25 H          -4.3737   -4.9186  -11.9719 H.spc      1 <1>        0.000
     26 H          -2.8511   -5.5204  -11.0318 H.spc      1 <1>        0.000
@<TRIPOS>BOND
     1    4    5 2  
     2   10   11 2  
     3    1    2 am 
     4   12   13 2  
     5    8    9 2  
     6    9   10 1  
     7   11   12 1  
     8    7    8 1  
     9    2    4 1  
    10    6    7 2  
    11    2    3 2  
    12    5    6 1  
    13    1   14 1  
    14    1   15 1  
    15    4   16 1  
    16    5   17 1  
    17    6   18 1  
    18    7   19 1  
    19    8   20 1  
    20    9   21 1  
    21   10   22 1  
    22   11   23 1  
    23   12   24 1  
    24   13   25 1  
    25   13   26 1  
# Name:          frag3-176-9/31924
# Creation time: Sat Jun  5 12:52:07 2010


@<TRIPOS>MOLECULE
frag3-176-9/31924
   26    25     1     1     1
SMALL
USER_CHARGES


@<TRIPOS>ATOM
      1 N1         -5.4934   -3.2724   -1.6917 N.am       1 <1>        0.000
      2 C4         -4.9166   -2.4641   -2.6061 C.2        1 <1>        0.000
      3 O2         -3.8057   -1.9883   -2.4243 O.2        1 <1>        0.000
      4 C5         -5.6311   -2.1496   -3.8590 C.2        1 <1>        0.000
      5 C6         -5.8052   -0.9081   -4.3498 C.2        1 <1>        0.000
      6 C7         -6.4921   -0.6001   -5.6063 C.2        1 <1>        0.000
      7 C8         -6.5022   -1.3891   -6.6948 C.2        1 <1>        0.000
      8 C9         -7.2300   -1.0936   -7.9375 C.2        1 <1>        0.000
      9 C10        -7.2384   -1.8406   -9.0558 C.2        1 <1>        0.000
     10 C11        -6.5295   -3.1069   -9.2741 C.2        1 <1>        0.000
     11 C12        -5.1988   -3.2153   -9.4187 C.2        1 <1>        0.000
     12 C13        -4.4949   -4.4825   -9.6290 C.2        1 <1>        0.000
     13 C14        -3.2922   -4.5757  -10.2022 C.2        1 <1>        0.000
     14 H          -5.0010   -3.4976   -0.8273 H.spc      1 <1>        0.000
     15 H          -6.4216   -3.6580   -1.8652 H.spc      1 <1>        0.000
     16 H          -6.0473   -2.9816   -4.4271 H.spc      1 <1>        0.000
     17 H          -5.4073   -0.0740   -3.7718 H.spc      1 <1>        0.000
     18 H          -7.0374    0.3420   -5.6632 H.spc      1 <1>        0.000
     19 H          -5.9291   -2.3153   -6.6529 H.spc      1 <1>        0.000
     20 H          -7.8215   -0.1782   -7.9542 H.spc      1 <1>        0.000
     21 H          -7.8346   -1.4660   -9.8878 H.spc      1 <1>        0.000
     22 H          -7.1225   -4.0202   -9.3221 H.spc      1 <1>        0.000
     23 H          -4.6048   -2.3023   -9.3769 H.spc      1 <1>        0.000
     24 H          -4.9800   -5.4012   -9.2991 H.spc      1 <1>        0.000
     25 H          -2.7799   -3.6761  -10.5433 H.spc      1 <1>        0.000
     26 H          -2.8230   -5.5513  -10.3289 H.spc      1 <1>        0.000
@<TRIPOS>BOND
     1    4    5 2  
     2   10   11 2  
     3    1    2 am 
     4   12   13 2  
     5    8    9 2  
     6    9   10 1  
     7   11   12 1  
     8    7    8 1  
     9    2    4 1  
    10    6    7 2  
    11    2    3 2  
    12    5    6 1  
    13    1   14 1  
    14    1   15 1  
    15    4   16 1  
    16    5   17 1  
    17    6   18 1  
    18    7   19 1  
    19    8   20 1  
    20    9   21 1  
    21   10   22 1  
    22   11   23 1  
    23   12   24 1  
    24   13   25 1  
    25   13   26 1  
# Name:          frag3-176-9/31924
# Creation time: Sat Jun  5 12:52:07 2010


@<TRIPOS>MOLECULE
frag3-176-9/31924
   26    25     1     1     1
SMALL
USER_CHARGES


@<TRIPOS>ATOM
      1 N1         -5.8189   -2.5132   -1.1924 N.am       1 <1>        0.000
      2 C4         -5.1365   -1.8607   -2.1566 C.2        1 <1>        0.000
      3 O2         -4.0102   -1.4277   -1.9567 O.2        1 <1>        0.000
      4 C5         -5.7504   -1.6586   -3.4838 C.2        1 <1>        0.000
      5 C6         -5.6541   -2.5231   -4.5098 C.2        1 <1>        0.000
      6 C7         -6.2820   -2.3306   -5.8206 C.2        1 <1>        0.000
      7 C8         -6.5346   -1.1368   -6.3871 C.2        1 <1>        0.000
      8 C9         -7.1276   -0.9544   -7.7215 C.2        1 <1>        0.000
      9 C10        -6.7394   -1.5797   -8.8493 C.2        1 <1>        0.000
     10 C11        -5.6627   -2.5695   -8.9914 C.2        1 <1>        0.000
     11 C12        -5.4352   -3.2893  -10.0990 C.2        1 <1>        0.000
     12 C13        -4.3553   -4.2729  -10.2327 C.2        1 <1>        0.000
     13 C14        -4.1234   -4.9697  -11.3483 C.2        1 <1>        0.000
     14 H          -5.3964   -2.6537   -0.2747 H.spc      1 <1>        0.000
     15 H          -6.7572   -2.8659   -1.3813 H.spc      1 <1>        0.000
     16 H          -6.3220   -0.7444   -3.6436 H.spc      1 <1>        0.000
     17 H          -5.0687   -3.4296   -4.3560 H.spc      1 <1>        0.000
     18 H          -6.5658   -3.2228   -6.3787 H.spc      1 <1>        0.000
     19 H          -6.2824   -0.2421   -5.8179 H.spc      1 <1>        0.000
     20 H          -7.9553   -0.2500   -7.8045 H.spc      1 <1>        0.000
     21 H          -7.2845   -1.3231   -9.7577 H.spc      1 <1>        0.000
     22 H          -5.0040   -2.7293   -8.1378 H.spc      1 <1>        0.000
     23 H          -6.0937   -3.1340  -10.9536 H.spc      1 <1>        0.000
     24 H          -3.7061   -4.4447   -9.3741 H.spc      1 <1>        0.000
     25 H          -4.7544   -4.8214  -12.2246 H.spc      1 <1>        0.000
     26 H          -3.3031   -5.6867  -11.3824 H.spc      1 <1>        0.000
@<TRIPOS>BOND
     1    4    5 2  
     2   10   11 2  
     3    1    2 am 
     4   12   13 2  
     5    8    9 2  
     6    9   10 1  
     7   11   12 1  
     8    7    8 1  
     9    2    4 1  
    10    6    7 2  
    11    2    3 2  
    12    5    6 1  
    13    1   14 1  
    14    1   15 1  
    15    4   16 1  
    16    5   17 1  
    17    6   18 1  
    18    7   19 1  
    19    8   20 1  
    20    9   21 1  
    21   10   22 1  
    22   11   23 1  
    23   12   24 1  
    24   13   25 1  
    25   13   26 1  
# Name:          frag3-176-9/31924
# Creation time: Sat Jun  5 12:52:07 2010


@<TRIPOS>MOLECULE
frag3-176-9/31924
   26    25     1     1     1
SMALL
USER_CHARGES


@<TRIPOS>ATOM
      1 N1         -3.9210   -2.8050   -1.8976 N.am       1 <1>        0.000
      2 C4         -4.9548   -1.9489   -2.0439 C.2        1 <1>        0.000
      3 O2         -5.5724   -1.5270   -1.0768 O.2        1 <1>        0.000
      4 C5         -5.3500   -1.4987   -3.3940 C.2        1 <1>        0.000
      5 C6         -6.5535   -1.7221   -3.9507 C.2        1 <1>        0.000
      6 C7         -6.9556   -1.2584   -5.2831 C.2        1 <1>        0.000
      7 C8         -6.7059   -1.9035   -6.4335 C.2        1 <1>        0.000
      8 C9         -7.1475   -1.4457   -7.7616 C.2        1 <1>        0.000
      9 C10        -6.6614   -1.8512   -8.9465 C.2        1 <1>        0.000
     10 C11        -5.6007   -2.8415   -9.1783 C.2        1 <1>        0.000
     11 C12        -5.1821   -3.2348  -10.3897 C.2        1 <1>        0.000
     12 C13        -4.1198   -4.2222  -10.6110 C.2        1 <1>        0.000
     13 C14        -3.9056   -4.8275  -11.7824 C.2        1 <1>        0.000
     14 H          -3.6413   -3.1124   -0.9661 H.spc      1 <1>        0.000
     15 H          -3.4198   -3.1444   -2.7186 H.spc      1 <1>        0.000
     16 H          -4.6149   -0.9469   -3.9799 H.spc      1 <1>        0.000
     17 H          -7.2823   -2.2881   -3.3705 H.spc      1 <1>        0.000
     18 H          -7.4999   -0.3160   -5.3437 H.spc      1 <1>        0.000
     19 H          -6.1363   -2.8313   -6.3809 H.spc      1 <1>        0.000
     20 H          -7.9471   -0.7053   -7.7856 H.spc      1 <1>        0.000
     21 H          -7.1021   -1.3957   -9.8333 H.spc      1 <1>        0.000
     22 H          -5.1218   -3.2865   -8.3061 H.spc      1 <1>        0.000
     23 H          -5.6605   -2.7937  -11.2642 H.spc      1 <1>        0.000
     24 H          -3.4697   -4.4758   -9.7737 H.spc      1 <1>        0.000
     25 H          -4.5382   -4.5959  -12.6393 H.spc      1 <1>        0.000
     26 H          -3.0982   -5.5530  -11.8814 H.spc      1 <1>        0.000
@<TRIPOS>BOND
     1    4    5 2  
     2   10   11 2  
     3    1    2 am 
     4   12   13 2  
     5    8    9 2  
     6    9   10 1  
     7   11   12 1  
     8    7    8 1  
     9    2    4 1  
    10    6    7 2  
    11    2    3 2  
    12    5    6 1  
    13    1   14 1  
    14    1   15 1  
    15    4   16 1  
    16    5   17 1  
    17    6   18 1  
    18    7   19 1  
    19    8   20 1  
    20    9   21 1  
    21   10   22 1  
    22   11   23 1  
    23   12   24 1  
    24   13   25 1  
    25   13   26 1  
# Name:          frag3-176-9/31924
# Creation time: Sat Jun  5 12:52:07 2010


@<TRIPOS>MOLECULE
frag3-176-9/31924
   26    25     1     1     1
SMALL
USER_CHARGES


@<TRIPOS>ATOM
      1 N1         -4.0609   -1.1404   -1.2176 N.am       1 <1>        0.000
      2 C4         -5.0256   -1.8205   -1.8741 C.2        1 <1>        0.000
      3 O2         -5.5263   -2.8296   -1.4011 O.2        1 <1>        0.000
      4 C5         -5.4949   -1.3388   -3.1894 C.2        1 <1>        0.000
      5 C6         -6.3660   -1.9948   -3.9765 C.2        1 <1>        0.000
      6 C7         -6.8519   -1.5108   -5.2714 C.2        1 <1>        0.000
      7 C8         -6.6473   -2.1151   -6.4519 C.2        1 <1>        0.000
      8 C9         -7.1727   -1.6363   -7.7404 C.2        1 <1>        0.000
      9 C10        -6.7102   -1.9593   -8.9597 C.2        1 <1>        0.000
     10 C11        -5.5972   -2.8636   -9.2754 C.2        1 <1>        0.000
     11 C12        -5.2679   -3.2605  -10.5129 C.2        1 <1>        0.000
     12 C13        -4.1522   -4.1610  -10.8187 C.2        1 <1>        0.000
     13 C14        -3.7575   -4.4557  -12.0602 C.2        1 <1>        0.000
     14 H          -3.7360   -1.4669   -0.3075 H.spc      1 <1>        0.000
     15 H          -3.6572   -0.3003   -1.6319 H.spc      1 <1>        0.000
     16 H          -5.1080   -0.3846   -3.5471 H.spc      1 <1>        0.000
     17 H          -6.7379   -2.9573   -3.6254 H.spc      1 <1>        0.000
     18 H          -7.4263   -0.5845   -5.2761 H.spc      1 <1>        0.000
     19 H          -6.0489   -3.0261   -6.4568 H.spc      1 <1>        0.000
     20 H          -8.0205   -0.9523   -7.7017 H.spc      1 <1>        0.000
     21 H          -7.2170   -1.4994   -9.8081 H.spc      1 <1>        0.000
     22 H          -4.9971   -3.2382   -8.4461 H.spc      1 <1>        0.000
     23 H          -5.8677   -2.8902  -11.3443 H.spc      1 <1>        0.000
     24 H          -3.6147   -4.6154   -9.9864 H.spc      1 <1>        0.000
     25 H          -4.2738   -4.0180  -12.9146 H.spc      1 <1>        0.000
     26 H          -2.9191   -5.1339  -12.2190 H.spc      1 <1>        0.000
@<TRIPOS>BOND
     1    4    5 2  
     2   10   11 2  
     3    1    2 am 
     4   12   13 2  
     5    8    9 2  
     6    9   10 1  
     7   11   12 1  
     8    7    8 1  
     9    2    4 1  
    10    6    7 2  
    11    2    3 2  
    12    5    6 1  
    13    1   14 1  
    14    1   15 1  
    15    4   16 1  
    16    5   17 1  
    17    6   18 1  
    18    7   19 1  
    19    8   20 1  
    20    9   21 1  
    21   10   22 1  
    22   11   23 1  
    23   12   24 1  
    24   13   25 1  
    25   13   26 1  
# Name:          frag3-176-9/31924
# Creation time: Sat Jun  5 12:52:07 2010


@<TRIPOS>MOLECULE
frag3-176-9/31924
   26    25     1     1     1
SMALL
USER_CHARGES


@<TRIPOS>ATOM
      1 N1         -5.3319   -3.1648   -1.3452 N.am       1 <1>        0.000
      2 C4         -5.2581   -1.8658   -1.7048 C.2        1 <1>        0.000
      3 O2         -4.6394   -1.0536   -1.0312 O.2        1 <1>        0.000
      4 C5         -5.9322   -1.4012   -2.9350 C.2        1 <1>        0.000
      5 C6         -5.5230   -1.6871   -4.1824 C.2        1 <1>        0.000
      6 C7         -6.2064   -1.2470   -5.4065 C.2        1 <1>        0.000
      7 C8         -6.1635   -1.8841   -6.5858 C.2        1 <1>        0.000
      8 C9         -6.8910   -1.4529   -7.7936 C.2        1 <1>        0.000
      9 C10        -6.6886   -1.8956   -9.0457 C.2        1 <1>        0.000
     10 C11        -5.7144   -2.9092   -9.4810 C.2        1 <1>        0.000
     11 C12        -5.8126   -3.6083  -10.6219 C.2        1 <1>        0.000
     12 C13        -4.8311   -4.6151  -11.0491 C.2        1 <1>        0.000
     13 C14        -3.6381   -4.3017  -11.5672 C.2        1 <1>        0.000
     14 H          -4.8661   -3.4863   -0.4966 H.spc      1 <1>        0.000
     15 H          -5.8534   -3.8248   -1.9220 H.spc      1 <1>        0.000
     16 H          -6.8233   -0.7836   -2.8226 H.spc      1 <1>        0.000
     17 H          -4.6204   -2.2879   -4.2942 H.spc      1 <1>        0.000
     18 H          -6.7944   -0.3308   -5.3517 H.spc      1 <1>        0.000
     19 H          -5.5491   -2.7817   -6.6562 H.spc      1 <1>        0.000
     20 H          -7.6689   -0.7017   -7.6573 H.spc      1 <1>        0.000
     21 H          -7.3135   -1.4566   -9.8234 H.spc      1 <1>        0.000
     22 H          -4.8583   -3.1044   -8.8352 H.spc      1 <1>        0.000
     23 H          -6.6692   -3.4187  -11.2688 H.spc      1 <1>        0.000
     24 H          -5.0876   -5.6687  -10.9385 H.spc      1 <1>        0.000
     25 H          -3.3547   -3.2563  -11.6896 H.spc      1 <1>        0.000
     26 H          -2.9496   -5.0917  -11.8670 H.spc      1 <1>        0.000
@<TRIPOS>BOND
     1    4    5 2  
     2   10   11 2  
     3    1    2 am 
     4   12   13 2  
     5    8    9 2  
     6    9   10 1  
     7   11   12 1  
     8    7    8 1  
     9    2    4 1  
    10    6    7 2  
    11    2    3 2  
    12    5    6 1  
    13    1   14 1  
    14    1   15 1  
    15    4   16 1  
    16    5   17 1  
    17    6   18 1  
    18    7   19 1  
    19    8   20 1  
    20    9   21 1  
    21   10   22 1  
    22   11   23 1  
    23   12   24 1  
    24   13   25 1  
    25   13   26 1  
# Name:          frag3-176-9/31924
# Creation time: Sat Jun  5 12:52:07 2010


@<TRIPOS>MOLECULE
frag3-176-9/31924
   26    25     1     1     1
SMALL
USER_CHARGES


@<TRIPOS>ATOM
      1 N1         -5.1555   -1.5156   -1.4592 N.am       1 <1>        0.000
      2 C4         -4.8094   -2.3215   -2.4838 C.2        1 <1>        0.000
      3 O2         -3.9098   -3.1442   -2.3702 O.2        1 <1>        0.000
      4 C5         -5.5246   -2.2270   -3.7722 C.2        1 <1>        0.000
      5 C6         -6.4185   -1.2713   -4.0826 C.2        1 <1>        0.000
      6 C7         -7.1082   -1.1645   -5.3723 C.2        1 <1>        0.000
      7 C8         -6.5149   -1.2638   -6.5739 C.2        1 <1>        0.000
      8 C9         -7.2225   -1.2009   -7.8632 C.2        1 <1>        0.000
      9 C10        -6.8550   -1.8094   -9.0039 C.2        1 <1>        0.000
     10 C11        -5.6839   -2.6717   -9.2105 C.2        1 <1>        0.000
     11 C12        -5.6732   -3.7606   -9.9962 C.2        1 <1>        0.000
     12 C13        -4.4952   -4.6118  -10.1969 C.2        1 <1>        0.000
     13 C14        -3.2596   -4.1238  -10.3646 C.2        1 <1>        0.000
     14 H          -4.6646   -1.5846   -0.5678 H.spc      1 <1>        0.000
     15 H          -5.9082   -0.8371   -1.5758 H.spc      1 <1>        0.000
     16 H          -5.3130   -2.9859   -4.5254 H.spc      1 <1>        0.000
     17 H          -6.6462   -0.5240   -3.3225 H.spc      1 <1>        0.000
     18 H          -8.1842   -0.9914   -5.3549 H.spc      1 <1>        0.000
     19 H          -5.4337   -1.4005   -6.5954 H.spc      1 <1>        0.000
     20 H          -8.1331   -0.6027   -7.8960 H.spc      1 <1>        0.000
     21 H          -7.4959   -1.6451   -9.8701 H.spc      1 <1>        0.000
     22 H          -4.7619   -2.4102   -8.6913 H.spc      1 <1>        0.000
     23 H          -6.5937   -4.0278  -10.5153 H.spc      1 <1>        0.000
     24 H          -4.6324   -5.6931  -10.2101 H.spc      1 <1>        0.000
     25 H          -3.0932   -3.0466  -10.3558 H.spc      1 <1>        0.000
     26 H          -2.4202   -4.8037  -10.5099 H.spc      1 <1>        0.000
@<TRIPOS>BOND
     1    4    5 2  
     2   10   11 2  
     3    1    2 am 
     4   12   13 2  
     5    8    9 2  
     6    9   10 1  
     7   11   12 1  
     8    7    8 1  
     9    2    4 1  
    10    6    7 2  
    11    2    3 2  
    12    5    6 1  
    13    1   14 1  
    14    1   15 1  
    15    4   16 1  
    16    5   17 1  
    17    6   18 1  
    18    7   19 1  
    19    8   20 1  
    20    9   21 1  
    21   10   22 1  
    22   11   23 1  
    23   12   24 1  
    24   13   25 1  
    25   13   26 1  
# Name:          frag3-176-9/31924
# Creation time: Sat Jun  5 12:52:07 2010


@<TRIPOS>MOLECULE
frag3-176-9/31924
   26    25     1     1     1
SMALL
USER_CHARGES


@<TRIPOS>ATOM
      1 N1         -5.9359   -2.4690   -1.0085 N.am       1 <1>        0.000
      2 C4         -5.0570   -1.8348   -1.8123 C.2        1 <1>        0.000
      3 O2         -3.8866   -1.6898   -1.4872 O.2        1 <1>        0.000
      4 C5         -5.5028   -1.3007   -3.1162 C.2        1 <1>        0.000
      5 C6         -6.2823   -1.9625   -3.9863 C.2        1 <1>        0.000
      6 C7         -6.7424   -1.4248   -5.2726 C.2        1 <1>        0.000
      7 C8         -6.3464   -1.8612   -6.4779 C.2        1 <1>        0.000
      8 C9         -6.8462   -1.3374   -7.7614 C.2        1 <1>        0.000
      9 C10        -6.5006   -1.7676   -8.9862 C.2        1 <1>        0.000
     10 C11        -5.5647   -2.8538   -9.3134 C.2        1 <1>        0.000
     11 C12        -5.3384   -3.3088  -10.5540 C.2        1 <1>        0.000
     12 C13        -4.3987   -4.3916  -10.8715 C.2        1 <1>        0.000
     13 C14        -4.2282   -4.8843  -12.1017 C.2        1 <1>        0.000
     14 H          -5.6291   -2.8392   -0.1089 H.spc      1 <1>        0.000
     15 H          -6.9071   -2.5782   -1.3005 H.spc      1 <1>        0.000
     16 H          -5.1754   -0.2980   -3.3911 H.spc      1 <1>        0.000
     17 H          -6.5961   -2.9714   -3.7184 H.spc      1 <1>        0.000
     18 H          -7.4623   -0.6068   -5.2463 H.spc      1 <1>        0.000
     19 H          -5.6036   -2.6583   -6.5100 H.spc      1 <1>        0.000
     20 H          -7.5668   -0.5210   -7.7122 H.spc      1 <1>        0.000
     21 H          -6.9644   -1.2558   -9.8294 H.spc      1 <1>        0.000
     22 H          -5.0189   -3.3198   -8.4930 H.spc      1 <1>        0.000
     23 H          -5.8848   -2.8472  -11.3765 H.spc      1 <1>        0.000
     24 H          -3.8083   -4.8164  -10.0597 H.spc      1 <1>        0.000
     25 H          -4.8036   -4.4809  -12.9349 H.spc      1 <1>        0.000
     26 H          -3.5137   -5.6896  -12.2721 H.spc      1 <1>        0.000
@<TRIPOS>BOND
     1    4    5 2  
     2   10   11 2  
     3    1    2 am 
     4   12   13 2  
     5    8    9 2  
     6    9   10 1  
     7   11   12 1  
     8    7    8 1  
     9    2    4 1  
    10    6    7 2  
    11    2    3 2  
    12    5    6 1  
    13    1   14 1  
    14    1   15 1  
    15    4   16 1  
    16    5   17 1  
    17    6   18 1  
    18    7   19 1  
    19    8   20 1  
    20    9   21 1  
    21   10   22 1  
    22   11   23 1  
    23   12   24 1  
    24   13   25 1  
    25   13   26 1  
# Name:          frag3-176-9/31924
# Creation time: Sat Jun  5 12:52:07 2010


@<TRIPOS>MOLECULE
frag3-176-9/31924
   26    25     1     1     1
SMALL
USER_CHARGES


@<TRIPOS>ATOM
      1 N1         -3.5679   -2.6374   -2.2289 N.am       1 <1>        0.000
      2 C4         -4.7825   -2.1468   -2.5585 C.2        1 <1>        0.000
      3 O2         -5.5327   -1.6848   -1.7120 O.2        1 <1>        0.000
      4 C5         -5.2191   -2.1588   -3.9699 C.2        1 <1>        0.000
      5 C6         -6.5016   -2.1031   -4.3727 C.2        1 <1>        0.000
      6 C7         -6.9348   -2.0863   -5.7730 C.2        1 <1>        0.000
      7 C8         -7.1435   -0.9790   -6.5049 C.2        1 <1>        0.000
      8 C9         -7.5323   -0.9771   -7.9250 C.2        1 <1>        0.000
      9 C10        -6.8891   -1.6167   -8.9201 C.2        1 <1>        0.000
     10 C11        -5.6824   -2.4479   -8.8086 C.2        1 <1>        0.000
     11 C12        -5.1766   -3.1882   -9.8052 C.2        1 <1>        0.000
     12 C13        -3.9698   -4.0132   -9.6849 C.2        1 <1>        0.000
     13 C14        -3.6982   -5.0472  -10.4858 C.2        1 <1>        0.000
     14 H          -3.2604   -2.6270   -1.2564 H.spc      1 <1>        0.000
     15 H          -2.9582   -3.0183   -2.9525 H.spc      1 <1>        0.000
     16 H          -4.4484   -2.2168   -4.7385 H.spc      1 <1>        0.000
     17 H          -7.2730   -2.0680   -3.6034 H.spc      1 <1>        0.000
     18 H          -7.1007   -3.0479   -6.2588 H.spc      1 <1>        0.000
     19 H          -7.0161   -0.0147   -6.0129 H.spc      1 <1>        0.000
     20 H          -8.4209   -0.4065   -8.1951 H.spc      1 <1>        0.000
     21 H          -7.3102   -1.5056   -9.9193 H.spc      1 <1>        0.000
     22 H          -5.1632   -2.4636   -7.8503 H.spc      1 <1>        0.000
     23 H          -5.6942   -3.1763  -10.7644 H.spc      1 <1>        0.000
     24 H          -3.2553   -3.7691   -8.8987 H.spc      1 <1>        0.000
     25 H          -4.3924   -5.3172  -11.2816 H.spc      1 <1>        0.000
     26 H          -2.7824   -5.6210  -10.3435 H.spc      1 <1>        0.000
@<TRIPOS>BOND
     1    4    5 2  
     2   10   11 2  
     3    1    2 am 
     4   12   13 2  
     5    8    9 2  
     6    9   10 1  
     7   11   12 1  
     8    7    8 1  
     9    2    4 1  
    10    6    7 2  
    11    2    3 2  
    12    5    6 1  
    13    1   14 1  
    14    1   15 1  
    15    4   16 1  
    16    5   17 1  
    17    6   18 1  
    18    7   19 1  
    19    8   20 1  
    20    9   21 1  
    21   10   22 1  
    22   11   23 1  
    23   12   24 1  
    24   13   25 1  
    25   13   26 1  
# Name:          frag3-176-9/31924
# Creation time: Sat Jun  5 12:52:07 2010


@<TRIPOS>MOLECULE
frag3-176-9/31924
   26    25     1     1     1
SMALL
USER_CHARGES


@<TRIPOS>ATOM
      1 N1         -4.6722   -1.0614   -1.0989 N.am       1 <1>        0.000
      2 C4         -4.8923   -1.9410   -2.0994 C.2        1 <1>        0.000
      3 O2         -4.6459   -3.1307   -1.9652 O.2        1 <1>        0.000
      4 C5         -5.4432   -1.4672   -3.3849 C.2        1 <1>        0.000
      5 C6         -6.4407   -2.0691   -4.0566 C.2        1 <1>        0.000
      6 C7         -7.0023   -1.5905   -5.3228 C.2        1 <1>        0.000
      7 C8         -6.5205   -1.8803   -6.5419 C.2        1 <1>        0.000
      8 C9         -7.1152   -1.4239   -7.8081 C.2        1 <1>        0.000
      9 C10        -6.7527   -1.8081   -9.0435 C.2        1 <1>        0.000
     10 C11        -5.7016   -2.7680   -9.4008 C.2        1 <1>        0.000
     11 C12        -5.6075   -3.3860  -10.5893 C.2        1 <1>        0.000
     12 C13        -4.5493   -4.3399  -10.9342 C.2        1 <1>        0.000
     13 C14        -3.2868   -4.2201  -10.5037 C.2        1 <1>        0.000
     14 H          -4.2930   -1.3854   -0.2092 H.spc      1 <1>        0.000
     15 H          -4.8851   -0.0729   -1.2328 H.spc      1 <1>        0.000
     16 H          -5.0109   -0.5661   -3.8200 H.spc      1 <1>        0.000
     17 H          -6.8619   -2.9786   -3.6283 H.spc      1 <1>        0.000
     18 H          -7.8813   -0.9480   -5.2706 H.spc      1 <1>        0.000
     19 H          -5.6243   -2.4982   -6.5978 H.spc      1 <1>        0.000
     20 H          -7.9299   -0.7033   -7.7368 H.spc      1 <1>        0.000
     21 H          -7.2995   -1.3572   -9.8716 H.spc      1 <1>        0.000
     22 H          -4.9451   -2.9950   -8.6496 H.spc      1 <1>        0.000
     23 H          -6.3634   -3.1650  -11.3428 H.spc      1 <1>        0.000
     24 H          -4.8020   -5.1873  -11.5715 H.spc      1 <1>        0.000
     25 H          -3.0059   -3.3826   -9.8651 H.spc      1 <1>        0.000
     26 H          -2.5402   -4.9601  -10.7919 H.spc      1 <1>        0.000
@<TRIPOS>BOND
     1    4    5 2  
     2   10   11 2  
     3    1    2 am 
     4   12   13 2  
     5    8    9 2  
     6    9   10 1  
     7   11   12 1  
     8    7    8 1  
     9    2    4 1  
    10    6    7 2  
    11    2    3 2  
    12    5    6 1  
    13    1   14 1  
    14    1   15 1  
    15    4   16 1  
    16    5   17 1  
    17    6   18 1  
    18    7   19 1  
    19    8   20 1  
    20    9   21 1  
    21   10   22 1  
    22   11   23 1  
    23   12   24 1  
    24   13   25 1  
    25   13   26 1  
# Name:          frag3-176-9/31924
# Creation time: Sat Jun  5 12:52:07 2010


@<TRIPOS>MOLECULE
frag3-176-9/31924
   26    25     1     1     1
SMALL
USER_CHARGES


@<TRIPOS>ATOM
      1 N1         -3.8142   -2.4996   -2.2765 N.am       1 <1>        0.000
      2 C4         -5.0929   -2.1119   -2.0888 C.2        1 <1>        0.000
      3 O2         -5.6047   -2.1225   -0.9773 O.2        1 <1>        0.000
      4 C5         -5.9032   -1.6572   -3.2382 C.2        1 <1>        0.000
      5 C6         -5.4582   -1.5817   -4.5037 C.2        1 <1>        0.000
      6 C7         -6.2709   -1.1546   -5.6497 C.2        1 <1>        0.000
      7 C8         -6.4561   -1.8658   -6.7720 C.2        1 <1>        0.000
      8 C9         -7.3119   -1.4435   -7.8955 C.2        1 <1>        0.000
      9 C10        -7.3477   -1.9941   -9.1217 C.2        1 <1>        0.000
     10 C11        -6.5503   -3.1344   -9.5994 C.2        1 <1>        0.000
     11 C12        -5.2146   -3.1148   -9.7331 C.2        1 <1>        0.000
     12 C13        -4.4228   -4.2587  -10.2041 C.2        1 <1>        0.000
     13 C14        -3.1828   -4.1476  -10.6892 C.2        1 <1>        0.000
     14 H          -3.2536   -2.8097   -1.4828 H.spc      1 <1>        0.000
     15 H          -3.4082   -2.4826   -3.2121 H.spc      1 <1>        0.000
     16 H          -6.9347   -1.3623   -3.0456 H.spc      1 <1>        0.000
     17 H          -4.4207   -1.8569   -4.6930 H.spc      1 <1>        0.000
     18 H          -6.7621   -0.1838   -5.5833 H.spc      1 <1>        0.000
     19 H          -5.9385   -2.8211   -6.8591 H.spc      1 <1>        0.000
     20 H          -7.9813   -0.6025   -7.7145 H.spc      1 <1>        0.000
     21 H          -8.0399   -1.5491   -9.8365 H.spc      1 <1>        0.000
     22 H          -7.0767   -4.0523   -9.8611 H.spc      1 <1>        0.000
     23 H          -4.6868   -2.1961   -9.4771 H.spc      1 <1>        0.000
     24 H          -4.8707   -5.2512  -10.1553 H.spc      1 <1>        0.000
     25 H          -2.7074   -3.1687  -10.7509 H.spc      1 <1>        0.000
     26 H          -2.6466   -5.0359  -11.0232 H.spc      1 <1>        0.000
@<TRIPOS>BOND
     1    4    5 2  
     2   10   11 2  
     3    1    2 am 
     4   12   13 2  
     5    8    9 2  
     6    9   10 1  
     7   11   12 1  
     8    7    8 1  
     9    2    4 1  
    10    6    7 2  
    11    2    3 2  
    12    5    6 1  
    13    1   14 1  
    14    1   15 1  
    15    4   16 1  
    16    5   17 1  
    17    6   18 1  
    18    7   19 1  
    19    8   20 1  
    20    9   21 1  
    21   10   22 1  
    22   11   23 1  
    23   12   24 1  
    24   13   25 1  
    25   13   26 1  
# Name:          frag3-176-9/31924
# Creation time: Sat Jun  5 12:52:07 2010


@<TRIPOS>MOLECULE
frag3-176-9/31924
   26    25     1     1     1
SMALL
USER_CHARGES


@<TRIPOS>ATOM
      1 N1         -5.2390   -2.0867   -1.4106 N.am       1 <1>        0.000
      2 C4         -4.8352   -2.4474   -2.6475 C.2        1 <1>        0.000
      3 O2         -3.6916   -2.8251   -2.8578 O.2        1 <1>        0.000
      4 C5         -5.7881   -2.3980   -3.7750 C.2        1 <1>        0.000
      5 C6         -5.6667   -1.5899   -4.8421 C.2        1 <1>        0.000
      6 C7         -6.5975   -1.5565   -5.9760 C.2        1 <1>        0.000
      7 C8         -6.4325   -0.8320   -7.0931 C.2        1 <1>        0.000
      8 C9         -7.3554   -0.8440   -8.2412 C.2        1 <1>        0.000
      9 C10        -7.4377   -1.8047   -9.1823 C.2        1 <1>        0.000
     10 C11        -6.6320   -3.0315   -9.2622 C.2        1 <1>        0.000
     11 C12        -5.2964   -3.0662   -9.1240 C.2        1 <1>        0.000
     12 C13        -4.4964   -4.2937   -9.1972 C.2        1 <1>        0.000
     13 C14        -3.1619   -4.3106   -9.1403 C.2        1 <1>        0.000
     14 H          -4.5850   -2.1263   -0.6288 H.spc      1 <1>        0.000
     15 H          -6.1980   -1.7746   -1.2580 H.spc      1 <1>        0.000
     16 H          -6.6504   -3.0637   -3.7391 H.spc      1 <1>        0.000
     17 H          -4.8151   -0.9100   -4.8670 H.spc      1 <1>        0.000
     18 H          -7.4957   -2.1700   -5.9050 H.spc      1 <1>        0.000
     19 H          -5.5541   -0.1896   -7.1555 H.spc      1 <1>        0.000
     20 H          -8.0347    0.0029   -8.3384 H.spc      1 <1>        0.000
     21 H          -8.1797   -1.6566   -9.9669 H.spc      1 <1>        0.000
     22 H          -7.1511   -3.9723   -9.4451 H.spc      1 <1>        0.000
     23 H          -4.7754   -2.1253   -8.9467 H.spc      1 <1>        0.000
     24 H          -5.0196   -5.2440   -9.3039 H.spc      1 <1>        0.000
     25 H          -2.6091   -3.3772   -9.0338 H.spc      1 <1>        0.000
     26 H          -2.6258   -5.2577   -9.2003 H.spc      1 <1>        0.000
@<TRIPOS>BOND
     1    4    5 2  
     2   10   11 2  
     3    1    2 am 
     4   12   13 2  
     5    8    9 2  
     6    9   10 1  
     7   11   12 1  
     8    7    8 1  
     9    2    4 1  
    10    6    7 2  
    11    2    3 2  
    12    5    6 1  
    13    1   14 1  
    14    1   15 1  
    15    4   16 1  
    16    5   17 1  
    17    6   18 1  
    18    7   19 1  
    19    8   20 1  
    20    9   21 1  
    21   10   22 1  
    22   11   23 1  
    23   12   24 1  
    24   13   25 1  
    25   13   26 1  
# Name:          frag3-176-9/31924
# Creation time: Sat Jun  5 12:52:07 2010


@<TRIPOS>MOLECULE
frag3-176-9/31924
   26    25     1     1     1
SMALL
USER_CHARGES


@<TRIPOS>ATOM
      1 N1         -4.6532   -3.5352   -1.9431 N.am       1 <1>        0.000
      2 C4         -4.8680   -2.3107   -2.4699 C.2        1 <1>        0.000
      3 O2         -4.4993   -1.2976   -1.8938 O.2        1 <1>        0.000
      4 C5         -5.5537   -2.1830   -3.7706 C.2        1 <1>        0.000
      5 C6         -6.3686   -1.1652   -4.1087 C.2        1 <1>        0.000
      6 C7         -7.0283   -1.0252   -5.4089 C.2        1 <1>        0.000
      7 C8         -6.4284   -1.1864   -6.6010 C.2        1 <1>        0.000
      8 C9         -7.1082   -1.0891   -7.9012 C.2        1 <1>        0.000
      9 C10        -6.7709   -1.7407   -9.0275 C.2        1 <1>        0.000
     10 C11        -5.6679   -2.6915   -9.2046 C.2        1 <1>        0.000
     11 C12        -5.7258   -3.7904   -9.9747 C.2        1 <1>        0.000
     12 C13        -4.6150   -4.7304  -10.1454 C.2        1 <1>        0.000
     13 C14        -3.3431   -4.3409  -10.2999 C.2        1 <1>        0.000
     14 H          -4.1747   -3.6281   -1.0471 H.spc      1 <1>        0.000
     15 H          -4.9694   -4.3673   -2.4411 H.spc      1 <1>        0.000
     16 H          -5.3891   -2.9673   -4.5094 H.spc      1 <1>        0.000
     17 H          -6.5498   -0.3916   -3.3625 H.spc      1 <1>        0.000
     18 H          -8.0881   -0.7705   -5.4099 H.spc      1 <1>        0.000
     19 H          -5.3606   -1.4051   -6.6040 H.spc      1 <1>        0.000
     20 H          -7.9697   -0.4237   -7.9572 H.spc      1 <1>        0.000
     21 H          -7.3845   -1.5406   -9.9059 H.spc      1 <1>        0.000
     22 H          -4.7366   -2.4923   -8.6744 H.spc      1 <1>        0.000
     23 H          -6.6558   -3.9954  -10.5050 H.spc      1 <1>        0.000
     24 H          -4.8344   -5.7981  -10.1467 H.spc      1 <1>        0.000
     25 H          -3.0946   -3.2796  -10.3026 H.spc      1 <1>        0.000
     26 H          -2.5563   -5.0852  -10.4230 H.spc      1 <1>        0.000
@<TRIPOS>BOND
     1    4    5 2  
     2   10   11 2  
     3    1    2 am 
     4   12   13 2  
     5    8    9 2  
     6    9   10 1  
     7   11   12 1  
     8    7    8 1  
     9    2    4 1  
    10    6    7 2  
    11    2    3 2  
    12    5    6 1  
    13    1   14 1  
    14    1   15 1  
    15    4   16 1  
    16    5   17 1  
    17    6   18 1  
    18    7   19 1  
    19    8   20 1  
    20    9   21 1  
    21   10   22 1  
    22   11   23 1  
    23   12   24 1  
    24   13   25 1  
    25   13   26 1  
# Name:          frag3-176-9/31924
# Creation time: Sat Jun  5 12:52:07 2010


@<TRIPOS>MOLECULE
frag3-176-9/31924
   26    25     1     1     1
SMALL
USER_CHARGES


@<TRIPOS>ATOM
      1 N1         -5.7449   -2.0350   -1.5864 N.am       1 <1>        0.000
      2 C4         -4.7740   -2.3174   -2.4801 C.2        1 <1>        0.000
      3 O2         -3.7083   -2.8059   -2.1282 O.2        1 <1>        0.000
      4 C5         -4.9881   -2.0418   -3.9159 C.2        1 <1>        0.000
      5 C6         -6.1315   -1.5718   -4.4408 C.2        1 <1>        0.000
      6 C7         -6.3388   -1.2772   -5.8640 C.2        1 <1>        0.000
      7 C8         -7.4596   -1.5436   -6.5525 C.2        1 <1>        0.000
      8 C9         -7.6660   -1.2056   -7.9724 C.2        1 <1>        0.000
      9 C10        -6.9474   -1.6721   -9.0095 C.2        1 <1>        0.000
     10 C11        -5.8273   -2.6247   -8.9563 C.2        1 <1>        0.000
     11 C12        -5.0383   -2.9211  -10.0001 C.2        1 <1>        0.000
     12 C13        -3.9200   -3.8714   -9.9342 C.2        1 <1>        0.000
     13 C14        -4.0863   -5.1987   -9.9088 C.2        1 <1>        0.000
     14 H          -5.5981   -2.2285   -0.5957 H.spc      1 <1>        0.000
     15 H          -6.6255   -1.6281   -1.9016 H.spc      1 <1>        0.000
     16 H          -4.1593   -2.2335   -4.5974 H.spc      1 <1>        0.000
     17 H          -6.9655   -1.3965   -3.7613 H.spc      1 <1>        0.000
     18 H          -5.5180   -0.8050   -6.4039 H.spc      1 <1>        0.000
     19 H          -8.2724   -2.0438   -6.0260 H.spc      1 <1>        0.000
     20 H          -8.4759   -0.5136   -8.2034 H.spc      1 <1>        0.000
     21 H          -7.2253   -1.3042   -9.9972 H.spc      1 <1>        0.000
     22 H          -5.6255   -3.1217   -8.0074 H.spc      1 <1>        0.000
     23 H          -5.2385   -2.4285  -10.9516 H.spc      1 <1>        0.000
     24 H          -2.9048   -3.4757   -9.9045 H.spc      1 <1>        0.000
     25 H          -5.0900   -5.6229   -9.9373 H.spc      1 <1>        0.000
     26 H          -3.2181   -5.8559   -9.8596 H.spc      1 <1>        0.000
@<TRIPOS>BOND
     1    4    5 2  
     2   10   11 2  
     3    1    2 am 
     4   12   13 2  
     5    8    9 2  
     6    9   10 1  
     7   11   12 1  
     8    7    8 1  
     9    2    4 1  
    10    6    7 2  
    11    2    3 2  
    12    5    6 1  
    13    1   14 1  
    14    1   15 1  
    15    4   16 1  
    16    5   17 1  
    17    6   18 1  
    18    7   19 1  
    19    8   20 1  
    20    9   21 1  
    21   10   22 1  
    22   11   23 1  
    23   12   24 1  
    24   13   25 1  
    25   13   26 1  
# Name:          frag3-176-9/31924
# Creation time: Sat Jun  5 12:52:07 2010


@<TRIPOS>MOLECULE
frag3-176-9/31924
   26    25     1     1     1
SMALL
USER_CHARGES


@<TRIPOS>ATOM
      1 N1         -4.8991   -3.3883   -1.5979 N.am       1 <1>        0.000
      2 C4         -4.9072   -2.3557   -2.4688 C.2        1 <1>        0.000
      3 O2         -4.2462   -1.3481   -2.2651 O.2        1 <1>        0.000
      4 C5         -5.7234   -2.4387   -3.6967 C.2        1 <1>        0.000
      5 C6         -5.7853   -1.4806   -4.6387 C.2        1 <1>        0.000
      6 C7         -6.5742   -1.5685   -5.8708 C.2        1 <1>        0.000
      7 C8         -6.5106   -0.7067   -6.8976 C.2        1 <1>        0.000
      8 C9         -7.2790   -0.8352   -8.1464 C.2        1 <1>        0.000
      9 C10        -7.1269   -1.8009   -9.0724 C.2        1 <1>        0.000
     10 C11        -6.1764   -2.9197   -9.0391 C.2        1 <1>        0.000
     11 C12        -5.3781   -3.2678  -10.0615 C.2        1 <1>        0.000
     12 C13        -4.4257   -4.3820  -10.0126 C.2        1 <1>        0.000
     13 C14        -3.5983   -4.5940   -8.9816 C.2        1 <1>        0.000
     14 H          -4.3337   -3.3364   -0.7505 H.spc      1 <1>        0.000
     15 H          -5.4584   -4.2199   -1.7877 H.spc      1 <1>        0.000
     16 H          -6.3174   -3.3396   -3.8504 H.spc      1 <1>        0.000
     17 H          -5.2062   -0.5720   -4.4736 H.spc      1 <1>        0.000
     18 H          -7.2700   -2.4027   -5.9605 H.spc      1 <1>        0.000
     19 H          -5.8426    0.1490   -6.7998 H.spc      1 <1>        0.000
     20 H          -8.0407   -0.0797   -8.3392 H.spc      1 <1>        0.000
     21 H          -7.7813   -1.7461   -9.9424 H.spc      1 <1>        0.000
     22 H          -6.1146   -3.5072   -8.1230 H.spc      1 <1>        0.000
     23 H          -5.4418   -2.6878  -10.9822 H.spc      1 <1>        0.000
     24 H          -4.3897   -5.0709  -10.8565 H.spc      1 <1>        0.000
     25 H          -3.6125   -3.9212   -8.1242 H.spc      1 <1>        0.000
     26 H          -2.9105   -5.4394   -8.9997 H.spc      1 <1>        0.000
@<TRIPOS>BOND
     1    4    5 2  
     2   10   11 2  
     3    1    2 am 
     4   12   13 2  
     5    8    9 2  
     6    9   10 1  
     7   11   12 1  
     8    7    8 1  
     9    2    4 1  
    10    6    7 2  
    11    2    3 2  
    12    5    6 1  
    13    1   14 1  
    14    1   15 1  
    15    4   16 1  
    16    5   17 1  
    17    6   18 1  
    18    7   19 1  
    19    8   20 1  
    20    9   21 1  
    21   10   22 1  
    22   11   23 1  
    23   12   24 1  
    24   13   25 1  
    25   13   26 1  
# Name:          frag3-176-9/31924
# Creation time: Sat Jun  5 12:52:07 2010


@<TRIPOS>MOLECULE
frag3-176-9/31924
   26    25     1     1     1
SMALL
USER_CHARGES


@<TRIPOS>ATOM
      1 N1         -5.4756   -2.3882   -0.9754 N.am       1 <1>        0.000
      2 C4         -5.0017   -2.2001   -2.2262 C.2        1 <1>        0.000
      3 O2         -3.8102   -2.3014   -2.4765 O.2        1 <1>        0.000
      4 C5         -5.9365   -1.8699   -3.3213 C.2        1 <1>        0.000
      5 C6         -5.5779   -1.7012   -4.6065 C.2        1 <1>        0.000
      6 C7         -6.5042   -1.3978   -5.7011 C.2        1 <1>        0.000
      7 C8         -6.1719   -1.3025   -6.9968 C.2        1 <1>        0.000
      8 C9         -7.1229   -1.0399   -8.0890 C.2        1 <1>        0.000
      9 C10        -7.3023   -1.7963   -9.1883 C.2        1 <1>        0.000
     10 C11        -6.5926   -3.0362   -9.5285 C.2        1 <1>        0.000
     11 C12        -5.2575   -3.1792   -9.4820 C.2        1 <1>        0.000
     12 C13        -4.5526   -4.4197   -9.8166 C.2        1 <1>        0.000
     13 C14        -3.3245   -4.4539  -10.3411 C.2        1 <1>        0.000
     14 H          -4.8345   -2.6199   -0.2166 H.spc      1 <1>        0.000
     15 H          -6.4745   -2.2985   -0.7896 H.spc      1 <1>        0.000
     16 H          -6.9909   -1.7549   -3.0701 H.spc      1 <1>        0.000
     17 H          -4.5203   -1.7972   -4.8522 H.spc      1 <1>        0.000
     18 H          -7.5501   -1.2362   -5.4403 H.spc      1 <1>        0.000
     19 H          -5.1217   -1.4286   -7.2601 H.spc      1 <1>        0.000
     20 H          -7.7416   -0.1470   -7.9993 H.spc      1 <1>        0.000
     21 H          -8.0527   -1.4525   -9.9002 H.spc      1 <1>        0.000
     22 H          -7.1871   -3.8955   -9.8386 H.spc      1 <1>        0.000
     23 H          -4.6616   -2.3192   -9.1764 H.spc      1 <1>        0.000
     24 H          -5.0582   -5.3666   -9.6271 H.spc      1 <1>        0.000
     25 H          -2.7919   -3.5245  -10.5426 H.spc      1 <1>        0.000
     26 H          -2.8551   -5.4112  -10.5675 H.spc      1 <1>        0.000
@<TRIPOS>BOND
     1    4    5 2  
     2   10   11 2  
     3    1    2 am 
     4   12   13 2  
     5    8    9 2  
     6    9   10 1  
     7   11   12 1  
     8    7    8 1  
     9    2    4 1  
    10    6    7 2  
    11    2    3 2  
    12    5    6 1  
    13    1   14 1  
    14    1   15 1  
    15    4   16 1  
    16    5   17 1  
    17    6   18 1  
    18    7   19 1  
    19    8   20 1  
    20    9   21 1  
    21   10   22 1  
    22   11   23 1  
    23   12   24 1  
    24   13   25 1  
    25   13   26 1  
# Name:          frag3-176-9/31924
# Creation time: Sat Jun  5 12:52:07 2010


@<TRIPOS>MOLECULE
frag3-176-9/31924
   26    25     1     1     1
SMALL
USER_CHARGES


@<TRIPOS>ATOM
      1 N1         -5.4421   -2.8956   -1.1973 N.am       1 <1>        0.000
      2 C4         -4.9882   -2.2675   -2.3038 C.2        1 <1>        0.000
      3 O2         -3.9982   -1.5518   -2.2669 O.2        1 <1>        0.000
      4 C5         -5.6906   -2.4485   -3.5907 C.2        1 <1>        0.000
      5 C6         -5.6887   -1.5533   -4.5935 C.2        1 <1>        0.000
      6 C7         -6.3658   -1.7390   -5.8811 C.2        1 <1>        0.000
      7 C8         -6.8118   -0.7507   -6.6725 C.2        1 <1>        0.000
      8 C9         -7.4534   -0.9547   -7.9825 C.2        1 <1>        0.000
      9 C10        -6.9889   -1.7370   -8.9751 C.2        1 <1>        0.000
     10 C11        -5.7646   -2.5510   -8.9664 C.2        1 <1>        0.000
     11 C12        -5.3054   -3.2394  -10.0212 C.2        1 <1>        0.000
     12 C13        -4.0802   -4.0470  -10.0026 C.2        1 <1>        0.000
     13 C14        -4.0524   -5.3507  -10.2957 C.2        1 <1>        0.000
     14 H          -4.9565   -2.7771   -0.3082 H.spc      1 <1>        0.000
     15 H          -6.2704   -3.4884   -1.2509 H.spc      1 <1>        0.000
     16 H          -6.2496   -3.3727   -3.7374 H.spc      1 <1>        0.000
     17 H          -5.1444   -0.6218   -4.4384 H.spc      1 <1>        0.000
     18 H          -6.5193   -2.7625   -6.2232 H.spc      1 <1>        0.000
     19 H          -6.6907    0.2740   -6.3212 H.spc      1 <1>        0.000
     20 H          -8.3883   -0.4247   -8.1648 H.spc      1 <1>        0.000
     21 H          -7.5867   -1.7705   -9.8859 H.spc      1 <1>        0.000
     22 H          -5.1918   -2.5979   -8.0402 H.spc      1 <1>        0.000
     23 H          -5.8765   -3.1967  -10.9486 H.spc      1 <1>        0.000
     24 H          -3.1434   -3.5578   -9.7357 H.spc      1 <1>        0.000
     25 H          -4.9727   -5.8682  -10.5664 H.spc      1 <1>        0.000
     26 H          -3.1094   -5.8964  -10.2641 H.spc      1 <1>        0.000
@<TRIPOS>BOND
     1    4    5 2  
     2   10   11 2  
     3    1    2 am 
     4   12   13 2  
     5    8    9 2  
     6    9   10 1  
     7   11   12 1  
     8    7    8 1  
     9    2    4 1  
    10    6    7 2  
    11    2    3 2  
    12    5    6 1  
    13    1   14 1  
    14    1   15 1  
    15    4   16 1  
    16    5   17 1  
    17    6   18 1  
    18    7   19 1  
    19    8   20 1  
    20    9   21 1  
    21   10   22 1  
    22   11   23 1  
    23   12   24 1  
    24   13   25 1  
    25   13   26 1  
# Name:          frag3-176-9/31924
# Creation time: Sat Jun  5 12:52:07 2010


@<TRIPOS>MOLECULE
frag3-176-9/31924
   26    25     1     1     1
SMALL
USER_CHARGES


@<TRIPOS>ATOM
      1 N1         -5.4753   -3.2825   -1.8793 N.am       1 <1>        0.000
      2 C4         -4.8659   -2.1291   -2.2255 C.2        1 <1>        0.000
      3 O2         -4.2033   -1.4920   -1.4180 O.2        1 <1>        0.000
      4 C5         -4.9853   -1.6169   -3.6068 C.2        1 <1>        0.000
      5 C6         -6.0223   -1.8620   -4.4243 C.2        1 <1>        0.000
      6 C7         -6.1541   -1.3332   -5.7887 C.2        1 <1>        0.000
      7 C8         -7.1870   -1.5689   -6.6115 C.2        1 <1>        0.000
      8 C9         -7.3237   -0.9960   -7.9631 C.2        1 <1>        0.000
      9 C10        -6.9526   -1.5820   -9.1149 C.2        1 <1>        0.000
     10 C11        -6.3514   -2.9156   -9.2762 C.2        1 <1>        0.000
     11 C12        -5.1524   -3.1383   -9.8345 C.2        1 <1>        0.000
     12 C13        -4.5555   -4.4728   -9.9854 C.2        1 <1>        0.000
     13 C14        -3.4017   -4.6968  -10.6211 C.2        1 <1>        0.000
     14 H          -5.3884   -3.6396   -0.9278 H.spc      1 <1>        0.000
     15 H          -6.0228   -3.7971   -2.5691 H.spc      1 <1>        0.000
     16 H          -4.1746   -0.9965   -3.9889 H.spc      1 <1>        0.000
     17 H          -6.8233   -2.4987   -4.0487 H.spc      1 <1>        0.000
     18 H          -5.3494   -0.6996   -6.1617 H.spc      1 <1>        0.000
     19 H          -7.9789   -2.2286   -6.2568 H.spc      1 <1>        0.000
     20 H          -7.7677   -0.0032   -8.0355 H.spc      1 <1>        0.000
     21 H          -7.1144   -1.0077  -10.0271 H.spc      1 <1>        0.000
     22 H          -6.9163   -3.7768   -8.9194 H.spc      1 <1>        0.000
     23 H          -4.5878   -2.2795  -10.1975 H.spc      1 <1>        0.000
     24 H          -5.0820   -5.3251   -9.5559 H.spc      1 <1>        0.000
     25 H          -2.8516   -3.8651  -11.0613 H.spc      1 <1>        0.000
     26 H          -3.0107   -5.7112  -10.6995 H.spc      1 <1>        0.000
@<TRIPOS>BOND
     1    4    5 2  
     2   10   11 2  
     3    1    2 am 
     4   12   13 2  
     5    8    9 2  
     6    9   10 1  
     7   11   12 1  
     8    7    8 1  
     9    2    4 1  
    10    6    7 2  
    11    2    3 2  
    12    5    6 1  
    13    1   14 1  
    14    1   15 1  
    15    4   16 1  
    16    5   17 1  
    17    6   18 1  
    18    7   19 1  
    19    8   20 1  
    20    9   21 1  
    21   10   22 1  
    22   11   23 1  
    23   12   24 1  
    24   13   25 1  
    25   13   26 1  
# Name:          frag3-176-9/31924
# Creation time: Sat Jun  5 12:52:07 2010


@<TRIPOS>MOLECULE
frag3-176-9/31924
   26    25     1     1     1
SMALL
USER_CHARGES


@<TRIPOS>ATOM
      1 N1         -4.4844   -3.7388   -2.5328 N.am       1 <1>        0.000
      2 C4         -4.9439   -2.4760   -2.6586 C.2        1 <1>        0.000
      3 O2         -4.7116   -1.6267   -1.8110 O.2        1 <1>        0.000
      4 C5         -5.7442   -2.1026   -3.8416 C.2        1 <1>        0.000
      5 C6         -5.4571   -1.0783   -4.6671 C.2        1 <1>        0.000
      6 C7         -6.2380   -0.7237   -5.8537 C.2        1 <1>        0.000
      7 C8         -6.6364   -1.5859   -6.8039 C.2        1 <1>        0.000
      8 C9         -7.4579   -1.2294   -7.9700 C.2        1 <1>        0.000
      9 C10        -7.4199   -1.8108   -9.1831 C.2        1 <1>        0.000
     10 C11        -6.5624   -2.9272   -9.5953 C.2        1 <1>        0.000
     11 C12        -5.3044   -3.1170   -9.1620 C.2        1 <1>        0.000
     12 C13        -4.4530   -4.2355   -9.5675 C.2        1 <1>        0.000
     13 C14        -3.2173   -4.4344   -9.1027 C.2        1 <1>        0.000
     14 H          -3.9306   -4.0011   -1.7174 H.spc      1 <1>        0.000
     15 H          -4.6909   -4.4308   -3.2531 H.spc      1 <1>        0.000
     16 H          -6.6300   -2.6981   -4.0624 H.spc      1 <1>        0.000
     17 H          -4.5822   -0.4707   -4.4358 H.spc      1 <1>        0.000
     18 H          -6.5183    0.3225   -5.9759 H.spc      1 <1>        0.000
     19 H          -6.3279   -2.6264   -6.7029 H.spc      1 <1>        0.000
     20 H          -8.1683   -0.4131   -7.8389 H.spc      1 <1>        0.000
     21 H          -8.0968   -1.4104   -9.9379 H.spc      1 <1>        0.000
     22 H          -6.9726   -3.6508  -10.2997 H.spc      1 <1>        0.000
     23 H          -4.8914   -2.3900   -8.4627 H.spc      1 <1>        0.000
     24 H          -4.8504   -4.9475  -10.2908 H.spc      1 <1>        0.000
     25 H          -2.7894   -3.7414   -8.3783 H.spc      1 <1>        0.000
     26 H          -2.6364   -5.2898   -9.4476 H.spc      1 <1>        0.000
@<TRIPOS>BOND
     1    4    5 2  
     2   10   11 2  
     3    1    2 am 
     4   12   13 2  
     5    8    9 2  
     6    9   10 1  
     7   11   12 1  
     8    7    8 1  
     9    2    4 1  
    10    6    7 2  
    11    2    3 2  
    12    5    6 1  
    13    1   14 1  
    14    1   15 1  
    15    4   16 1  
    16    5   17 1  
    17    6   18 1  
    18    7   19 1  
    19    8   20 1  
    20    9   21 1  
    21   10   22 1  
    22   11   23 1  
    23   12   24 1  
    24   13   25 1  
    25   13   26 1  
# Name:          frag3-176-9/31924
# Creation time: Sat Jun  5 12:52:07 2010


@<TRIPOS>MOLECULE
frag3-176-9/31924
   26    25     1     1     1
SMALL
USER_CHARGES


@<TRIPOS>ATOM
      1 N1         -3.4692   -2.1310   -3.0468 N.am       1 <1>        0.000
      2 C4         -4.7484   -2.5155   -2.8596 C.2        1 <1>        0.000
      3 O2         -5.1728   -2.7965   -1.7467 O.2        1 <1>        0.000
      4 C5         -5.6679   -2.6034   -4.0124 C.2        1 <1>        0.000
      5 C6         -5.7233   -1.7113   -5.0155 C.2        1 <1>        0.000
      6 C7         -6.6192   -1.8067   -6.1717 C.2        1 <1>        0.000
      7 C8         -6.7825   -0.8587   -7.1083 C.2        1 <1>        0.000
      8 C9         -7.6543   -0.9896   -8.2879 C.2        1 <1>        0.000
      9 C10        -7.5299   -1.9085   -9.2667 C.2        1 <1>        0.000
     10 C11        -6.5110   -2.9629   -9.3607 C.2        1 <1>        0.000
     11 C12        -5.2768   -2.8685   -8.8377 C.2        1 <1>        0.000
     12 C13        -4.2649   -3.9248   -8.9254 C.2        1 <1>        0.000
     13 C14        -3.2103   -4.0089   -8.1099 C.2        1 <1>        0.000
     14 H          -2.8335   -2.0696   -2.2515 H.spc      1 <1>        0.000
     15 H          -3.1375   -1.9016   -3.9837 H.spc      1 <1>        0.000
     16 H          -6.3501   -3.4526   -4.0521 H.spc      1 <1>        0.000
     17 H          -5.0527   -0.8535   -4.9659 H.spc      1 <1>        0.000
     18 H          -7.2005   -2.7224   -6.2800 H.spc      1 <1>        0.000
     19 H          -6.2309    0.0736   -6.9870 H.spc      1 <1>        0.000
     20 H          -8.4754   -0.2784   -8.3780 H.spc      1 <1>        0.000
     21 H          -8.2621   -1.8645  -10.0729 H.spc      1 <1>        0.000
     22 H          -6.7729   -3.8801   -9.8882 H.spc      1 <1>        0.000
     23 H          -5.0119   -1.9490   -8.3157 H.spc      1 <1>        0.000
     24 H          -4.3791   -4.6841   -9.6991 H.spc      1 <1>        0.000
     25 H          -3.0670   -3.2654   -7.3258 H.spc      1 <1>        0.000
     26 H          -2.4930   -4.8210   -8.2286 H.spc      1 <1>        0.000
@<TRIPOS>BOND
     1    4    5 2  
     2   10   11 2  
     3    1    2 am 
     4   12   13 2  
     5    8    9 2  
     6    9   10 1  
     7   11   12 1  
     8    7    8 1  
     9    2    4 1  
    10    6    7 2  
    11    2    3 2  
    12    5    6 1  
    13    1   14 1  
    14    1   15 1  
    15    4   16 1  
    16    5   17 1  
    17    6   18 1  
    18    7   19 1  
    19    8   20 1  
    20    9   21 1  
    21   10   22 1  
    22   11   23 1  
    23   12   24 1  
    24   13   25 1  
    25   13   26 1  
# Name:          frag3-176-9/31924
# Creation time: Sat Jun  5 12:52:07 2010


@<TRIPOS>MOLECULE
frag3-176-9/31924
   26    25     1     1     1
SMALL
USER_CHARGES


@<TRIPOS>ATOM
      1 N1         -5.4351   -3.0100   -1.8248 N.am       1 <1>        0.000
      2 C4         -4.7453   -2.1904   -2.6447 C.2        1 <1>        0.000
      3 O2         -3.7287   -1.6219   -2.2689 O.2        1 <1>        0.000
      4 C5         -5.2095   -1.9711   -4.0299 C.2        1 <1>        0.000
      5 C6         -6.4677   -2.1784   -4.4564 C.2        1 <1>        0.000
      6 C7         -6.9317   -1.9353   -5.8264 C.2        1 <1>        0.000
      7 C8         -6.6522   -0.8376   -6.5509 C.2        1 <1>        0.000
      8 C9         -7.0853   -0.6244   -7.9422 C.2        1 <1>        0.000
      9 C10        -6.9197   -1.4881   -8.9622 C.2        1 <1>        0.000
     10 C11        -6.2828   -2.8122   -8.9082 C.2        1 <1>        0.000
     11 C12        -5.1792   -3.1482   -9.5920 C.2        1 <1>        0.000
     12 C13        -4.5445   -4.4702   -9.5265 C.2        1 <1>        0.000
     13 C14        -3.4486   -4.7986  -10.2162 C.2        1 <1>        0.000
     14 H          -5.1119   -3.1664   -0.8701 H.spc      1 <1>        0.000
     15 H          -6.2799   -3.4733   -2.1596 H.spc      1 <1>        0.000
     16 H          -4.4802   -1.6160   -4.7580 H.spc      1 <1>        0.000
     17 H          -7.1930   -2.5530   -3.7341 H.spc      1 <1>        0.000
     18 H          -7.5499   -2.7026   -6.2925 H.spc      1 <1>        0.000
     19 H          -6.0649   -0.0518   -6.0759 H.spc      1 <1>        0.000
     20 H          -7.5852    0.3178   -8.1668 H.spc      1 <1>        0.000
     21 H          -7.2992   -1.1710   -9.9336 H.spc      1 <1>        0.000
     22 H          -6.7374   -3.5704   -8.2706 H.spc      1 <1>        0.000
     23 H          -4.7261   -2.3940  -10.2354 H.spc      1 <1>        0.000
     24 H          -4.9918   -5.2251   -8.8798 H.spc      1 <1>        0.000
     25 H          -2.9773   -4.0662  -10.8717 H.spc      1 <1>        0.000
     26 H          -3.0257   -5.7989  -10.1235 H.spc      1 <1>        0.000
@<TRIPOS>BOND
     1    4    5 2  
     2   10   11 2  
     3    1    2 am 
     4   12   13 2  
     5    8    9 2  
     6    9   10 1  
     7   11   12 1  
     8    7    8 1  
     9    2    4 1  
    10    6    7 2  
    11    2    3 2  
    12    5    6 1  
    13    1   14 1  
    14    1   15 1  
    15    4   16 1  
    16    5   17 1  
    17    6   18 1  
    18    7   19 1  
    19    8   20 1  
    20    9   21 1  
    21   10   22 1  
    22   11   23 1  
    23   12   24 1  
    24   13   25 1  
    25   13   26 1  
# Name:          frag3-176-9/31924
# Creation time: Sat Jun  5 12:52:07 2010


@<TRIPOS>MOLECULE
frag3-176-9/31924
   26    25     1     1     1
SMALL
USER_CHARGES


@<TRIPOS>ATOM
      1 N1         -5.9122   -2.8905   -1.3775 N.am       1 <1>        0.000
      2 C4         -5.1739   -2.2248   -2.2910 C.2        1 <1>        0.000
      3 O2         -4.0402   -1.8458   -2.0385 O.2        1 <1>        0.000
      4 C5         -5.7386   -1.9498   -3.6258 C.2        1 <1>        0.000
      5 C6         -5.0851   -1.3146   -4.6186 C.2        1 <1>        0.000
      6 C7         -5.6366   -1.0626   -5.9493 C.2        1 <1>        0.000
      7 C8         -6.8095   -1.5407   -6.4049 C.2        1 <1>        0.000
      8 C9         -7.3775   -1.2506   -7.7272 C.2        1 <1>        0.000
      9 C10        -7.0408   -1.8514   -8.8828 C.2        1 <1>        0.000
     10 C11        -6.0667   -2.9297   -9.0726 C.2        1 <1>        0.000
     11 C12        -5.6624   -3.3946  -10.2654 C.2        1 <1>        0.000
     12 C13        -4.6821   -4.4665  -10.4407 C.2        1 <1>        0.000
     13 C14        -3.4047   -4.3647  -10.0550 C.2        1 <1>        0.000
     14 H          -5.5256   -3.0866   -0.4542 H.spc      1 <1>        0.000
     15 H          -6.8566   -3.1974   -1.6106 H.spc      1 <1>        0.000
     16 H          -6.7571   -2.2842   -3.8232 H.spc      1 <1>        0.000
     17 H          -4.0734   -0.9637   -4.4152 H.spc      1 <1>        0.000
     18 H          -5.0520   -0.4386   -6.6253 H.spc      1 <1>        0.000
     19 H          -7.3801   -2.1918   -5.7427 H.spc      1 <1>        0.000
     20 H          -8.1432   -0.4765   -7.7773 H.spc      1 <1>        0.000
     21 H          -7.5498   -1.4962   -9.7788 H.spc      1 <1>        0.000
     22 H          -5.6394   -3.3875   -8.1805 H.spc      1 <1>        0.000
     23 H          -6.0919   -2.9447  -11.1605 H.spc      1 <1>        0.000
     24 H          -5.0088   -5.3949  -10.9091 H.spc      1 <1>        0.000
     25 H          -3.0491   -3.4484   -9.5837 H.spc      1 <1>        0.000
     26 H          -2.7199   -5.1980  -10.2121 H.spc      1 <1>        0.000
@<TRIPOS>BOND
     1    4    5 2  
     2   10   11 2  
     3    1    2 am 
     4   12   13 2  
     5    8    9 2  
     6    9   10 1  
     7   11   12 1  
     8    7    8 1  
     9    2    4 1  
    10    6    7 2  
    11    2    3 2  
    12    5    6 1  
    13    1   14 1  
    14    1   15 1  
    15    4   16 1  
    16    5   17 1  
    17    6   18 1  
    18    7   19 1  
    19    8   20 1  
    20    9   21 1  
    21   10   22 1  
    22   11   23 1  
    23   12   24 1  
    24   13   25 1  
    25   13   26 1  
# Name:          frag3-176-9/31924
# Creation time: Sat Jun  5 12:52:07 2010


@<TRIPOS>MOLECULE
frag3-176-9/31924
   26    25     1     1     1
SMALL
USER_CHARGES


@<TRIPOS>ATOM
      1 N1         -3.9167   -1.3764   -2.0846 N.am       1 <1>        0.000
      2 C4         -4.9382   -2.2421   -2.2501 C.2        1 <1>        0.000
      3 O2         -5.0616   -3.2261   -1.5335 O.2        1 <1>        0.000
      4 C5         -5.9420   -2.0039   -3.3081 C.2        1 <1>        0.000
      5 C6         -5.6521   -1.6278   -4.5650 C.2        1 <1>        0.000
      6 C7         -6.6461   -1.4175   -5.6242 C.2        1 <1>        0.000
      7 C8         -6.4859   -1.7519   -6.9129 C.2        1 <1>        0.000
      8 C9         -7.5114   -1.5755   -7.9562 C.2        1 <1>        0.000
      9 C10        -7.3647   -1.8235   -9.2699 C.2        1 <1>        0.000
     10 C11        -6.1609   -2.3371   -9.9401 C.2        1 <1>        0.000
     11 C12        -5.4808   -3.4234   -9.5376 C.2        1 <1>        0.000
     12 C13        -4.2799   -3.9326  -10.2095 C.2        1 <1>        0.000
     13 C14        -3.1902   -4.3486   -9.5575 C.2        1 <1>        0.000
     14 H          -3.2272   -1.5356   -1.3500 H.spc      1 <1>        0.000
     15 H          -3.8340   -0.5627   -2.6940 H.spc      1 <1>        0.000
     16 H          -6.9920   -2.1432   -3.0506 H.spc      1 <1>        0.000
     17 H          -4.6036   -1.4674   -4.8160 H.spc      1 <1>        0.000
     18 H          -7.5901   -0.9522   -5.3406 H.spc      1 <1>        0.000
     19 H          -5.5303   -2.1844   -7.2094 H.spc      1 <1>        0.000
     20 H          -8.4847   -1.2078   -7.6313 H.spc      1 <1>        0.000
     21 H          -8.2283   -1.6228   -9.9039 H.spc      1 <1>        0.000
     22 H          -5.7977   -1.8031  -10.8182 H.spc      1 <1>        0.000
     23 H          -5.8426   -3.9584   -8.6596 H.spc      1 <1>        0.000
     24 H          -4.2765   -3.9737  -11.2987 H.spc      1 <1>        0.000
     25 H          -3.1627   -4.3199   -8.4682 H.spc      1 <1>        0.000
     26 H          -2.3288   -4.7166  -10.1149 H.spc      1 <1>        0.000
@<TRIPOS>BOND
     1    4    5 2  
     2   10   11 2  
     3    1    2 am 
     4   12   13 2  
     5    8    9 2  
     6    9   10 1  
     7   11   12 1  
     8    7    8 1  
     9    2    4 1  
    10    6    7 2  
    11    2    3 2  
    12    5    6 1  
    13    1   14 1  
    14    1   15 1  
    15    4   16 1  
    16    5   17 1  
    17    6   18 1  
    18    7   19 1  
    19    8   20 1  
    20    9   21 1  
    21   10   22 1  
    22   11   23 1  
    23   12   24 1  
    24   13   25 1  
    25   13   26 1  
# Name:          frag3-176-9/31924
# Creation time: Sat Jun  5 12:52:07 2010


@<TRIPOS>MOLECULE
frag3-176-9/31924
   26    25     1     1     1
SMALL
USER_CHARGES


@<TRIPOS>ATOM
      1 N1         -4.3448   -1.3086   -2.3332 N.am       1 <1>        0.000
      2 C4         -4.7413   -2.5122   -2.7968 C.2        1 <1>        0.000
      3 O2         -4.3546   -3.5519   -2.2797 O.2        1 <1>        0.000
      4 C5         -5.6676   -2.5928   -3.9450 C.2        1 <1>        0.000
      5 C6         -5.7590   -1.6717   -4.9182 C.2        1 <1>        0.000
      6 C7         -6.6610   -1.7620   -6.0730 C.2        1 <1>        0.000
      7 C8         -6.7331   -0.8669   -7.0700 C.2        1 <1>        0.000
      8 C9         -7.6142   -0.9955   -8.2446 C.2        1 <1>        0.000
      9 C10        -7.5141   -1.9282   -9.2116 C.2        1 <1>        0.000
     10 C11        -6.5160   -3.0054   -9.2984 C.2        1 <1>        0.000
     11 C12        -5.1958   -2.8224   -9.1309 C.2        1 <1>        0.000
     12 C13        -4.2045   -3.9027   -9.2093 C.2        1 <1>        0.000
     13 C14        -3.3243   -4.1662   -8.2385 C.2        1 <1>        0.000
     14 H          -3.7103   -1.2527   -1.5365 H.spc      1 <1>        0.000
     15 H          -4.6795   -0.4547   -2.7795 H.spc      1 <1>        0.000
     16 H          -6.3233   -3.4614   -4.0066 H.spc      1 <1>        0.000
     17 H          -5.1171   -0.7937   -4.8454 H.spc      1 <1>        0.000
     18 H          -7.3250   -2.6249   -6.1246 H.spc      1 <1>        0.000
     19 H          -6.0966    0.0157   -7.0070 H.spc      1 <1>        0.000
     20 H          -8.4212   -0.2690   -8.3396 H.spc      1 <1>        0.000
     21 H          -8.2501   -1.8795  -10.0141 H.spc      1 <1>        0.000
     22 H          -6.8695   -4.0142   -9.5118 H.spc      1 <1>        0.000
     23 H          -4.8397   -1.8131   -8.9248 H.spc      1 <1>        0.000
     24 H          -4.1854   -4.5221  -10.1060 H.spc      1 <1>        0.000
     25 H          -3.3187   -3.5643   -7.3298 H.spc      1 <1>        0.000
     26 H          -2.6121   -4.9830   -8.3556 H.spc      1 <1>        0.000
@<TRIPOS>BOND
     1    4    5 2  
     2   10   11 2  
     3    1    2 am 
     4   12   13 2  
     5    8    9 2  
     6    9   10 1  
     7   11   12 1  
     8    7    8 1  
     9    2    4 1  
    10    6    7 2  
    11    2    3 2  
    12    5    6 1  
    13    1   14 1  
    14    1   15 1  
    15    4   16 1  
    16    5   17 1  
    17    6   18 1  
    18    7   19 1  
    19    8   20 1  
    20    9   21 1  
    21   10   22 1  
    22   11   23 1  
    23   12   24 1  
    24   13   25 1  
    25   13   26 1  
# Name:          frag3-176-9/31924
# Creation time: Sat Jun  5 12:52:07 2010


@<TRIPOS>MOLECULE
frag3-176-9/31924
   26    25     1     1     1
SMALL
USER_CHARGES


@<TRIPOS>ATOM
      1 N1         -5.7590   -1.6150   -0.8996 N.am       1 <1>        0.000
      2 C4         -5.1807   -2.0067   -2.0553 C.2        1 <1>        0.000
      3 O2         -4.1934   -2.7264   -2.0602 O.2        1 <1>        0.000
      4 C5         -5.7502   -1.5651   -3.3442 C.2        1 <1>        0.000
      5 C6         -5.2169   -1.8401   -4.5498 C.2        1 <1>        0.000
      6 C7         -5.7947   -1.4273   -5.8299 C.2        1 <1>        0.000
      7 C8         -6.8221   -2.0338   -6.4485 C.2        1 <1>        0.000
      8 C9         -7.4243   -1.5824   -7.7116 C.2        1 <1>        0.000
      9 C10        -6.9820   -1.8712   -8.9485 C.2        1 <1>        0.000
     10 C11        -5.8331   -2.7083   -9.3075 C.2        1 <1>        0.000
     11 C12        -5.4778   -3.0189  -10.5651 C.2        1 <1>        0.000
     12 C13        -4.3247   -3.8537  -10.9086 C.2        1 <1>        0.000
     13 C14        -3.8714   -4.8374  -10.1206 C.2        1 <1>        0.000
     14 H          -5.3720   -1.9203   -0.0066 H.spc      1 <1>        0.000
     15 H          -6.5828   -1.0139   -0.9197 H.spc      1 <1>        0.000
     16 H          -6.6664   -0.9752   -3.3179 H.spc      1 <1>        0.000
     17 H          -4.2886   -2.4109   -4.5742 H.spc      1 <1>        0.000
     18 H          -5.3565   -0.5583   -6.3207 H.spc      1 <1>        0.000
     19 H          -7.2393   -2.9251   -5.9798 H.spc      1 <1>        0.000
     20 H          -8.3125   -0.9548   -7.6387 H.spc      1 <1>        0.000
     21 H          -7.5400   -1.4341   -9.7765 H.spc      1 <1>        0.000
     22 H          -5.2240   -3.1069   -8.4962 H.spc      1 <1>        0.000
     23 H          -6.0852   -2.6253  -11.3801 H.spc      1 <1>        0.000
     24 H          -3.8105   -3.6655  -11.8511 H.spc      1 <1>        0.000
     25 H          -4.3661   -5.0479   -9.1724 H.spc      1 <1>        0.000
     26 H          -3.0078   -5.4274  -10.4275 H.spc      1 <1>        0.000
@<TRIPOS>BOND
     1    4    5 2  
     2   10   11 2  
     3    1    2 am 
     4   12   13 2  
     5    8    9 2  
     6    9   10 1  
     7   11   12 1  
     8    7    8 1  
     9    2    4 1  
    10    6    7 2  
    11    2    3 2  
    12    5    6 1  
    13    1   14 1  
    14    1   15 1  
    15    4   16 1  
    16    5   17 1  
    17    6   18 1  
    18    7   19 1  
    19    8   20 1  
    20    9   21 1  
    21   10   22 1  
    22   11   23 1  
    23   12   24 1  
    24   13   25 1  
    25   13   26 1  
# Name:          frag3-176-9/31924
# Creation time: Sat Jun  5 12:52:07 2010


@<TRIPOS>MOLECULE
frag3-176-9/31924
   26    25     1     1     1
SMALL
USER_CHARGES


@<TRIPOS>ATOM
      1 N1         -4.4813   -0.7792   -1.6870 N.am       1 <1>        0.000
      2 C4         -5.1108   -1.8588   -2.1973 C.2        1 <1>        0.000
      3 O2         -5.1346   -2.9235   -1.5970 O.2        1 <1>        0.000
      4 C5         -5.7955   -1.7599   -3.5007 C.2        1 <1>        0.000
      5 C6         -5.6145   -2.6137   -4.5263 C.2        1 <1>        0.000
      6 C7         -6.3104   -2.5280   -5.8119 C.2        1 <1>        0.000
      7 C8         -6.8122   -1.3991   -6.3455 C.2        1 <1>        0.000
      8 C9         -7.4732   -1.3145   -7.6559 C.2        1 <1>        0.000
      9 C10        -6.9608   -1.7401   -8.8266 C.2        1 <1>        0.000
     10 C11        -5.6563   -2.3762   -9.0470 C.2        1 <1>        0.000
     11 C12        -5.3756   -3.2044  -10.0633 C.2        1 <1>        0.000
     12 C13        -4.0699   -3.8340  -10.2763 C.2        1 <1>        0.000
     13 C14        -3.8353   -4.7548  -11.2146 C.2        1 <1>        0.000
     14 H          -4.0128   -0.8419   -0.7831 H.spc      1 <1>        0.000
     15 H          -4.4741    0.0993   -2.2053 H.spc      1 <1>        0.000
     16 H          -6.4971   -0.9380   -3.6434 H.spc      1 <1>        0.000
     17 H          -4.8999   -3.4254   -4.3899 H.spc      1 <1>        0.000
     18 H          -6.4313   -3.4500   -6.3806 H.spc      1 <1>        0.000
     19 H          -6.7221   -0.4814   -5.7643 H.spc      1 <1>        0.000
     20 H          -8.4669   -0.8673   -7.6825 H.spc      1 <1>        0.000
     21 H          -7.5844   -1.5961   -9.7089 H.spc      1 <1>        0.000
     22 H          -4.8602   -2.1601   -8.3346 H.spc      1 <1>        0.000
     23 H          -6.1698   -3.4234  -10.7770 H.spc      1 <1>        0.000
     24 H          -3.2432   -3.5338   -9.6324 H.spc      1 <1>        0.000
     25 H          -4.6402   -5.0772  -11.8751 H.spc      1 <1>        0.000
     26 H          -2.8389   -5.1840  -11.3200 H.spc      1 <1>        0.000
@<TRIPOS>BOND
     1    4    5 2  
     2   10   11 2  
     3    1    2 am 
     4   12   13 2  
     5    8    9 2  
     6    9   10 1  
     7   11   12 1  
     8    7    8 1  
     9    2    4 1  
    10    6    7 2  
    11    2    3 2  
    12    5    6 1  
    13    1   14 1  
    14    1   15 1  
    15    4   16 1  
    16    5   17 1  
    17    6   18 1  
    18    7   19 1  
    19    8   20 1  
    20    9   21 1  
    21   10   22 1  
    22   11   23 1  
    23   12   24 1  
    24   13   25 1  
    25   13   26 1  
# Name:          frag3-176-9/31924
# Creation time: Sat Jun  5 12:52:07 2010


@<TRIPOS>MOLECULE
frag3-176-9/31924
   26    25     1     1     1
SMALL
USER_CHARGES


@<TRIPOS>ATOM
      1 N1         -5.1836   -1.0853   -1.0603 N.am       1 <1>        0.000
      2 C4         -5.2396   -2.0791   -1.9715 C.2        1 <1>        0.000
      3 O2         -4.7356   -3.1720   -1.7536 O.2        1 <1>        0.000
      4 C5         -5.9309   -1.8594   -3.2584 C.2        1 <1>        0.000
      5 C6         -5.4086   -1.1874   -4.3002 C.2        1 <1>        0.000
      6 C7         -6.0866   -0.9927   -5.5873 C.2        1 <1>        0.000
      7 C8         -6.6282   -1.9738   -6.3286 C.2        1 <1>        0.000
      8 C9         -7.3456   -1.7623   -7.5972 C.2        1 <1>        0.000
      9 C10        -6.9562   -2.1879   -8.8110 C.2        1 <1>        0.000
     10 C11        -5.7516   -2.9659   -9.1341 C.2        1 <1>        0.000
     11 C12        -5.3316   -3.2292  -10.3800 C.2        1 <1>        0.000
     12 C13        -4.1249   -4.0037  -10.6926 C.2        1 <1>        0.000
     13 C14        -3.9075   -4.5876  -11.8744 C.2        1 <1>        0.000
     14 H          -4.7137   -1.2375   -0.1679 H.spc      1 <1>        0.000
     15 H          -5.6111   -0.1819   -1.2640 H.spc      1 <1>        0.000
     16 H          -6.9341   -2.2704   -3.3717 H.spc      1 <1>        0.000
     17 H          -4.4139   -0.7582   -4.1803 H.spc      1 <1>        0.000
     18 H          -6.1560    0.0252   -5.9710 H.spc      1 <1>        0.000
     19 H          -6.5298   -2.9970   -5.9659 H.spc      1 <1>        0.000
     20 H          -8.2824   -1.2073   -7.5468 H.spc      1 <1>        0.000
     21 H          -7.6047   -1.9277   -9.6476 H.spc      1 <1>        0.000
     22 H          -5.1601   -3.3549   -8.3053 H.spc      1 <1>        0.000
     23 H          -5.9225   -2.8445  -11.2113 H.spc      1 <1>        0.000
     24 H          -3.3647   -4.1082   -9.9185 H.spc      1 <1>        0.000
     25 H          -4.6484   -4.5017  -12.6693 H.spc      1 <1>        0.000
     26 H          -2.9892   -5.1499  -12.0438 H.spc      1 <1>        0.000
@<TRIPOS>BOND
     1    4    5 2  
     2   10   11 2  
     3    1    2 am 
     4   12   13 2  
     5    8    9 2  
     6    9   10 1  
     7   11   12 1  
     8    7    8 1  
     9    2    4 1  
    10    6    7 2  
    11    2    3 2  
    12    5    6 1  
    13    1   14 1  
    14    1   15 1  
    15    4   16 1  
    16    5   17 1  
    17    6   18 1  
    18    7   19 1  
    19    8   20 1  
    20    9   21 1  
    21   10   22 1  
    22   11   23 1  
    23   12   24 1  
    24   13   25 1  
    25   13   26 1  
# Name:          frag3-176-9/31924
# Creation time: Sat Jun  5 12:52:07 2010


@<TRIPOS>MOLECULE
frag3-176-9/31924
   26    25     1     1     1
SMALL
USER_CHARGES


@<TRIPOS>ATOM
      1 N1         -4.2878   -1.2354   -1.6933 N.am       1 <1>        0.000
      2 C4         -5.1189   -2.1978   -2.1432 C.2        1 <1>        0.000
      3 O2         -5.2885   -3.2359   -1.5168 O.2        1 <1>        0.000
      4 C5         -5.8516   -2.0074   -3.4111 C.2        1 <1>        0.000
      5 C6         -5.5753   -1.0545   -4.3187 C.2        1 <1>        0.000
      6 C7         -6.2897   -0.8833   -5.5882 C.2        1 <1>        0.000
      7 C8         -6.6300   -1.8815   -6.4210 C.2        1 <1>        0.000
      8 C9         -7.3859   -1.7041   -7.6719 C.2        1 <1>        0.000
      9 C10        -7.0484   -2.1847   -8.8805 C.2        1 <1>        0.000
     10 C11        -5.8721   -2.9997   -9.2141 C.2        1 <1>        0.000
     11 C12        -5.6313   -3.5226  -10.4264 C.2        1 <1>        0.000
     12 C13        -4.4495   -4.3303  -10.7487 C.2        1 <1>        0.000
     13 C14        -3.2012   -3.8490  -10.7154 C.2        1 <1>        0.000
     14 H          -3.7857   -1.3648   -0.8149 H.spc      1 <1>        0.000
     15 H          -4.1614   -0.3782   -2.2315 H.spc      1 <1>        0.000
     16 H          -6.6753   -2.6880   -3.6267 H.spc      1 <1>        0.000
     17 H          -4.7643   -0.3613   -4.0955 H.spc      1 <1>        0.000
     18 H          -6.5655    0.1306   -5.8781 H.spc      1 <1>        0.000
     19 H          -6.3252   -2.8928   -6.1517 H.spc      1 <1>        0.000
     20 H          -8.3087   -1.1270   -7.6118 H.spc      1 <1>        0.000
     21 H          -7.7209   -1.9436   -9.7037 H.spc      1 <1>        0.000
     22 H          -5.1464   -3.1925   -8.4239 H.spc      1 <1>        0.000
     23 H          -6.3566   -3.3363  -11.2185 H.spc      1 <1>        0.000
     24 H          -4.5954   -5.3735  -11.0290 H.spc      1 <1>        0.000
     25 H          -3.0251   -2.8095  -10.4386 H.spc      1 <1>        0.000
     26 H          -2.3606   -4.4964  -10.9651 H.spc      1 <1>        0.000
@<TRIPOS>BOND
     1    4    5 2  
     2   10   11 2  
     3    1    2 am 
     4   12   13 2  
     5    8    9 2  
     6    9   10 1  
     7   11   12 1  
     8    7    8 1  
     9    2    4 1  
    10    6    7 2  
    11    2    3 2  
    12    5    6 1  
    13    1   14 1  
    14    1   15 1  
    15    4   16 1  
    16    5   17 1  
    17    6   18 1  
    18    7   19 1  
    19    8   20 1  
    20    9   21 1  
    21   10   22 1  
    22   11   23 1  
    23   12   24 1  
    24   13   25 1  
    25   13   26 1  
# Name:          frag3-176-9/31924
# Creation time: Sat Jun  5 12:52:07 2010


@<TRIPOS>MOLECULE
frag3-176-9/31924
   26    25     1     1     1
SMALL
USER_CHARGES


@<TRIPOS>ATOM
      1 N1         -3.5834   -2.9374   -2.3610 N.am       1 <1>        0.000
      2 C4         -4.7354   -2.3204   -2.7023 C.2        1 <1>        0.000
      3 O2         -5.3812   -1.6824   -1.8846 O.2        1 <1>        0.000
      4 C5         -5.2297   -2.4094   -4.0914 C.2        1 <1>        0.000
      5 C6         -6.3413   -1.8026   -4.5468 C.2        1 <1>        0.000
      6 C7         -6.8199   -1.8659   -5.9293 C.2        1 <1>        0.000
      7 C8         -7.0816   -0.8051   -6.7106 C.2        1 <1>        0.000
      8 C9         -7.5166   -0.8854   -8.1140 C.2        1 <1>        0.000
      9 C10        -6.9428   -1.6336   -9.0761 C.2        1 <1>        0.000
     10 C11        -5.7840   -2.5233   -8.9364 C.2        1 <1>        0.000
     11 C12        -5.5902   -3.6389   -9.6583 C.2        1 <1>        0.000
     12 C13        -4.4263   -4.5175   -9.5105 C.2        1 <1>        0.000
     13 C14        -3.1981   -4.0644   -9.2279 C.2        1 <1>        0.000
     14 H          -3.2362   -2.8761   -1.4039 H.spc      1 <1>        0.000
     15 H          -3.0607   -3.4647   -3.0604 H.spc      1 <1>        0.000
     16 H          -4.6539   -3.0084   -4.7969 H.spc      1 <1>        0.000
     17 H          -6.9279   -1.2219   -3.8349 H.spc      1 <1>        0.000
     18 H          -6.9766   -2.8550   -6.3597 H.spc      1 <1>        0.000
     19 H          -6.9632    0.1864   -6.2736 H.spc      1 <1>        0.000
     20 H          -8.3805   -0.2858   -8.4008 H.spc      1 <1>        0.000
     21 H          -7.3888   -1.5713  -10.0687 H.spc      1 <1>        0.000
     22 H          -5.0287   -2.2605   -8.1957 H.spc      1 <1>        0.000
     23 H          -6.3438   -3.9072  -10.3987 H.spc      1 <1>        0.000
     24 H          -4.5671   -5.5910   -9.6366 H.spc      1 <1>        0.000
     25 H          -3.0283   -2.9958   -9.0965 H.spc      1 <1>        0.000
     26 H          -2.3683   -4.7643   -9.1293 H.spc      1 <1>        0.000
@<TRIPOS>BOND
     1    4    5 2  
     2   10   11 2  
     3    1    2 am 
     4   12   13 2  
     5    8    9 2  
     6    9   10 1  
     7   11   12 1  
     8    7    8 1  
     9    2    4 1  
    10    6    7 2  
    11    2    3 2  
    12    5    6 1  
    13    1   14 1  
    14    1   15 1  
    15    4   16 1  
    16    5   17 1  
    17    6   18 1  
    18    7   19 1  
    19    8   20 1  
    20    9   21 1  
    21   10   22 1  
    22   11   23 1  
    23   12   24 1  
    24   13   25 1  
    25   13   26 1  
# Name:          frag3-176-9/31924
# Creation time: Sat Jun  5 12:52:07 2010


@<TRIPOS>MOLECULE
frag3-176-9/31924
   26    25     1     1     1
SMALL
USER_CHARGES


@<TRIPOS>ATOM
      1 N1         -4.9255   -3.3202   -2.1251 N.am       1 <1>        0.000
      2 C4         -4.8018   -2.0961   -2.6778 C.2        1 <1>        0.000
      3 O2         -4.2683   -1.1752   -2.0732 O.2        1 <1>        0.000
      4 C5         -5.3083   -1.8486   -4.0428 C.2        1 <1>        0.000
      5 C6         -6.2233   -2.6092   -4.6694 C.2        1 <1>        0.000
      6 C7         -6.7420   -2.3465   -6.0153 C.2        1 <1>        0.000
      7 C8         -6.9612   -1.1242   -6.5318 C.2        1 <1>        0.000
      8 C9         -7.4393   -0.8699   -7.9004 C.2        1 <1>        0.000
      9 C10        -6.8092   -1.2249   -9.0367 C.2        1 <1>        0.000
     10 C11        -5.5324   -1.9431   -9.1537 C.2        1 <1>        0.000
     11 C12        -5.4248   -3.2601   -9.3871 C.2        1 <1>        0.000
     12 C13        -4.1469   -3.9713   -9.5033 C.2        1 <1>        0.000
     13 C14        -4.0475   -5.2970   -9.6326 C.2        1 <1>        0.000
     14 H          -4.5708   -3.4933   -1.1846 H.spc      1 <1>        0.000
     15 H          -5.3738   -4.0728   -2.6477 H.spc      1 <1>        0.000
     16 H          -4.9120   -0.9876   -4.5810 H.spc      1 <1>        0.000
     17 H          -6.6059   -3.4817   -4.1398 H.spc      1 <1>        0.000
     18 H          -6.9671   -3.2072   -6.6451 H.spc      1 <1>        0.000
     19 H          -6.7716   -0.2620   -5.8924 H.spc      1 <1>        0.000
     20 H          -8.3899   -0.3466   -8.0038 H.spc      1 <1>        0.000
     21 H          -7.2994   -0.9497   -9.9706 H.spc      1 <1>        0.000
     22 H          -4.6127   -1.3684   -9.0437 H.spc      1 <1>        0.000
     23 H          -6.3431   -3.8369   -9.4971 H.spc      1 <1>        0.000
     24 H          -3.2279   -3.3856   -9.4830 H.spc      1 <1>        0.000
     25 H          -4.9476   -5.9113   -9.6563 H.spc      1 <1>        0.000
     26 H          -3.0663   -5.7646   -9.7144 H.spc      1 <1>        0.000
@<TRIPOS>BOND
     1    4    5 2  
     2   10   11 2  
     3    1    2 am 
     4   12   13 2  
     5    8    9 2  
     6    9   10 1  
     7   11   12 1  
     8    7    8 1  
     9    2    4 1  
    10    6    7 2  
    11    2    3 2  
    12    5    6 1  
    13    1   14 1  
    14    1   15 1  
    15    4   16 1  
    16    5   17 1  
    17    6   18 1  
    18    7   19 1  
    19    8   20 1  
    20    9   21 1  
    21   10   22 1  
    22   11   23 1  
    23   12   24 1  
    24   13   25 1  
    25   13   26 1  
# Name:          frag3-176-9/31924
# Creation time: Sat Jun  5 12:52:07 2010


@<TRIPOS>MOLECULE
frag3-176-9/31924
   26    25     1     1     1
SMALL
USER_CHARGES


@<TRIPOS>ATOM
      1 N1         -5.1566   -1.3569   -0.8608 N.am       1 <1>        0.000
      2 C4         -5.0919   -2.0605   -2.0107 C.2        1 <1>        0.000
      3 O2         -4.3306   -3.0081   -2.1352 O.2        1 <1>        0.000
      4 C5         -5.9622   -1.6886   -3.1438 C.2        1 <1>        0.000
      5 C6         -5.5928   -1.7272   -4.4374 C.2        1 <1>        0.000
      6 C7         -6.4576   -1.3877   -5.5662 C.2        1 <1>        0.000
      7 C8         -6.3402   -1.8660   -6.8140 C.2        1 <1>        0.000
      8 C9         -7.2450   -1.5494   -7.9268 C.2        1 <1>        0.000
      9 C10        -7.1816   -2.0450   -9.1757 C.2        1 <1>        0.000
     10 C11        -6.2031   -3.0030   -9.6927 C.2        1 <1>        0.000
     11 C12        -4.9022   -2.7276   -9.9016 C.2        1 <1>        0.000
     12 C13        -3.9299   -3.6947  -10.4090 C.2        1 <1>        0.000
     13 C14        -4.2365   -4.9715  -10.6753 C.2        1 <1>        0.000
     14 H          -4.5621   -1.6125   -0.0724 H.spc      1 <1>        0.000
     15 H          -5.8000   -0.5695   -0.7802 H.spc      1 <1>        0.000
     16 H          -6.9761   -1.3593   -2.9165 H.spc      1 <1>        0.000
     17 H          -4.5712   -2.0350   -4.6604 H.spc      1 <1>        0.000
     18 H          -7.2687   -0.6844   -5.3774 H.spc      1 <1>        0.000
     19 H          -5.5094   -2.5416   -7.0177 H.spc      1 <1>        0.000
     20 H          -8.0482   -0.8421   -7.7199 H.spc      1 <1>        0.000
     21 H          -7.9394   -1.6961   -9.8772 H.spc      1 <1>        0.000
     22 H          -6.5521   -4.0092   -9.9246 H.spc      1 <1>        0.000
     23 H          -4.5514   -1.7200   -9.6784 H.spc      1 <1>        0.000
     24 H          -2.9063   -3.3608  -10.5788 H.spc      1 <1>        0.000
     25 H          -5.2522   -5.3329  -10.5149 H.spc      1 <1>        0.000
     26 H          -3.4702   -5.6488  -11.0523 H.spc      1 <1>        0.000
@<TRIPOS>BOND
     1    4    5 2  
     2   10   11 2  
     3    1    2 am 
     4   12   13 2  
     5    8    9 2  
     6    9   10 1  
     7   11   12 1  
     8    7    8 1  
     9    2    4 1  
    10    6    7 2  
    11    2    3 2  
    12    5    6 1  
    13    1   14 1  
    14    1   15 1  
    15    4   16 1  
    16    5   17 1  
    17    6   18 1  
    18    7   19 1  
    19    8   20 1  
    20    9   21 1  
    21   10   22 1  
    22   11   23 1  
    23   12   24 1  
    24   13   25 1  
    25   13   26 1  
# Name:          frag3-176-9/31924
# Creation time: Sat Jun  5 12:52:07 2010


@<TRIPOS>MOLECULE
frag3-176-9/31924
   26    25     1     1     1
SMALL
USER_CHARGES


@<TRIPOS>ATOM
      1 N1         -5.3099   -3.4435   -1.7537 N.am       1 <1>        0.000
      2 C4         -4.9850   -2.3913   -2.5355 C.2        1 <1>        0.000
      3 O2         -4.3207   -1.4605   -2.1052 O.2        1 <1>        0.000
      4 C5         -5.4322   -2.3601   -3.9429 C.2        1 <1>        0.000
      5 C6         -5.4617   -1.2558   -4.7105 C.2        1 <1>        0.000
      6 C7         -5.8853   -1.2234   -6.1115 C.2        1 <1>        0.000
      7 C8         -7.1352   -0.9761   -6.5392 C.2        1 <1>        0.000
      8 C9         -7.5391   -0.9111   -7.9522 C.2        1 <1>        0.000
      9 C10        -7.1571   -1.7639   -8.9221 C.2        1 <1>        0.000
     10 C11        -6.2830   -2.9350   -8.7811 C.2        1 <1>        0.000
     11 C12        -5.3130   -3.2679   -9.6450 C.2        1 <1>        0.000
     12 C13        -4.4386   -4.4337   -9.4918 C.2        1 <1>        0.000
     13 C14        -3.3696   -4.6640  -10.2584 C.2        1 <1>        0.000
     14 H          -4.9997   -3.4722   -0.7824 H.spc      1 <1>        0.000
     15 H          -5.8655   -4.2095   -2.1345 H.spc      1 <1>        0.000
     16 H          -5.7614   -3.2976   -4.3909 H.spc      1 <1>        0.000
     17 H          -5.1472   -0.3163   -4.2561 H.spc      1 <1>        0.000
     18 H          -5.1255   -1.4154   -6.8691 H.spc      1 <1>        0.000
     19 H          -7.9048   -0.8119   -5.7850 H.spc      1 <1>        0.000
     20 H          -8.2077   -0.0998   -8.2401 H.spc      1 <1>        0.000
     21 H          -7.5393   -1.5622   -9.9228 H.spc      1 <1>        0.000
     22 H          -6.4329   -3.5784   -7.9141 H.spc      1 <1>        0.000
     23 H          -5.1655   -2.6306  -10.5169 H.spc      1 <1>        0.000
     24 H          -4.6740   -5.1536   -8.7079 H.spc      1 <1>        0.000
     25 H          -3.1065   -3.9638  -11.0513 H.spc      1 <1>        0.000
     26 H          -2.7602   -5.5521  -10.0912 H.spc      1 <1>        0.000
@<TRIPOS>BOND
     1    4    5 2  
     2   10   11 2  
     3    1    2 am 
     4   12   13 2  
     5    8    9 2  
     6    9   10 1  
     7   11   12 1  
     8    7    8 1  
     9    2    4 1  
    10    6    7 2  
    11    2    3 2  
    12    5    6 1  
    13    1   14 1  
    14    1   15 1  
    15    4   16 1  
    16    5   17 1  
    17    6   18 1  
    18    7   19 1  
    19    8   20 1  
    20    9   21 1  
    21   10   22 1  
    22   11   23 1  
    23   12   24 1  
    24   13   25 1  
    25   13   26 1  
# Name:          frag3-176-9/31924
# Creation time: Sat Jun  5 12:52:07 2010


@<TRIPOS>MOLECULE
frag3-176-9/31924
   26    25     1     1     1
SMALL
USER_CHARGES


@<TRIPOS>ATOM
      1 N1         -4.6026   -1.1300   -2.0421 N.am       1 <1>        0.000
      2 C4         -4.7968   -2.3776   -2.5164 C.2        1 <1>        0.000
      3 O2         -4.4011   -3.3604   -1.9029 O.2        1 <1>        0.000
      4 C5         -5.5041   -2.5793   -3.7975 C.2        1 <1>        0.000
      5 C6         -5.9660   -1.5897   -4.5797 C.2        1 <1>        0.000
      6 C7         -6.6476   -1.7864   -5.8631 C.2        1 <1>        0.000
      7 C8         -6.9338   -0.8169   -6.7461 C.2        1 <1>        0.000
      8 C9         -7.5797   -1.0391   -8.0509 C.2        1 <1>        0.000
      9 C10        -7.1297   -1.8495   -9.0271 C.2        1 <1>        0.000
     10 C11        -5.9189   -2.6814   -9.0033 C.2        1 <1>        0.000
     11 C12        -5.5650   -3.5336   -9.9783 C.2        1 <1>        0.000
     12 C13        -4.3496   -4.3553   -9.9438 C.2        1 <1>        0.000
     13 C14        -3.2355   -3.9871   -9.2982 C.2        1 <1>        0.000
     14 H          -4.1176   -0.9912   -1.1556 H.spc      1 <1>        0.000
     15 H          -4.9408   -0.3253   -2.5699 H.spc      1 <1>        0.000
     16 H          -5.6625   -3.6045   -4.1320 H.spc      1 <1>        0.000
     17 H          -5.8237   -0.5654   -4.2352 H.spc      1 <1>        0.000
     18 H          -6.9461   -2.8025   -6.1209 H.spc      1 <1>        0.000
     19 H          -6.6698    0.2063   -6.4788 H.spc      1 <1>        0.000
     20 H          -8.5062   -0.4983   -8.2437 H.spc      1 <1>        0.000
     21 H          -7.7301   -1.8934   -9.9358 H.spc      1 <1>        0.000
     22 H          -5.2640   -2.6012   -8.1357 H.spc      1 <1>        0.000
     23 H          -6.2186   -3.6203  -10.8463 H.spc      1 <1>        0.000
     24 H          -4.3538   -5.3107  -10.4685 H.spc      1 <1>        0.000
     25 H          -3.2033   -3.0369   -8.7651 H.spc      1 <1>        0.000
     26 H          -2.3609   -4.6376   -9.3058 H.spc      1 <1>        0.000
@<TRIPOS>BOND
     1    4    5 2  
     2   10   11 2  
     3    1    2 am 
     4   12   13 2  
     5    8    9 2  
     6    9   10 1  
     7   11   12 1  
     8    7    8 1  
     9    2    4 1  
    10    6    7 2  
    11    2    3 2  
    12    5    6 1  
    13    1   14 1  
    14    1   15 1  
    15    4   16 1  
    16    5   17 1  
    17    6   18 1  
    18    7   19 1  
    19    8   20 1  
    20    9   21 1  
    21   10   22 1  
    22   11   23 1  
    23   12   24 1  
    24   13   25 1  
    25   13   26 1  
# Name:          frag3-176-9/31924
# Creation time: Sat Jun  5 12:52:07 2010


@<TRIPOS>MOLECULE
frag3-176-9/31924
   26    25     1     1     1
SMALL
USER_CHARGES


@<TRIPOS>ATOM
      1 N1         -4.1341   -1.2251   -1.2797 N.am       1 <1>        0.000
      2 C4         -4.9534   -1.9488   -2.0729 C.2        1 <1>        0.000
      3 O2         -5.3223   -3.0686   -1.7526 O.2        1 <1>        0.000
      4 C5         -5.4231   -1.3802   -3.3527 C.2        1 <1>        0.000
      5 C6         -6.1872   -2.0353   -4.2449 C.2        1 <1>        0.000
      6 C7         -6.6749   -1.4694   -5.5051 C.2        1 <1>        0.000
      7 C8         -6.8210   -2.1443   -6.6554 C.2        1 <1>        0.000
      8 C9         -7.3477   -1.5697   -7.9032 C.2        1 <1>        0.000
      9 C10        -7.0224   -1.9423   -9.1533 C.2        1 <1>        0.000
     10 C11        -6.0823   -3.0001   -9.5429 C.2        1 <1>        0.000
     11 C12        -4.7828   -2.7971   -9.8173 C.2        1 <1>        0.000
     12 C13        -3.8508   -3.8620  -10.1987 C.2        1 <1>        0.000
     13 C14        -4.0285   -4.6434  -11.2708 C.2        1 <1>        0.000
     14 H          -3.8106   -1.6115   -0.3929 H.spc      1 <1>        0.000
     15 H          -3.8389   -0.2921   -1.5675 H.spc      1 <1>        0.000
     16 H          -5.1298   -0.3578   -3.5908 H.spc      1 <1>        0.000
     17 H          -6.4642   -3.0637   -4.0131 H.spc      1 <1>        0.000
     18 H          -6.9411   -0.4124   -5.5085 H.spc      1 <1>        0.000
     19 H          -6.5283   -3.1942   -6.6663 H.spc      1 <1>        0.000
     20 H          -8.0732   -0.7623   -7.8044 H.spc      1 <1>        0.000
     21 H          -7.5090   -1.4008   -9.9646 H.spc      1 <1>        0.000
     22 H          -6.4640   -4.0186   -9.6144 H.spc      1 <1>        0.000
     23 H          -4.3986   -1.7791   -9.7524 H.spc      1 <1>        0.000
     24 H          -2.9694   -4.0257   -9.5787 H.spc      1 <1>        0.000
     25 H          -4.9007   -4.5027  -11.9092 H.spc      1 <1>        0.000
     26 H          -3.3010   -5.4204  -11.5055 H.spc      1 <1>        0.000
@<TRIPOS>BOND
     1    4    5 2  
     2   10   11 2  
     3    1    2 am 
     4   12   13 2  
     5    8    9 2  
     6    9   10 1  
     7   11   12 1  
     8    7    8 1  
     9    2    4 1  
    10    6    7 2  
    11    2    3 2  
    12    5    6 1  
    13    1   14 1  
    14    1   15 1  
    15    4   16 1  
    16    5   17 1  
    17    6   18 1  
    18    7   19 1  
    19    8   20 1  
    20    9   21 1  
    21   10   22 1  
    22   11   23 1  
    23   12   24 1  
    24   13   25 1  
    25   13   26 1  
# Name:          frag3-176-9/31924
# Creation time: Sat Jun  5 12:52:07 2010


@<TRIPOS>MOLECULE
frag3-176-9/31924
   26    25     1     1     1
SMALL
USER_CHARGES


@<TRIPOS>ATOM
      1 N1         -3.9631   -2.5941   -2.0915 N.am       1 <1>        0.000
      2 C4         -5.1493   -1.9824   -1.8904 C.2        1 <1>        0.000
      3 O2         -5.5213   -1.6696   -0.7673 O.2        1 <1>        0.000
      4 C5         -6.0258   -1.6733   -3.0396 C.2        1 <1>        0.000
      5 C6         -5.6404   -1.7158   -4.3256 C.2        1 <1>        0.000
      6 C7         -6.5180   -1.4329   -5.4698 C.2        1 <1>        0.000
      7 C8         -6.3761   -1.9538   -6.6975 C.2        1 <1>        0.000
      8 C9         -7.2921   -1.6941   -7.8238 C.2        1 <1>        0.000
      9 C10        -7.0005   -1.8099   -9.1308 C.2        1 <1>        0.000
     10 C11        -5.7184   -2.2372   -9.7149 C.2        1 <1>        0.000
     11 C12        -5.3626   -3.5196   -9.8880 C.2        1 <1>        0.000
     12 C13        -4.0820   -3.9393  -10.4752 C.2        1 <1>        0.000
     13 C14        -3.9808   -4.8643  -11.4349 C.2        1 <1>        0.000
     14 H          -3.3569   -2.8045   -1.2986 H.spc      1 <1>        0.000
     15 H          -3.6729   -2.8460   -3.0363 H.spc      1 <1>        0.000
     16 H          -7.0573   -1.3911   -2.8287 H.spc      1 <1>        0.000
     17 H          -4.6036   -1.9787   -4.5353 H.spc      1 <1>        0.000
     18 H          -7.3490   -0.7463   -5.3081 H.spc      1 <1>        0.000
     19 H          -5.5267   -2.6134   -6.8748 H.spc      1 <1>        0.000
     20 H          -8.3042   -1.3774   -7.5718 H.spc      1 <1>        0.000
     21 H          -7.7971   -1.5613   -9.8320 H.spc      1 <1>        0.000
     22 H          -5.0151   -1.4647  -10.0258 H.spc      1 <1>        0.000
     23 H          -6.0631   -4.2940   -9.5754 H.spc      1 <1>        0.000
     24 H          -3.1677   -3.4721  -10.1092 H.spc      1 <1>        0.000
     25 H          -4.8773   -5.3492  -11.8212 H.spc      1 <1>        0.000
     26 H          -3.0018   -5.1337  -11.8311 H.spc      1 <1>        0.000
@<TRIPOS>BOND
     1    4    5 2  
     2   10   11 2  
     3    1    2 am 
     4   12   13 2  
     5    8    9 2  
     6    9   10 1  
     7   11   12 1  
     8    7    8 1  
     9    2    4 1  
    10    6    7 2  
    11    2    3 2  
    12    5    6 1  
    13    1   14 1  
    14    1   15 1  
    15    4   16 1  
    16    5   17 1  
    17    6   18 1  
    18    7   19 1  
    19    8   20 1  
    20    9   21 1  
    21   10   22 1  
    22   11   23 1  
    23   12   24 1  
    24   13   25 1  
    25   13   26 1  
# Name:          frag3-176-9/31924
# Creation time: Sat Jun  5 12:52:07 2010


@<TRIPOS>MOLECULE
frag3-176-9/31924
   26    25     1     1     1
SMALL
USER_CHARGES


@<TRIPOS>ATOM
      1 N1         -3.5547   -2.8604   -2.6732 N.am       1 <1>        0.000
      2 C4         -4.7095   -2.1633   -2.6213 C.2        1 <1>        0.000
      3 O2         -5.2164   -1.8514   -1.5532 O.2        1 <1>        0.000
      4 C5         -5.3774   -1.7553   -3.8729 C.2        1 <1>        0.000
      5 C6         -6.6185   -2.1282   -4.2340 C.2        1 <1>        0.000
      6 C7         -7.2893   -1.7049   -5.4667 C.2        1 <1>        0.000
      7 C8         -6.7182   -1.6681   -6.6826 C.2        1 <1>        0.000
      8 C9         -7.4107   -1.2798   -7.9211 C.2        1 <1>        0.000
      9 C10        -6.9480   -1.4284   -9.1749 C.2        1 <1>        0.000
     10 C11        -5.6672   -2.0235   -9.5778 C.2        1 <1>        0.000
     11 C12        -5.4210   -3.3432   -9.6039 C.2        1 <1>        0.000
     12 C13        -4.1397   -3.9313  -10.0055 C.2        1 <1>        0.000
     13 C14        -3.5596   -4.9485   -9.3624 C.2        1 <1>        0.000
     14 H          -3.0871   -3.1377   -1.8101 H.spc      1 <1>        0.000
     15 H          -3.1497   -3.1099   -3.5755 H.spc      1 <1>        0.000
     16 H          -4.8259   -1.1058   -4.5527 H.spc      1 <1>        0.000
     17 H          -7.1636   -2.7918   -3.5627 H.spc      1 <1>        0.000
     18 H          -8.3319   -1.3961   -5.3913 H.spc      1 <1>        0.000
     19 H          -5.6668   -1.9458   -6.7565 H.spc      1 <1>        0.000
     20 H          -8.3961   -0.8269   -7.8116 H.spc      1 <1>        0.000
     21 H          -7.5920   -1.0690   -9.9775 H.spc      1 <1>        0.000
     22 H          -4.8637   -1.3496   -9.8752 H.spc      1 <1>        0.000
     23 H          -6.2235   -4.0190   -9.3082 H.spc      1 <1>        0.000
     24 H          -3.6326   -3.5160  -10.8764 H.spc      1 <1>        0.000
     25 H          -4.0412   -5.3861   -8.4879 H.spc      1 <1>        0.000
     26 H          -2.6047   -5.3408   -9.7122 H.spc      1 <1>        0.000
@<TRIPOS>BOND
     1    4    5 2  
     2   10   11 2  
     3    1    2 am 
     4   12   13 2  
     5    8    9 2  
     6    9   10 1  
     7   11   12 1  
     8    7    8 1  
     9    2    4 1  
    10    6    7 2  
    11    2    3 2  
    12    5    6 1  
    13    1   14 1  
    14    1   15 1  
    15    4   16 1  
    16    5   17 1  
    17    6   18 1  
    18    7   19 1  
    19    8   20 1  
    20    9   21 1  
    21   10   22 1  
    22   11   23 1  
    23   12   24 1  
    24   13   25 1  
    25   13   26 1  
# Name:          frag3-176-9/31924
# Creation time: Sat Jun  5 12:52:07 2010


@<TRIPOS>MOLECULE
frag3-176-9/31924
   26    25     1     1     1
SMALL
USER_CHARGES


@<TRIPOS>ATOM
      1 N1         -4.4384   -3.2326   -2.2832 N.am       1 <1>        0.000
      2 C4         -4.9968   -2.0223   -2.4867 C.2        1 <1>        0.000
      3 O2         -4.9229   -1.1375   -1.6432 O.2        1 <1>        0.000
      4 C5         -5.7111   -1.7408   -3.7475 C.2        1 <1>        0.000
      5 C6         -5.7303   -2.5573   -4.8155 C.2        1 <1>        0.000
      6 C7         -6.4566   -2.2859   -6.0580 C.2        1 <1>        0.000
      7 C8         -6.5039   -1.0942   -6.6804 C.2        1 <1>        0.000
      8 C9         -7.2033   -0.8413   -7.9499 C.2        1 <1>        0.000
      9 C10        -7.1327   -1.6077   -9.0572 C.2        1 <1>        0.000
     10 C11        -6.3540   -2.8412   -9.2284 C.2        1 <1>        0.000
     11 C12        -5.0189   -2.9174   -9.0912 C.2        1 <1>        0.000
     12 C13        -4.2484   -4.1530   -9.2573 C.2        1 <1>        0.000
     13 C14        -3.9131   -4.6551  -10.4509 C.2        1 <1>        0.000
     14 H          -3.9424   -3.4256   -1.4131 H.spc      1 <1>        0.000
     15 H          -4.5120   -3.9552   -2.9994 H.spc      1 <1>        0.000
     16 H          -6.2628   -0.8033   -3.8177 H.spc      1 <1>        0.000
     17 H          -5.1652   -3.4872   -4.7521 H.spc      1 <1>        0.000
     18 H          -7.0008   -3.1132   -6.5135 H.spc      1 <1>        0.000
     19 H          -5.9876   -0.2568   -6.2110 H.spc      1 <1>        0.000
     20 H          -7.8354    0.0453   -7.9999 H.spc      1 <1>        0.000
     21 H          -7.7156   -1.2765   -9.9167 H.spc      1 <1>        0.000
     22 H          -6.8933   -3.7535   -9.4831 H.spc      1 <1>        0.000
     23 H          -4.4768   -2.0054   -8.8414 H.spc      1 <1>        0.000
     24 H          -3.9326   -4.6900   -8.3629 H.spc      1 <1>        0.000
     25 H          -4.2148   -4.1402  -11.3630 H.spc      1 <1>        0.000
     26 H          -3.3381   -5.5791  -10.5114 H.spc      1 <1>        0.000
@<TRIPOS>BOND
     1    4    5 2  
     2   10   11 2  
     3    1    2 am 
     4   12   13 2  
     5    8    9 2  
     6    9   10 1  
     7   11   12 1  
     8    7    8 1  
     9    2    4 1  
    10    6    7 2  
    11    2    3 2  
    12    5    6 1  
    13    1   14 1  
    14    1   15 1  
    15    4   16 1  
    16    5   17 1  
    17    6   18 1  
    18    7   19 1  
    19    8   20 1  
    20    9   21 1  
    21   10   22 1  
    22   11   23 1  
    23   12   24 1  
    24   13   25 1  
    25   13   26 1  
# Name:          frag3-176-9/31924
# Creation time: Sat Jun  5 12:52:07 2010


@<TRIPOS>MOLECULE
frag3-176-9/31924
   26    25     1     1     1
SMALL
USER_CHARGES


@<TRIPOS>ATOM
      1 N1         -4.1412   -1.4042   -2.1367 N.am       1 <1>        0.000
      2 C4         -4.8398   -2.4314   -2.6600 C.2        1 <1>        0.000
      3 O2         -4.8571   -3.5304   -2.1201 O.2        1 <1>        0.000
      4 C5         -5.6047   -2.2434   -3.9078 C.2        1 <1>        0.000
      5 C6         -6.1389   -1.0753   -4.3103 C.2        1 <1>        0.000
      6 C7         -6.8792   -0.8861   -5.5591 C.2        1 <1>        0.000
      7 C8         -6.6920   -1.5977   -6.6839 C.2        1 <1>        0.000
      8 C9         -7.4687   -1.4319   -7.9209 C.2        1 <1>        0.000
      9 C10        -7.2723   -2.0823   -9.0822 C.2        1 <1>        0.000
     10 C11        -6.2493   -3.0964   -9.3595 C.2        1 <1>        0.000
     11 C12        -4.9422   -2.9516   -9.0760 C.2        1 <1>        0.000
     12 C13        -3.9269   -3.9700   -9.3494 C.2        1 <1>        0.000
     13 C14        -3.6181   -4.3856  -10.5834 C.2        1 <1>        0.000
     14 H          -3.6128   -1.5339   -1.2740 H.spc      1 <1>        0.000
     15 H          -4.1410   -0.4973   -2.6035 H.spc      1 <1>        0.000
     16 H          -5.7474   -3.1128   -4.5496 H.spc      1 <1>        0.000
     17 H          -6.0113   -0.2093   -3.6608 H.spc      1 <1>        0.000
     18 H          -7.6417   -0.1074   -5.5782 H.spc      1 <1>        0.000
     19 H          -5.9065   -2.3533   -6.6784 H.spc      1 <1>        0.000
     20 H          -8.2851   -0.7101   -7.8947 H.spc      1 <1>        0.000
     21 H          -7.9436   -1.8292   -9.9028 H.spc      1 <1>        0.000
     22 H          -6.5691   -4.0283   -9.8258 H.spc      1 <1>        0.000
     23 H          -4.6193   -2.0185   -8.6143 H.spc      1 <1>        0.000
     24 H          -3.3961   -4.4117   -8.5061 H.spc      1 <1>        0.000
     25 H          -4.1325   -3.9618  -11.4459 H.spc      1 <1>        0.000
     26 H          -2.8522   -5.1480  -10.7260 H.spc      1 <1>        0.000
@<TRIPOS>BOND
     1    4    5 2  
     2   10   11 2  
     3    1    2 am 
     4   12   13 2  
     5    8    9 2  
     6    9   10 1  
     7   11   12 1  
     8    7    8 1  
     9    2    4 1  
    10    6    7 2  
    11    2    3 2  
    12    5    6 1  
    13    1   14 1  
    14    1   15 1  
    15    4   16 1  
    16    5   17 1  
    17    6   18 1  
    18    7   19 1  
    19    8   20 1  
    20    9   21 1  
    21   10   22 1  
    22   11   23 1  
    23   12   24 1  
    24   13   25 1  
    25   13   26 1  
# Name:          frag3-176-9/31924
# Creation time: Sat Jun  5 12:52:07 2010


@<TRIPOS>MOLECULE
frag3-176-9/31924
   26    25     1     1     1
SMALL
USER_CHARGES


@<TRIPOS>ATOM
      1 N1         -4.7933   -0.9500   -1.2896 N.am       1 <1>        0.000
      2 C4         -5.2111   -1.9326   -2.1159 C.2        1 <1>        0.000
      3 O2         -5.1946   -3.1048   -1.7688 O.2        1 <1>        0.000
      4 C5         -5.7089   -1.5955   -3.4645 C.2        1 <1>        0.000
      5 C6         -5.1966   -2.0792   -4.6110 C.2        1 <1>        0.000
      6 C7         -5.7090   -1.7636   -5.9477 C.2        1 <1>        0.000
      7 C8         -7.0022   -1.8231   -6.3123 C.2        1 <1>        0.000
      8 C9         -7.5115   -1.4610   -7.6449 C.2        1 <1>        0.000
      9 C10        -7.0501   -1.9270   -8.8203 C.2        1 <1>        0.000
     10 C11        -5.9685   -2.8998   -9.0275 C.2        1 <1>        0.000
     11 C12        -5.5265   -3.2985  -10.2289 C.2        1 <1>        0.000
     12 C13        -4.4407   -4.2649  -10.4247 C.2        1 <1>        0.000
     13 C14        -3.3174   -3.9866  -11.0933 C.2        1 <1>        0.000
     14 H          -4.4552   -1.1790   -0.3549 H.spc      1 <1>        0.000
     15 H          -4.8158    0.0214   -1.6000 H.spc      1 <1>        0.000
     16 H          -6.5504   -0.9065   -3.5364 H.spc      1 <1>        0.000
     17 H          -4.3418   -2.7519   -4.5409 H.spc      1 <1>        0.000
     18 H          -4.9865   -1.4572   -6.7042 H.spc      1 <1>        0.000
     19 H          -7.7234   -2.1632   -5.5691 H.spc      1 <1>        0.000
     20 H          -8.3375   -0.7508   -7.6834 H.spc      1 <1>        0.000
     21 H          -7.5322   -1.5399   -9.7180 H.spc      1 <1>        0.000
     22 H          -5.4931   -3.3264   -8.1443 H.spc      1 <1>        0.000
     23 H          -6.0034   -2.8786  -11.1145 H.spc      1 <1>        0.000
     24 H          -4.5560   -5.2632  -10.0025 H.spc      1 <1>        0.000
     25 H          -3.1724   -2.9973  -11.5273 H.spc      1 <1>        0.000
     26 H          -2.5463   -4.7489  -11.2046 H.spc      1 <1>        0.000
@<TRIPOS>BOND
     1    4    5 2  
     2   10   11 2  
     3    1    2 am 
     4   12   13 2  
     5    8    9 2  
     6    9   10 1  
     7   11   12 1  
     8    7    8 1  
     9    2    4 1  
    10    6    7 2  
    11    2    3 2  
    12    5    6 1  
    13    1   14 1  
    14    1   15 1  
    15    4   16 1  
    16    5   17 1  
    17    6   18 1  
    18    7   19 1  
    19    8   20 1  
    20    9   21 1  
    21   10   22 1  
    22   11   23 1  
    23   12   24 1  
    24   13   25 1  
    25   13   26 1  
# Name:          frag3-176-9/31924
# Creation time: Sat Jun  5 12:52:07 2010


@<TRIPOS>MOLECULE
frag3-176-9/31924
   26    25     1     1     1
SMALL
USER_CHARGES


@<TRIPOS>ATOM
      1 N1         -5.5971   -2.1458   -1.3730 N.am       1 <1>        0.000
      2 C4         -4.9165   -2.0849   -2.5369 C.2        1 <1>        0.000
      3 O2         -3.7143   -2.3002   -2.5834 O.2        1 <1>        0.000
      4 C5         -5.6296   -1.7519   -3.7858 C.2        1 <1>        0.000
      5 C6         -5.7306   -2.5702   -4.8499 C.2        1 <1>        0.000
      6 C7         -6.4547   -2.2481   -6.0804 C.2        1 <1>        0.000
      7 C8         -6.4716   -1.0411   -6.6754 C.2        1 <1>        0.000
      8 C9         -7.1690   -0.7370   -7.9331 C.2        1 <1>        0.000
      9 C10        -7.2048   -1.5259   -9.0264 C.2        1 <1>        0.000
     10 C11        -6.5643   -2.8360   -9.1916 C.2        1 <1>        0.000
     11 C12        -5.2451   -3.0193   -9.3613 C.2        1 <1>        0.000
     12 C13        -4.6093   -4.3294   -9.5167 C.2        1 <1>        0.000
     13 C14        -3.3234   -4.4964   -9.8354 C.2        1 <1>        0.000
     14 H          -5.1082   -2.3754   -0.5077 H.spc      1 <1>        0.000
     15 H          -6.6003   -1.9622   -1.3586 H.spc      1 <1>        0.000
     16 H          -6.1080   -0.7747   -3.8509 H.spc      1 <1>        0.000
     17 H          -5.2385   -3.5410   -4.7910 H.spc      1 <1>        0.000
     18 H          -7.0249   -3.0485   -6.5518 H.spc      1 <1>        0.000
     19 H          -5.9288   -0.2303   -6.1895 H.spc      1 <1>        0.000
     20 H          -7.7050    0.2106   -7.9869 H.spc      1 <1>        0.000
     21 H          -7.7703   -1.1500   -9.8791 H.spc      1 <1>        0.000
     22 H          -7.2024   -3.7195   -9.1754 H.spc      1 <1>        0.000
     23 H          -4.6064   -2.1364   -9.3849 H.spc      1 <1>        0.000
     24 H          -5.2206   -5.2188   -9.3635 H.spc      1 <1>        0.000
     25 H          -2.6844   -3.6280   -9.9955 H.spc      1 <1>        0.000
     26 H          -2.9128   -5.5011   -9.9355 H.spc      1 <1>        0.000
@<TRIPOS>BOND
     1    4    5 2  
     2   10   11 2  
     3    1    2 am 
     4   12   13 2  
     5    8    9 2  
     6    9   10 1  
     7   11   12 1  
     8    7    8 1  
     9    2    4 1  
    10    6    7 2  
    11    2    3 2  
    12    5    6 1  
    13    1   14 1  
    14    1   15 1  
    15    4   16 1  
    16    5   17 1  
    17    6   18 1  
    18    7   19 1  
    19    8   20 1  
    20    9   21 1  
    21   10   22 1  
    22   11   23 1  
    23   12   24 1  
    24   13   25 1  
    25   13   26 1  
# Name:          frag3-176-9/31924
# Creation time: Sat Jun  5 12:52:07 2010


@<TRIPOS>MOLECULE
frag3-176-9/31924
   26    25     1     1     1
SMALL
USER_CHARGES


@<TRIPOS>ATOM
      1 N1         -3.9569   -1.5271   -1.8867 N.am       1 <1>        0.000
      2 C4         -4.7011   -2.2666   -2.7368 C.2        1 <1>        0.000
      3 O2         -5.1060   -3.3769   -2.4270 O.2        1 <1>        0.000
      4 C5         -5.0411   -1.7277   -4.0689 C.2        1 <1>        0.000
      5 C6         -6.0597   -2.1621   -4.8326 C.2        1 <1>        0.000
      6 C7         -6.4164   -1.6171   -6.1428 C.2        1 <1>        0.000
      7 C8         -7.4702   -1.9934   -6.8846 C.2        1 <1>        0.000
      8 C9         -7.8366   -1.4057   -8.1817 C.2        1 <1>        0.000
      9 C10        -7.1197   -1.4884   -9.3203 C.2        1 <1>        0.000
     10 C11        -5.8505   -2.1984   -9.5106 C.2        1 <1>        0.000
     11 C12        -5.5791   -3.4149   -9.0042 C.2        1 <1>        0.000
     12 C13        -4.3107   -4.1188   -9.1959 C.2        1 <1>        0.000
     13 C14        -3.1824   -3.7892   -8.5572 C.2        1 <1>        0.000
     14 H          -3.7218   -1.8930   -0.9641 H.spc      1 <1>        0.000
     15 H          -3.6298   -0.6026   -2.1672 H.spc      1 <1>        0.000
     16 H          -4.4227   -0.9204   -4.4613 H.spc      1 <1>        0.000
     17 H          -6.6651   -2.9820   -4.4462 H.spc      1 <1>        0.000
     18 H          -5.7715   -0.8392   -6.5515 H.spc      1 <1>        0.000
     19 H          -8.1006   -2.7935   -6.4968 H.spc      1 <1>        0.000
     20 H          -8.7745   -0.8521   -8.2267 H.spc      1 <1>        0.000
     21 H          -7.5259   -0.9736  -10.1910 H.spc      1 <1>        0.000
     22 H          -5.0764   -1.7083  -10.1010 H.spc      1 <1>        0.000
     23 H          -6.3524   -3.9069   -8.4142 H.spc      1 <1>        0.000
     24 H          -4.2838   -4.9546   -9.8950 H.spc      1 <1>        0.000
     25 H          -3.1782   -2.9580   -7.8521 H.spc      1 <1>        0.000
     26 H          -2.2673   -4.3518   -8.7419 H.spc      1 <1>        0.000
@<TRIPOS>BOND
     1    4    5 2  
     2   10   11 2  
     3    1    2 am 
     4   12   13 2  
     5    8    9 2  
     6    9   10 1  
     7   11   12 1  
     8    7    8 1  
     9    2    4 1  
    10    6    7 2  
    11    2    3 2  
    12    5    6 1  
    13    1   14 1  
    14    1   15 1  
    15    4   16 1  
    16    5   17 1  
    17    6   18 1  
    18    7   19 1  
    19    8   20 1  
    20    9   21 1  
    21   10   22 1  
    22   11   23 1  
    23   12   24 1  
    24   13   25 1  
    25   13   26 1  
# Name:          frag3-176-9/31924
# Creation time: Sat Jun  5 12:52:07 2010


@<TRIPOS>MOLECULE
frag3-176-9/31924
   26    25     1     1     1
SMALL
USER_CHARGES


@<TRIPOS>ATOM
      1 N1         -4.1275   -1.4661   -2.2109 N.am       1 <1>        0.000
      2 C4         -4.7875   -2.5072   -2.7577 C.2        1 <1>        0.000
      3 O2         -4.7232   -3.6285   -2.2698 O.2        1 <1>        0.000
      4 C5         -5.6111   -2.3069   -3.9662 C.2        1 <1>        0.000
      5 C6         -5.9679   -1.1076   -4.4596 C.2        1 <1>        0.000
      6 C7         -6.7668   -0.9118   -5.6729 C.2        1 <1>        0.000
      7 C8         -6.8585   -1.7911   -6.6855 C.2        1 <1>        0.000
      8 C9         -7.6965   -1.6057   -7.8806 C.2        1 <1>        0.000
      9 C10        -7.3156   -1.7883   -9.1578 C.2        1 <1>        0.000
     10 C11        -5.9969   -2.2320   -9.6288 C.2        1 <1>        0.000
     11 C12        -5.4303   -3.4028   -9.2934 C.2        1 <1>        0.000
     12 C13        -4.1136   -3.8419   -9.7654 C.2        1 <1>        0.000
     13 C14        -3.2351   -4.4965   -9.0008 C.2        1 <1>        0.000
     14 H          -3.5606   -1.6043   -1.3743 H.spc      1 <1>        0.000
     15 H          -4.1952   -0.5404   -2.6339 H.spc      1 <1>        0.000
     16 H          -5.9548   -3.1948   -4.4969 H.spc      1 <1>        0.000
     17 H          -5.6401   -0.2193   -3.9196 H.spc      1 <1>        0.000
     18 H          -7.3294    0.0177   -5.7607 H.spc      1 <1>        0.000
     19 H          -6.2704   -2.7062   -6.6164 H.spc      1 <1>        0.000
     20 H          -8.7264   -1.2896   -7.7149 H.spc      1 <1>        0.000
     21 H          -8.0642   -1.5857   -9.9237 H.spc      1 <1>        0.000
     22 H          -5.4427   -1.5688  -10.2929 H.spc      1 <1>        0.000
     23 H          -5.9834   -4.0672   -8.6295 H.spc      1 <1>        0.000
     24 H          -3.8362   -3.6223  -10.7964 H.spc      1 <1>        0.000
     25 H          -3.4823   -4.7312   -7.9655 H.spc      1 <1>        0.000
     26 H          -2.2712   -4.7959   -9.4123 H.spc      1 <1>        0.000
@<TRIPOS>BOND
     1    4    5 2  
     2   10   11 2  
     3    1    2 am 
     4   12   13 2  
     5    8    9 2  
     6    9   10 1  
     7   11   12 1  
     8    7    8 1  
     9    2    4 1  
    10    6    7 2  
    11    2    3 2  
    12    5    6 1  
    13    1   14 1  
    14    1   15 1  
    15    4   16 1  
    16    5   17 1  
    17    6   18 1  
    18    7   19 1  
    19    8   20 1  
    20    9   21 1  
    21   10   22 1  
    22   11   23 1  
    23   12   24 1  
    24   13   25 1  
    25   13   26 1  
# Name:          frag3-176-9/31924
# Creation time: Sat Jun  5 12:52:07 2010


@<TRIPOS>MOLECULE
frag3-176-9/31924
   26    25     1     1     1
SMALL
USER_CHARGES


@<TRIPOS>ATOM
      1 N1         -3.5482   -3.2071   -2.6635 N.am       1 <1>        0.000
      2 C4         -4.6403   -2.4831   -2.9910 C.2        1 <1>        0.000
      3 O2         -5.1677   -1.7290   -2.1872 O.2        1 <1>        0.000
      4 C5         -5.2135   -2.5962   -4.3475 C.2        1 <1>        0.000
      5 C6         -6.2222   -1.8387   -4.8160 C.2        1 <1>        0.000
      6 C7         -6.7759   -1.9275   -6.1686 C.2        1 <1>        0.000
      7 C8         -7.2713   -0.8996   -6.8763 C.2        1 <1>        0.000
      8 C9         -7.7816   -0.9989   -8.2526 C.2        1 <1>        0.000
      9 C10        -7.1101   -1.4953   -9.3108 C.2        1 <1>        0.000
     10 C11        -5.7498   -2.0479   -9.3144 C.2        1 <1>        0.000
     11 C12        -5.4329   -3.2830   -8.8932 C.2        1 <1>        0.000
     12 C13        -4.0735   -3.8292   -8.8970 C.2        1 <1>        0.000
     13 C14        -3.6435   -4.7509   -8.0312 C.2        1 <1>        0.000
     14 H          -3.1471   -3.1306   -1.7288 H.spc      1 <1>        0.000
     15 H          -3.1246   -3.8304   -3.3509 H.spc      1 <1>        0.000
     16 H          -4.7898   -3.3457   -5.0159 H.spc      1 <1>        0.000
     17 H          -6.6593   -1.1050   -4.1387 H.spc      1 <1>        0.000
     18 H          -6.7868   -2.9101   -6.6404 H.spc      1 <1>        0.000
     19 H          -7.2973    0.0788   -6.3966 H.spc      1 <1>        0.000
     20 H          -8.7943   -0.6384   -8.4329 H.spc      1 <1>        0.000
     21 H          -7.6334   -1.4854  -10.2669 H.spc      1 <1>        0.000
     22 H          -4.9438   -1.4136   -9.6834 H.spc      1 <1>        0.000
     23 H          -6.2378   -3.9193   -8.5253 H.spc      1 <1>        0.000
     24 H          -3.3739   -3.4629   -9.6484 H.spc      1 <1>        0.000
     25 H          -4.3180   -5.1380   -7.2675 H.spc      1 <1>        0.000
     26 H          -2.6181   -5.1160   -8.0884 H.spc      1 <1>        0.000
@<TRIPOS>BOND
     1    4    5 2  
     2   10   11 2  
     3    1    2 am 
     4   12   13 2  
     5    8    9 2  
     6    9   10 1  
     7   11   12 1  
     8    7    8 1  
     9    2    4 1  
    10    6    7 2  
    11    2    3 2  
    12    5    6 1  
    13    1   14 1  
    14    1   15 1  
    15    4   16 1  
    16    5   17 1  
    17    6   18 1  
    18    7   19 1  
    19    8   20 1  
    20    9   21 1  
    21   10   22 1  
    22   11   23 1  
    23   12   24 1  
    24   13   25 1  
    25   13   26 1  
# Name:          frag3-176-9/31924
# Creation time: Sat Jun  5 12:52:07 2010


@<TRIPOS>MOLECULE
frag3-176-9/31924
   26    25     1     1     1
SMALL
USER_CHARGES


@<TRIPOS>ATOM
      1 N1         -4.1457   -1.4700   -2.2880 N.am       1 <1>        0.000
      2 C4         -4.9214   -2.4652   -2.7613 C.2        1 <1>        0.000
      3 O2         -5.1302   -3.4777   -2.1050 O.2        1 <1>        0.000
      4 C5         -5.5430   -2.3452   -4.0945 C.2        1 <1>        0.000
      5 C6         -5.4362   -1.2715   -4.8976 C.2        1 <1>        0.000
      6 C7         -6.0361   -1.1619   -6.2266 C.2        1 <1>        0.000
      7 C8         -7.2382   -1.6557   -6.5771 C.2        1 <1>        0.000
      8 C9         -7.8504   -1.5082   -7.9045 C.2        1 <1>        0.000
      9 C10        -7.2734   -1.8242   -9.0808 C.2        1 <1>        0.000
     10 C11        -5.9428   -2.4043   -9.2830 C.2        1 <1>        0.000
     11 C12        -5.6345   -3.6955   -9.0653 C.2        1 <1>        0.000
     12 C13        -4.3018   -4.2651   -9.2694 C.2        1 <1>        0.000
     13 C14        -3.1766   -3.5418   -9.1962 C.2        1 <1>        0.000
     14 H          -3.7186   -1.5511   -1.3653 H.spc      1 <1>        0.000
     15 H          -3.9857   -0.6356   -2.8525 H.spc      1 <1>        0.000
     16 H          -6.1319   -3.1887   -4.4548 H.spc      1 <1>        0.000
     17 H          -4.8607   -0.4214   -4.5311 H.spc      1 <1>        0.000
     18 H          -5.4649   -0.6392   -6.9938 H.spc      1 <1>        0.000
     19 H          -7.7985   -2.2053   -5.8207 H.spc      1 <1>        0.000
     20 H          -8.8631   -1.1068   -7.9413 H.spc      1 <1>        0.000
     21 H          -7.8595   -1.6271   -9.9784 H.spc      1 <1>        0.000
     22 H          -5.1490   -1.7447   -9.6336 H.spc      1 <1>        0.000
     23 H          -6.4259   -4.3583   -8.7154 H.spc      1 <1>        0.000
     24 H          -4.2209   -5.3291   -9.4917 H.spc      1 <1>        0.000
     25 H          -3.2275   -2.4756   -8.9755 H.spc      1 <1>        0.000
     26 H          -2.2102   -4.0195   -9.3574 H.spc      1 <1>        0.000
@<TRIPOS>BOND
     1    4    5 2  
     2   10   11 2  
     3    1    2 am 
     4   12   13 2  
     5    8    9 2  
     6    9   10 1  
     7   11   12 1  
     8    7    8 1  
     9    2    4 1  
    10    6    7 2  
    11    2    3 2  
    12    5    6 1  
    13    1   14 1  
    14    1   15 1  
    15    4   16 1  
    16    5   17 1  
    17    6   18 1  
    18    7   19 1  
    19    8   20 1  
    20    9   21 1  
    21   10   22 1  
    22   11   23 1  
    23   12   24 1  
    24   13   25 1  
    25   13   26 1  
# Name:          frag3-176-9/31924
# Creation time: Sat Jun  5 12:52:08 2010


@<TRIPOS>MOLECULE
frag3-176-9/31924
   26    25     1     1     1
SMALL
USER_CHARGES


@<TRIPOS>ATOM
      1 N1         -3.6446   -1.8375   -1.8804 N.am       1 <1>        0.000
      2 C4         -4.7825   -2.2571   -2.4746 C.2        1 <1>        0.000
      3 O2         -5.6197   -2.9018   -1.8603 O.2        1 <1>        0.000
      4 C5         -5.0315   -1.9331   -3.8940 C.2        1 <1>        0.000
      5 C6         -6.2218   -1.5578   -4.3938 C.2        1 <1>        0.000
      6 C7         -6.4682   -1.2157   -5.7984 C.2        1 <1>        0.000
      7 C8         -7.4339   -1.7440   -6.5665 C.2        1 <1>        0.000
      8 C9         -7.6927   -1.3630   -7.9648 C.2        1 <1>        0.000
      9 C10        -7.0687   -1.8558   -9.0494 C.2        1 <1>        0.000
     10 C11        -6.0214   -2.8854   -9.0795 C.2        1 <1>        0.000
     11 C12        -5.2878   -3.1903  -10.1613 C.2        1 <1>        0.000
     12 C13        -4.2389   -4.2154  -10.1765 C.2        1 <1>        0.000
     13 C14        -3.1186   -4.1295   -9.4496 C.2        1 <1>        0.000
     14 H          -3.4703   -2.0575   -0.8998 H.spc      1 <1>        0.000
     15 H          -2.9595   -1.3006   -2.4123 H.spc      1 <1>        0.000
     16 H          -4.1912   -2.0032   -4.5847 H.spc      1 <1>        0.000
     17 H          -7.0649   -1.5039   -3.7050 H.spc      1 <1>        0.000
     18 H          -5.8146   -0.4727   -6.2554 H.spc      1 <1>        0.000
     19 H          -8.0715   -2.5091   -6.1237 H.spc      1 <1>        0.000
     20 H          -8.4624   -0.6108   -8.1372 H.spc      1 <1>        0.000
     21 H          -7.3737   -1.4461  -10.0123 H.spc      1 <1>        0.000
     22 H          -5.8269   -3.4393   -8.1611 H.spc      1 <1>        0.000
     23 H          -5.4832   -2.6434  -11.0837 H.spc      1 <1>        0.000
     24 H          -4.3788   -5.0904  -10.8112 H.spc      1 <1>        0.000
     25 H          -2.9515   -3.2660   -8.8058 H.spc      1 <1>        0.000
     26 H          -2.3732   -4.9231   -9.5013 H.spc      1 <1>        0.000
@<TRIPOS>BOND
     1    4    5 2  
     2   10   11 2  
     3    1    2 am 
     4   12   13 2  
     5    8    9 2  
     6    9   10 1  
     7   11   12 1  
     8    7    8 1  
     9    2    4 1  
    10    6    7 2  
    11    2    3 2  
    12    5    6 1  
    13    1   14 1  
    14    1   15 1  
    15    4   16 1  
    16    5   17 1  
    17    6   18 1  
    18    7   19 1  
    19    8   20 1  
    20    9   21 1  
    21   10   22 1  
    22   11   23 1  
    23   12   24 1  
    24   13   25 1  
    25   13   26 1  
# Name:          frag3-176-9/31924
# Creation time: Sat Jun  5 12:52:08 2010


@<TRIPOS>MOLECULE
frag3-176-9/31924
   26    25     1     1     1
SMALL
USER_CHARGES


@<TRIPOS>ATOM
      1 N1         -4.9524   -1.6825   -1.7037 N.am       1 <1>        0.000
      2 C4         -4.8760   -2.5248   -2.7535 C.2        1 <1>        0.000
      3 O2         -4.2177   -3.5551   -2.6976 O.2        1 <1>        0.000
      4 C5         -5.6061   -2.2165   -3.9983 C.2        1 <1>        0.000
      5 C6         -5.5735   -1.0294   -4.6318 C.2        1 <1>        0.000
      6 C7         -6.2794   -0.7334   -5.8803 C.2        1 <1>        0.000
      7 C8         -6.8631   -1.6490   -6.6739 C.2        1 <1>        0.000
      8 C9         -7.6057   -1.3403   -7.9039 C.2        1 <1>        0.000
      9 C10        -7.4678   -1.9520   -9.0944 C.2        1 <1>        0.000
     10 C11        -6.5600   -3.0590   -9.4152 C.2        1 <1>        0.000
     11 C12        -5.2239   -3.0052   -9.2869 C.2        1 <1>        0.000
     12 C13        -4.3218   -4.1158   -9.5983 C.2        1 <1>        0.000
     13 C14        -3.0828   -4.2232   -9.1117 C.2        1 <1>        0.000
     14 H          -4.4553   -1.8982   -0.8396 H.spc      1 <1>        0.000
     15 H          -5.5073   -0.8295   -1.7735 H.spc      1 <1>        0.000
     16 H          -6.2156   -3.0070   -4.4362 H.spc      1 <1>        0.000
     17 H          -4.9800   -0.2323   -4.1841 H.spc      1 <1>        0.000
     18 H          -6.3361    0.3100   -6.1905 H.spc      1 <1>        0.000
     19 H          -6.7793   -2.6963   -6.3836 H.spc      1 <1>        0.000
     20 H          -8.3402   -0.5370   -7.8461 H.spc      1 <1>        0.000
     21 H          -8.0969   -1.5865   -9.9061 H.spc      1 <1>        0.000
     22 H          -6.9989   -3.9868   -9.7821 H.spc      1 <1>        0.000
     23 H          -4.7830   -2.0752   -8.9280 H.spc      1 <1>        0.000
     24 H          -4.6820   -4.8993  -10.2651 H.spc      1 <1>        0.000
     25 H          -2.6919   -3.4570   -8.4423 H.spc      1 <1>        0.000
     26 H          -2.4625   -5.0771   -9.3840 H.spc      1 <1>        0.000
@<TRIPOS>BOND
     1    4    5 2  
     2   10   11 2  
     3    1    2 am 
     4   12   13 2  
     5    8    9 2  
     6    9   10 1  
     7   11   12 1  
     8    7    8 1  
     9    2    4 1  
    10    6    7 2  
    11    2    3 2  
    12    5    6 1  
    13    1   14 1  
    14    1   15 1  
    15    4   16 1  
    16    5   17 1  
    17    6   18 1  
    18    7   19 1  
    19    8   20 1  
    20    9   21 1  
    21   10   22 1  
    22   11   23 1  
    23   12   24 1  
    24   13   25 1  
    25   13   26 1  
# Name:          frag3-176-9/31924
# Creation time: Sat Jun  5 12:52:08 2010


@<TRIPOS>MOLECULE
frag3-176-9/31924
   26    25     1     1     1
SMALL
USER_CHARGES


@<TRIPOS>ATOM
      1 N1         -5.1188   -3.2358   -1.5302 N.am       1 <1>        0.000
      2 C4         -4.9119   -2.3708   -2.5459 C.2        1 <1>        0.000
      3 O2         -4.0321   -1.5249   -2.4917 O.2        1 <1>        0.000
      4 C5         -5.7586   -2.4464   -3.7528 C.2        1 <1>        0.000
      5 C6         -5.7130   -1.5732   -4.7758 C.2        1 <1>        0.000
      6 C7         -6.5295   -1.6541   -5.9853 C.2        1 <1>        0.000
      7 C8         -6.5434   -0.7566   -6.9833 C.2        1 <1>        0.000
      8 C9         -7.3396   -0.8757   -8.2115 C.2        1 <1>        0.000
      9 C10        -7.0339   -1.6344   -9.2829 C.2        1 <1>        0.000
     10 C11        -5.8635   -2.4981   -9.4461 C.2        1 <1>        0.000
     11 C12        -5.7109   -3.6967   -8.8532 C.2        1 <1>        0.000
     12 C13        -4.5374   -4.5524   -9.0225 C.2        1 <1>        0.000
     13 C14        -3.5378   -4.2671   -9.8680 C.2        1 <1>        0.000
     14 H          -4.5344   -3.1913   -0.6954 H.spc      1 <1>        0.000
     15 H          -5.8595   -3.9338   -1.5976 H.spc      1 <1>        0.000
     16 H          -6.4716   -3.2681   -3.8202 H.spc      1 <1>        0.000
     17 H          -5.0131   -0.7414   -4.6962 H.spc      1 <1>        0.000
     18 H          -7.1848   -2.5193   -6.0857 H.spc      1 <1>        0.000
     19 H          -5.9160    0.1279   -6.8738 H.spc      1 <1>        0.000
     20 H          -8.2623   -0.2976   -8.2613 H.spc      1 <1>        0.000
     21 H          -7.7338   -1.6011  -10.1178 H.spc      1 <1>        0.000
     22 H          -5.0597   -2.1461  -10.0927 H.spc      1 <1>        0.000
     23 H          -6.5128   -4.0519   -8.2059 H.spc      1 <1>        0.000
     24 H          -4.4726   -5.4666   -8.4324 H.spc      1 <1>        0.000
     25 H          -3.5760   -3.3597  -10.4707 H.spc      1 <1>        0.000
     26 H          -2.6865   -4.9424   -9.9531 H.spc      1 <1>        0.000
@<TRIPOS>BOND
     1    4    5 2  
     2   10   11 2  
     3    1    2 am 
     4   12   13 2  
     5    8    9 2  
     6    9   10 1  
     7   11   12 1  
     8    7    8 1  
     9    2    4 1  
    10    6    7 2  
    11    2    3 2  
    12    5    6 1  
    13    1   14 1  
    14    1   15 1  
    15    4   16 1  
    16    5   17 1  
    17    6   18 1  
    18    7   19 1  
    19    8   20 1  
    20    9   21 1  
    21   10   22 1  
    22   11   23 1  
    23   12   24 1  
    24   13   25 1  
    25   13   26 1  
# Name:          frag3-176-9/31924
# Creation time: Sat Jun  5 12:52:08 2010


@<TRIPOS>MOLECULE
frag3-176-9/31924
   26    25     1     1     1
SMALL
USER_CHARGES


@<TRIPOS>ATOM
      1 N1         -4.7733   -1.2963   -1.8350 N.am       1 <1>        0.000
      2 C4         -4.8469   -2.4135   -2.5877 C.2        1 <1>        0.000
      3 O2         -4.5519   -3.5097   -2.1296 O.2        1 <1>        0.000
      4 C5         -5.2943   -2.3297   -3.9931 C.2        1 <1>        0.000
      5 C6         -5.8641   -1.2480   -4.5500 C.2        1 <1>        0.000
      6 C7         -6.2912   -1.1575   -5.9503 C.2        1 <1>        0.000
      7 C8         -7.4497   -1.6337   -6.4363 C.2        1 <1>        0.000
      8 C9         -7.8827   -1.5018   -7.8382 C.2        1 <1>        0.000
      9 C10        -7.1307   -1.7578   -8.9249 C.2        1 <1>        0.000
     10 C11        -5.7413   -2.2392   -8.9485 C.2        1 <1>        0.000
     11 C12        -5.3211   -3.2997   -9.6532 C.2        1 <1>        0.000
     12 C13        -3.9316   -3.7733   -9.6721 C.2        1 <1>        0.000
     13 C14        -3.5517   -4.9259  -10.2305 C.2        1 <1>        0.000
     14 H          -4.4670   -1.3549   -0.8638 H.spc      1 <1>        0.000
     15 H          -5.0239   -0.3930   -2.2371 H.spc      1 <1>        0.000
     16 H          -5.1520   -3.2078   -4.6230 H.spc      1 <1>        0.000
     17 H          -6.0202   -0.3753   -3.9159 H.spc      1 <1>        0.000
     18 H          -5.6164   -0.6658   -6.6509 H.spc      1 <1>        0.000
     19 H          -8.1146   -2.1531   -5.7462 H.spc      1 <1>        0.000
     20 H          -8.9052   -1.1663   -8.0113 H.spc      1 <1>        0.000
     21 H          -7.6030   -1.5900   -9.8928 H.spc      1 <1>        0.000
     22 H          -5.0048   -1.6984   -8.3542 H.spc      1 <1>        0.000
     23 H          -6.0554   -3.8430  -10.2479 H.spc      1 <1>        0.000
     24 H          -3.1685   -3.1506   -9.2051 H.spc      1 <1>        0.000
     25 H          -4.2908   -5.5710  -10.7055 H.spc      1 <1>        0.000
     26 H          -2.5026   -5.2212  -10.2111 H.spc      1 <1>        0.000
@<TRIPOS>BOND
     1    4    5 2  
     2   10   11 2  
     3    1    2 am 
     4   12   13 2  
     5    8    9 2  
     6    9   10 1  
     7   11   12 1  
     8    7    8 1  
     9    2    4 1  
    10    6    7 2  
    11    2    3 2  
    12    5    6 1  
    13    1   14 1  
    14    1   15 1  
    15    4   16 1  
    16    5   17 1  
    17    6   18 1  
    18    7   19 1  
    19    8   20 1  
    20    9   21 1  
    21   10   22 1  
    22   11   23 1  
    23   12   24 1  
    24   13   25 1  
    25   13   26 1  
# Name:          frag3-176-9/31924
# Creation time: Sat Jun  5 12:52:08 2010


@<TRIPOS>MOLECULE
frag3-176-9/31924
   26    25     1     1     1
SMALL
USER_CHARGES


@<TRIPOS>ATOM
      1 N1         -3.7957   -1.7531   -2.1523 N.am       1 <1>        0.000
      2 C4         -5.0690   -2.1990   -2.1530 C.2        1 <1>        0.000
      3 O2         -5.5295   -2.8100   -1.1974 O.2        1 <1>        0.000
      4 C5         -5.9393   -1.9484   -3.3203 C.2        1 <1>        0.000
      5 C6         -5.5586   -1.2933   -4.4303 C.2        1 <1>        0.000
      6 C7         -6.4159   -1.0680   -5.5999 C.2        1 <1>        0.000
      7 C8         -6.5008   -1.8837   -6.6626 C.2        1 <1>        0.000
      8 C9         -7.4000   -1.6693   -7.8098 C.2        1 <1>        0.000
      9 C10        -7.2780   -2.2159   -9.0316 C.2        1 <1>        0.000
     10 C11        -6.2329   -3.1456   -9.4837 C.2        1 <1>        0.000
     11 C12        -5.2150   -2.8033  -10.2903 C.2        1 <1>        0.000
     12 C13        -4.1709   -3.7383  -10.7280 C.2        1 <1>        0.000
     13 C14        -3.5247   -4.5585   -9.8901 C.2        1 <1>        0.000
     14 H          -3.1963   -1.9230   -1.3447 H.spc      1 <1>        0.000
     15 H          -3.4324   -1.2461   -2.9594 H.spc      1 <1>        0.000
     16 H          -6.9627   -2.3213   -3.2783 H.spc      1 <1>        0.000
     17 H          -4.5419   -0.9019   -4.4642 H.spc      1 <1>        0.000
     18 H          -7.0315   -0.1685   -5.6062 H.spc      1 <1>        0.000
     19 H          -5.8603   -2.7655   -6.6778 H.spc      1 <1>        0.000
     20 H          -8.2473   -1.0019   -7.6522 H.spc      1 <1>        0.000
     21 H          -8.0350   -1.9403   -9.7658 H.spc      1 <1>        0.000
     22 H          -6.2876   -4.1793   -9.1423 H.spc      1 <1>        0.000
     23 H          -5.1609   -1.7723  -10.6400 H.spc      1 <1>        0.000
     24 H          -3.9094   -3.7659  -11.7858 H.spc      1 <1>        0.000
     25 H          -3.7658   -4.5521   -8.8271 H.spc      1 <1>        0.000
     26 H          -2.7575   -5.2327  -10.2709 H.spc      1 <1>        0.000
@<TRIPOS>BOND
     1    4    5 2  
     2   10   11 2  
     3    1    2 am 
     4   12   13 2  
     5    8    9 2  
     6    9   10 1  
     7   11   12 1  
     8    7    8 1  
     9    2    4 1  
    10    6    7 2  
    11    2    3 2  
    12    5    6 1  
    13    1   14 1  
    14    1   15 1  
    15    4   16 1  
    16    5   17 1  
    17    6   18 1  
    18    7   19 1  
    19    8   20 1  
    20    9   21 1  
    21   10   22 1  
    22   11   23 1  
    23   12   24 1  
    24   13   25 1  
    25   13   26 1  
# Name:          frag3-176-9/31924
# Creation time: Sat Jun  5 12:52:08 2010


@<TRIPOS>MOLECULE
frag3-176-9/31924
   26    25     1     1     1
SMALL
USER_CHARGES


@<TRIPOS>ATOM
      1 N1         -4.1456   -3.3674   -2.2296 N.am       1 <1>        0.000
      2 C4         -4.9885   -2.3165   -2.3203 C.2        1 <1>        0.000
      3 O2         -5.0852   -1.4986   -1.4174 O.2        1 <1>        0.000
      4 C5         -5.8143   -2.1415   -3.5325 C.2        1 <1>        0.000
      5 C6         -5.8524   -1.0200   -4.2750 C.2        1 <1>        0.000
      6 C7         -6.6522   -0.8549   -5.4928 C.2        1 <1>        0.000
      7 C8         -6.3792   -1.4216   -6.6794 C.2        1 <1>        0.000
      8 C9         -7.2156   -1.2872   -7.8830 C.2        1 <1>        0.000
      9 C10        -7.1294   -2.0284   -9.0008 C.2        1 <1>        0.000
     10 C11        -6.1935   -3.1296   -9.2625 C.2        1 <1>        0.000
     11 C12        -5.3662   -3.1863  -10.3185 C.2        1 <1>        0.000
     12 C13        -4.4274   -4.2859  -10.5646 C.2        1 <1>        0.000
     13 C14        -3.3810   -4.5486   -9.7729 C.2        1 <1>        0.000
     14 H          -3.5728   -3.4912   -1.3947 H.spc      1 <1>        0.000
     15 H          -4.0816   -4.0375   -2.9959 H.spc      1 <1>        0.000
     16 H          -6.4362   -2.9794   -3.8475 H.spc      1 <1>        0.000
     17 H          -5.2462   -0.1750   -3.9483 H.spc      1 <1>        0.000
     18 H          -7.5378   -0.2226   -5.4301 H.spc      1 <1>        0.000
     19 H          -5.4740   -2.0238   -6.7566 H.spc      1 <1>        0.000
     20 H          -7.9799   -0.5103   -7.8661 H.spc      1 <1>        0.000
     21 H          -7.8301   -1.7860   -9.7998 H.spc      1 <1>        0.000
     22 H          -6.1689   -3.9559   -8.5521 H.spc      1 <1>        0.000
     23 H          -5.3940   -2.3660  -11.0358 H.spc      1 <1>        0.000
     24 H          -4.5901   -4.9207  -11.4356 H.spc      1 <1>        0.000
     25 H          -3.1933   -3.9308   -8.8948 H.spc      1 <1>        0.000
     26 H          -2.7164   -5.3804  -10.0062 H.spc      1 <1>        0.000
@<TRIPOS>BOND
     1    4    5 2  
     2   10   11 2  
     3    1    2 am 
     4   12   13 2  
     5    8    9 2  
     6    9   10 1  
     7   11   12 1  
     8    7    8 1  
     9    2    4 1  
    10    6    7 2  
    11    2    3 2  
    12    5    6 1  
    13    1   14 1  
    14    1   15 1  
    15    4   16 1  
    16    5   17 1  
    17    6   18 1  
    18    7   19 1  
    19    8   20 1  
    20    9   21 1  
    21   10   22 1  
    22   11   23 1  
    23   12   24 1  
    24   13   25 1  
    25   13   26 1  
# Name:          frag3-176-9/31924
# Creation time: Sat Jun  5 12:52:08 2010


@<TRIPOS>MOLECULE
frag3-176-9/31924
   26    25     1     1     1
SMALL
USER_CHARGES


@<TRIPOS>ATOM
      1 N1         -3.8622   -2.5648   -2.3008 N.am       1 <1>        0.000
      2 C4         -5.0735   -1.9731   -2.2941 C.2        1 <1>        0.000
      3 O2         -5.5497   -1.5092   -1.2655 O.2        1 <1>        0.000
      4 C5         -5.8513   -1.8683   -3.5446 C.2        1 <1>        0.000
      5 C6         -5.5115   -2.4477   -4.7089 C.2        1 <1>        0.000
      6 C7         -6.2932   -2.3592   -5.9439 C.2        1 <1>        0.000
      7 C8         -6.6445   -1.2148   -6.5564 C.2        1 <1>        0.000
      8 C9         -7.3966   -1.1374   -7.8181 C.2        1 <1>        0.000
      9 C10        -7.0130   -1.6587   -8.9992 C.2        1 <1>        0.000
     10 C11        -5.7851   -2.4107   -9.2806 C.2        1 <1>        0.000
     11 C12        -5.7077   -3.4535  -10.1238 C.2        1 <1>        0.000
     12 C13        -4.4739   -4.1960  -10.3963 C.2        1 <1>        0.000
     13 C14        -3.4680   -4.2931   -9.5172 C.2        1 <1>        0.000
     14 H          -3.3231   -2.6329   -1.4376 H.spc      1 <1>        0.000
     15 H          -3.4848   -2.9444   -3.1691 H.spc      1 <1>        0.000
     16 H          -6.7675   -1.2783   -3.5220 H.spc      1 <1>        0.000
     17 H          -4.5874   -3.0251   -4.7357 H.spc      1 <1>        0.000
     18 H          -6.6155   -3.2940   -6.4026 H.spc      1 <1>        0.000
     19 H          -6.3509   -0.2774   -6.0841 H.spc      1 <1>        0.000
     20 H          -8.3505   -0.6106   -7.7951 H.spc      1 <1>        0.000
     21 H          -7.6901   -1.5048   -9.8394 H.spc      1 <1>        0.000
     22 H          -4.8728   -2.1020   -8.7703 H.spc      1 <1>        0.000
     23 H          -6.6174   -3.7663  -10.6363 H.spc      1 <1>        0.000
     24 H          -4.3698   -4.6931  -11.3607 H.spc      1 <1>        0.000
     25 H          -3.5448   -3.8061   -8.5451 H.spc      1 <1>        0.000
     26 H          -2.5726   -4.8592   -9.7739 H.spc      1 <1>        0.000
@<TRIPOS>BOND
     1    4    5 2  
     2   10   11 2  
     3    1    2 am 
     4   12   13 2  
     5    8    9 2  
     6    9   10 1  
     7   11   12 1  
     8    7    8 1  
     9    2    4 1  
    10    6    7 2  
    11    2    3 2  
    12    5    6 1  
    13    1   14 1  
    14    1   15 1  
    15    4   16 1  
    16    5   17 1  
    17    6   18 1  
    18    7   19 1  
    19    8   20 1  
    20    9   21 1  
    21   10   22 1  
    22   11   23 1  
    23   12   24 1  
    24   13   25 1  
    25   13   26 1  
# Name:          frag3-176-9/31924
# Creation time: Sat Jun  5 12:52:08 2010


@<TRIPOS>MOLECULE
frag3-176-9/31924
   26    25     1     1     1
SMALL
USER_CHARGES


@<TRIPOS>ATOM
      1 N1         -5.5801   -3.2099   -1.7495 N.am       1 <1>        0.000
      2 C4         -4.8398   -2.3644   -2.4949 C.2        1 <1>        0.000
      3 O2         -3.8074   -1.8708   -2.0627 O.2        1 <1>        0.000
      4 C5         -5.2673   -2.0288   -3.8675 C.2        1 <1>        0.000
      5 C6         -6.1842   -1.0949   -4.1771 C.2        1 <1>        0.000
      6 C7         -6.5927   -0.7474   -5.5400 C.2        1 <1>        0.000
      7 C8         -6.9065   -1.6319   -6.5025 C.2        1 <1>        0.000
      8 C9         -7.3513   -1.2735   -7.8569 C.2        1 <1>        0.000
      9 C10        -6.8390   -1.7335   -9.0110 C.2        1 <1>        0.000
     10 C11        -5.7474   -2.6982   -9.1747 C.2        1 <1>        0.000
     11 C12        -5.3910   -3.2571  -10.3431 C.2        1 <1>        0.000
     12 C13        -4.2960   -4.2182  -10.4917 C.2        1 <1>        0.000
     13 C14        -3.8276   -4.9577   -9.4777 C.2        1 <1>        0.000
     14 H          -5.2826   -3.4501   -0.8039 H.spc      1 <1>        0.000
     15 H          -6.4375   -3.6092   -2.1313 H.spc      1 <1>        0.000
     16 H          -4.8067   -2.5774   -4.6891 H.spc      1 <1>        0.000
     17 H          -6.6572   -0.5581   -3.3548 H.spc      1 <1>        0.000
     18 H          -6.6465    0.3113   -5.7938 H.spc      1 <1>        0.000
     19 H          -6.8252   -2.6917   -6.2611 H.spc      1 <1>        0.000
     20 H          -8.1769   -0.5659   -7.9325 H.spc      1 <1>        0.000
     21 H          -7.2847   -1.3462   -9.9272 H.spc      1 <1>        0.000
     22 H          -5.1850   -2.9822   -8.2852 H.spc      1 <1>        0.000
     23 H          -5.9513   -2.9781  -11.2355 H.spc      1 <1>        0.000
     24 H          -3.8402   -4.3375  -11.4746 H.spc      1 <1>        0.000
     25 H          -4.2645   -4.8590   -8.4840 H.spc      1 <1>        0.000
     26 H          -3.0096   -5.6581   -9.6464 H.spc      1 <1>        0.000
@<TRIPOS>BOND
     1    4    5 2  
     2   10   11 2  
     3    1    2 am 
     4   12   13 2  
     5    8    9 2  
     6    9   10 1  
     7   11   12 1  
     8    7    8 1  
     9    2    4 1  
    10    6    7 2  
    11    2    3 2  
    12    5    6 1  
    13    1   14 1  
    14    1   15 1  
    15    4   16 1  
    16    5   17 1  
    17    6   18 1  
    18    7   19 1  
    19    8   20 1  
    20    9   21 1  
    21   10   22 1  
    22   11   23 1  
    23   12   24 1  
    24   13   25 1  
    25   13   26 1  
# Name:          frag3-176-9/31924
# Creation time: Sat Jun  5 12:52:08 2010


@<TRIPOS>MOLECULE
frag3-176-9/31924
   26    25     1     1     1
SMALL
USER_CHARGES


@<TRIPOS>ATOM
      1 N1         -5.5707   -2.6161   -2.0653 N.am       1 <1>        0.000
      2 C4         -4.6549   -2.6146   -3.0554 C.2        1 <1>        0.000
      3 O2         -3.4743   -2.8466   -2.8316 O.2        1 <1>        0.000
      4 C5         -5.0727   -2.3389   -4.4454 C.2        1 <1>        0.000
      5 C6         -5.9550   -1.3920   -4.8050 C.2        1 <1>        0.000
      6 C7         -6.3549   -1.1032   -6.1852 C.2        1 <1>        0.000
      7 C8         -7.4580   -1.5786   -6.7870 C.2        1 <1>        0.000
      8 C9         -7.8665   -1.2505   -8.1631 C.2        1 <1>        0.000
      9 C10        -7.1324   -1.4487   -9.2759 C.2        1 <1>        0.000
     10 C11        -5.7941   -2.0502   -9.3520 C.2        1 <1>        0.000
     11 C12        -5.4081   -3.1242   -8.6428 C.2        1 <1>        0.000
     12 C13        -4.0731   -3.7241   -8.7235 C.2        1 <1>        0.000
     13 C14        -3.8157   -4.9986   -8.4172 C.2        1 <1>        0.000
     14 H          -5.2847   -2.8134   -1.1063 H.spc      1 <1>        0.000
     15 H          -6.5493   -2.4199   -2.2755 H.spc      1 <1>        0.000
     16 H          -4.6335   -2.9475   -5.2358 H.spc      1 <1>        0.000
     17 H          -6.4064   -0.7949   -4.0127 H.spc      1 <1>        0.000
     18 H          -5.7059   -0.4511   -6.7697 H.spc      1 <1>        0.000
     19 H          -8.0952   -2.2545   -6.2167 H.spc      1 <1>        0.000
     20 H          -8.8533   -0.8065   -8.2938 H.spc      1 <1>        0.000
     21 H          -7.5782   -1.1294  -10.2179 H.spc      1 <1>        0.000
     22 H          -5.0682   -1.5963  -10.0267 H.spc      1 <1>        0.000
     23 H          -6.1323   -3.5773   -7.9658 H.spc      1 <1>        0.000
     24 H          -3.2450   -3.0958   -9.0514 H.spc      1 <1>        0.000
     25 H          -4.6220   -5.6531   -8.0861 H.spc      1 <1>        0.000
     26 H          -2.7994   -5.3841   -8.4984 H.spc      1 <1>        0.000
@<TRIPOS>BOND
     1    4    5 2  
     2   10   11 2  
     3    1    2 am 
     4   12   13 2  
     5    8    9 2  
     6    9   10 1  
     7   11   12 1  
     8    7    8 1  
     9    2    4 1  
    10    6    7 2  
    11    2    3 2  
    12    5    6 1  
    13    1   14 1  
    14    1   15 1  
    15    4   16 1  
    16    5   17 1  
    17    6   18 1  
    18    7   19 1  
    19    8   20 1  
    20    9   21 1  
    21   10   22 1  
    22   11   23 1  
    23   12   24 1  
    24   13   25 1  
    25   13   26 1  
# Name:          frag3-176-9/31924
# Creation time: Sat Jun  5 12:52:08 2010


@<TRIPOS>MOLECULE
frag3-176-9/31924
   26    25     1     1     1
SMALL
USER_CHARGES


@<TRIPOS>ATOM
      1 N1         -5.2433   -1.5934   -1.1483 N.am       1 <1>        0.000
      2 C4         -4.9715   -2.2358   -2.3040 C.2        1 <1>        0.000
      3 O2         -3.9334   -2.8640   -2.4533 O.2        1 <1>        0.000
      4 C5         -5.9451   -2.1937   -3.4135 C.2        1 <1>        0.000
      5 C6         -5.6700   -1.7606   -4.6558 C.2        1 <1>        0.000
      6 C7         -6.6262   -1.7399   -5.7665 C.2        1 <1>        0.000
      7 C8         -6.4137   -1.1769   -6.9653 C.2        1 <1>        0.000
      8 C9         -7.3688   -1.2028   -8.0848 C.2        1 <1>        0.000
      9 C10        -7.1718   -1.7783   -9.2864 C.2        1 <1>        0.000
     10 C11        -5.9744   -2.5026   -9.7286 C.2        1 <1>        0.000
     11 C12        -5.2637   -3.3367   -8.9476 C.2        1 <1>        0.000
     12 C13        -4.0711   -4.0597   -9.3965 C.2        1 <1>        0.000
     13 C14        -3.9771   -4.6419  -10.5987 C.2        1 <1>        0.000
     14 H          -4.5761   -1.6262   -0.3775 H.spc      1 <1>        0.000
     15 H          -6.1159   -1.0752   -1.0459 H.spc      1 <1>        0.000
     16 H          -6.9590   -2.5384   -3.2105 H.spc      1 <1>        0.000
     17 H          -4.6610   -1.3979   -4.8518 H.spc      1 <1>        0.000
     18 H          -7.5902   -2.2222   -5.6049 H.spc      1 <1>        0.000
     19 H          -5.4652   -0.6631   -7.1216 H.spc      1 <1>        0.000
     20 H          -8.3274   -0.7089   -7.9262 H.spc      1 <1>        0.000
     21 H          -7.9868   -1.6977  -10.0056 H.spc      1 <1>        0.000
     22 H          -5.6393   -2.3555  -10.7553 H.spc      1 <1>        0.000
     23 H          -5.5951   -3.4832   -7.9196 H.spc      1 <1>        0.000
     24 H          -3.2195   -4.1269   -8.7194 H.spc      1 <1>        0.000
     25 H          -4.8133   -4.5905  -11.2960 H.spc      1 <1>        0.000
     26 H          -3.0644   -5.1672  -10.8800 H.spc      1 <1>        0.000
@<TRIPOS>BOND
     1    4    5 2  
     2   10   11 2  
     3    1    2 am 
     4   12   13 2  
     5    8    9 2  
     6    9   10 1  
     7   11   12 1  
     8    7    8 1  
     9    2    4 1  
    10    6    7 2  
    11    2    3 2  
    12    5    6 1  
    13    1   14 1  
    14    1   15 1  
    15    4   16 1  
    16    5   17 1  
    17    6   18 1  
    18    7   19 1  
    19    8   20 1  
    20    9   21 1  
    21   10   22 1  
    22   11   23 1  
    23   12   24 1  
    24   13   25 1  
    25   13   26 1  
# Name:          frag3-176-9/31924
# Creation time: Sat Jun  5 12:52:08 2010


@<TRIPOS>MOLECULE
frag3-176-9/31924
   26    25     1     1     1
SMALL
USER_CHARGES


@<TRIPOS>ATOM
      1 N1         -6.1032   -1.9114   -0.7886 N.am       1 <1>        0.000
      2 C4         -5.2407   -1.8625   -1.8269 C.2        1 <1>        0.000
      3 O2         -4.0825   -2.2336   -1.7097 O.2        1 <1>        0.000
      4 C5         -5.6978   -1.3539   -3.1369 C.2        1 <1>        0.000
      5 C6         -5.4001   -1.9189   -4.3205 C.2        1 <1>        0.000
      6 C7         -5.8745   -1.4304   -5.6203 C.2        1 <1>        0.000
      7 C8         -6.7409   -2.0736   -6.4187 C.2        1 <1>        0.000
      8 C9         -7.2432   -1.5492   -7.7002 C.2        1 <1>        0.000
      9 C10        -6.7652   -1.8462   -8.9211 C.2        1 <1>        0.000
     10 C11        -5.6641   -2.7650   -9.2438 C.2        1 <1>        0.000
     11 C12        -5.3240   -3.1319  -10.4880 C.2        1 <1>        0.000
     12 C13        -4.2210   -4.0484  -10.8001 C.2        1 <1>        0.000
     13 C14        -4.2731   -4.9611  -11.7747 C.2        1 <1>        0.000
     14 H          -5.7921   -2.2636    0.1167 H.spc      1 <1>        0.000
     15 H          -7.0657   -1.5961   -0.9098 H.spc      1 <1>        0.000
     16 H          -6.3195   -0.4586   -3.1444 H.spc      1 <1>        0.000
     17 H          -4.7613   -2.8021   -4.3138 H.spc      1 <1>        0.000
     18 H          -5.4932   -0.4691   -5.9648 H.spc      1 <1>        0.000
     19 H          -7.0975   -3.0519   -6.0963 H.spc      1 <1>        0.000
     20 H          -8.0819   -0.8545   -7.6543 H.spc      1 <1>        0.000
     21 H          -7.2471   -1.3513   -9.7643 H.spc      1 <1>        0.000
     22 H          -5.0853   -3.1756   -8.4164 H.spc      1 <1>        0.000
     23 H          -5.9018   -2.7248  -11.3178 H.spc      1 <1>        0.000
     24 H          -3.3104   -3.9809  -10.2049 H.spc      1 <1>        0.000
     25 H          -5.1698   -5.0534  -12.3876 H.spc      1 <1>        0.000
     26 H          -3.4189   -5.6133  -11.9568 H.spc      1 <1>        0.000
@<TRIPOS>BOND
     1    4    5 2  
     2   10   11 2  
     3    1    2 am 
     4   12   13 2  
     5    8    9 2  
     6    9   10 1  
     7   11   12 1  
     8    7    8 1  
     9    2    4 1  
    10    6    7 2  
    11    2    3 2  
    12    5    6 1  
    13    1   14 1  
    14    1   15 1  
    15    4   16 1  
    16    5   17 1  
    17    6   18 1  
    18    7   19 1  
    19    8   20 1  
    20    9   21 1  
    21   10   22 1  
    22   11   23 1  
    23   12   24 1  
    24   13   25 1  
    25   13   26 1  
# Name:          frag3-176-9/31924 -- energy: -2.277448
# Creation time: Sat Jun  5 12:52:08 2010


@<TRIPOS>MOLECULE
frag3-176-9/31924 -- energy: -2.277448
   26    25     1     1     1
SMALL
USER_CHARGES


@<TRIPOS>ATOM
      1 N1         -5.5694   -1.2243   -0.4690 N.am       1 <1>        0.000
      2 C4         -5.2654   -1.8383   -1.6337 C.2        1 <1>        0.000
      3 O2         -4.3295   -2.6194   -1.7152 O.2        1 <1>        0.000
      4 C5         -6.0802   -1.5717   -2.8372 C.2        1 <1>        0.000
      5 C6         -5.6410   -1.7077   -4.1009 C.2        1 <1>        0.000
      6 C7         -6.4539   -1.4684   -5.2987 C.2        1 <1>        0.000
      7 C8         -6.1092   -1.8071   -6.5496 C.2        1 <1>        0.000
      8 C9         -6.9566   -1.5992   -7.7362 C.2        1 <1>        0.000
      9 C10        -6.7321   -2.0811   -8.9701 C.2        1 <1>        0.000
     10 C11        -5.6081   -2.9241   -9.4022 C.2        1 <1>        0.000
     11 C12        -5.4690   -3.4262  -10.6376 C.2        1 <1>        0.000
     12 C13        -4.3400   -4.2627  -11.0612 C.2        1 <1>        0.000
     13 C14        -4.0759   -4.5561  -12.3377 C.2        1 <1>        0.000
     14 H          -5.0128   -1.4093    0.3655 H.spc      1 <1>        0.000
     15 H          -6.3554   -0.5758   -0.4243 H.spc      1 <1>        0.000
     16 H          -7.1087   -1.2419   -2.6905 H.spc      1 <1>        0.000
     17 H          -4.6063   -2.0182   -4.2459 H.spc      1 <1>        0.000
     18 H          -7.4161   -0.9753   -5.1606 H.spc      1 <1>        0.000
     19 H          -5.1331   -2.2688   -6.6987 H.spc      1 <1>        0.000
     20 H          -7.8537   -0.9952   -7.6000 H.spc      1 <1>        0.000
     21 H          -7.4635   -1.8182   -9.7344 H.spc      1 <1>        0.000
     22 H          -4.8358   -3.1566   -8.6690 H.spc      1 <1>        0.000
     23 H          -6.2416   -3.1992  -11.3722 H.spc      1 <1>        0.000
     24 H          -3.6810   -4.6666  -10.2926 H.spc      1 <1>        0.000
     25 H          -4.7159   -4.1676  -13.1299 H.spc      1 <1>        0.000
     26 H          -3.2204   -5.1840  -12.5869 H.spc      1 <1>        0.000
@<TRIPOS>BOND
     1    4    5 2  
     2   10   11 2  
     3    1    2 am 
     4   12   13 2  
     5    8    9 2  
     6    9   10 1  
     7   11   12 1  
     8    7    8 1  
     9    2    4 1  
    10    6    7 2  
    11    2    3 2  
    12    5    6 1  
    13    1   14 1  
    14    1   15 1  
    15    4   16 1  
    16    5   17 1  
    17    6   18 1  
    18    7   19 1  
    19    8   20 1  
    20    9   21 1  
    21   10   22 1  
    22   11   23 1  
    23   12   24 1  
    24   13   25 1  
    25   13   26 1  
# Name:          frag3-176-9/31924 -- energy: -2.528130
# Creation time: Sat Jun  5 12:52:08 2010


@<TRIPOS>MOLECULE
frag3-176-9/31924 -- energy: -2.528130
   26    25     1     1     1
SMALL
USER_CHARGES


@<TRIPOS>ATOM
      1 N1         -4.2734   -1.1385   -1.7836 N.am       1 <1>        0.000
      2 C4         -4.9372   -2.2189   -2.2445 C.2        1 <1>        0.000
      3 O2         -4.9722   -3.2638   -1.6089 O.2        1 <1>        0.000
      4 C5         -5.6419   -2.1536   -3.5410 C.2        1 <1>        0.000
      5 C6         -6.3624   -1.1009   -3.9667 C.2        1 <1>        0.000
      6 C7         -7.0424   -1.0298   -5.2654 C.2        1 <1>        0.000
      7 C8         -6.5750   -1.5591   -6.4084 C.2        1 <1>        0.000
      8 C9         -7.2855   -1.5214   -7.6978 C.2        1 <1>        0.000
      9 C10        -6.8841   -2.0921   -8.8458 C.2        1 <1>        0.000
     10 C11        -5.6642   -2.8835   -9.0639 C.2        1 <1>        0.000
     11 C12        -5.3244   -3.4433  -10.2338 C.2        1 <1>        0.000
     12 C13        -4.1010   -4.2271  -10.4432 C.2        1 <1>        0.000
     13 C14        -3.5667   -4.4545  -11.6465 C.2        1 <1>        0.000
     14 H          -3.7872   -1.1824   -0.8880 H.spc      1 <1>        0.000
     15 H          -4.2578   -0.2778   -2.3307 H.spc      1 <1>        0.000
     16 H          -5.5731   -3.0198   -4.1991 H.spc      1 <1>        0.000
     17 H          -6.4472   -0.2415   -3.3016 H.spc      1 <1>        0.000
     18 H          -7.9987   -0.5083   -5.3056 H.spc      1 <1>        0.000
     19 H          -5.6025   -2.0505   -6.3794 H.spc      1 <1>        0.000
     20 H          -8.2295   -0.9771   -7.7232 H.spc      1 <1>        0.000
     21 H          -7.5337   -1.9533   -9.7100 H.spc      1 <1>        0.000
     22 H          -4.9913   -3.0244   -8.2181 H.spc      1 <1>        0.000
     23 H          -5.9972   -3.3083  -11.0807 H.spc      1 <1>        0.000
     24 H          -3.6015   -4.6462   -9.5698 H.spc      1 <1>        0.000
     25 H          -4.0424   -4.0490  -12.5395 H.spc      1 <1>        0.000
     26 H          -2.6551   -5.0455  -11.7352 H.spc      1 <1>        0.000
@<TRIPOS>BOND
     1    4    5 2  
     2   10   11 2  
     3    1    2 am 
     4   12   13 2  
     5    8    9 2  
     6    9   10 1  
     7   11   12 1  
     8    7    8 1  
     9    2    4 1  
    10    6    7 2  
    11    2    3 2  
    12    5    6 1  
    13    1   14 1  
    14    1   15 1  
    15    4   16 1  
    16    5   17 1  
    17    6   18 1  
    18    7   19 1  
    19    8   20 1  
    20    9   21 1  
    21   10   22 1  
    22   11   23 1  
    23   12   24 1  
    24   13   25 1  
    25   13   26 1  
# Name:          frag3-176-9/31924 -- energy: -2.710311
# Creation time: Sat Jun  5 12:52:08 2010


@<TRIPOS>MOLECULE
frag3-176-9/31924 -- energy: -2.710311
   26    25     1     1     1
SMALL
USER_CHARGES


@<TRIPOS>ATOM
      1 N1         -3.8364   -1.4641   -2.2485 N.am       1 <1>        0.000
      2 C4         -4.9509   -2.2255   -2.2412 C.2        1 <1>        0.000
      3 O2         -5.3853   -2.7082   -1.2045 O.2        1 <1>        0.000
      4 C5         -5.6730   -2.4886   -3.5038 C.2        1 <1>        0.000
      5 C6         -5.8890   -1.5741   -4.4633 C.2        1 <1>        0.000
      6 C7         -6.5868   -1.8396   -5.7287 C.2        1 <1>        0.000
      7 C8         -6.9278   -0.9083   -6.6324 C.2        1 <1>        0.000
      8 C9         -7.5899   -1.1977   -7.9178 C.2        1 <1>        0.000
      9 C10        -7.0896   -1.9542   -8.9118 C.2        1 <1>        0.000
     10 C11        -5.7944   -2.6535   -8.9300 C.2        1 <1>        0.000
     11 C12        -5.3657   -3.4199   -9.9430 C.2        1 <1>        0.000
     12 C13        -4.0682   -4.1101   -9.9543 C.2        1 <1>        0.000
     13 C14        -3.4734   -4.5426  -11.0700 C.2        1 <1>        0.000
     14 H          -3.3382   -1.2809   -1.3775 H.spc      1 <1>        0.000
     15 H          -3.4924   -1.0719   -3.1250 H.spc      1 <1>        0.000
     16 H          -6.0571   -3.4954   -3.6676 H.spc      1 <1>        0.000
     17 H          -5.5204   -0.5629   -4.2910 H.spc      1 <1>        0.000
     18 H          -6.8479   -2.8743   -5.9508 H.spc      1 <1>        0.000
     19 H          -6.7001    0.1322   -6.4008 H.spc      1 <1>        0.000
     20 H          -8.5747   -0.7586   -8.0774 H.spc      1 <1>        0.000
     21 H          -7.7114   -2.0609   -9.8007 H.spc      1 <1>        0.000
     22 H          -5.1419   -2.5410   -8.0642 H.spc      1 <1>        0.000
     23 H          -6.0174   -3.5380  -10.8087 H.spc      1 <1>        0.000
     24 H          -3.5645   -4.2781   -9.0024 H.spc      1 <1>        0.000
     25 H          -3.9520   -4.3895  -12.0373 H.spc      1 <1>        0.000
     26 H          -2.5096   -5.0484  -11.0128 H.spc      1 <1>        0.000
@<TRIPOS>BOND
     1    4    5 2  
     2   10   11 2  
     3    1    2 am 
     4   12   13 2  
     5    8    9 2  
     6    9   10 1  
     7   11   12 1  
     8    7    8 1  
     9    2    4 1  
    10    6    7 2  
    11    2    3 2  
    12    5    6 1  
    13    1   14 1  
    14    1   15 1  
    15    4   16 1  
    16    5   17 1  
    17    6   18 1  
    18    7   19 1  
    19    8   20 1  
    20    9   21 1  
    21   10   22 1  
    22   11   23 1  
    23   12   24 1  
    24   13   25 1  
    25   13   26 1  
# Name:          frag3-176-9/31924 -- energy: -2.718269
# Creation time: Sat Jun  5 12:52:08 2010


@<TRIPOS>MOLECULE
frag3-176-9/31924 -- energy: -2.718269
   26    25     1     1     1
SMALL
USER_CHARGES


@<TRIPOS>ATOM
      1 N1         -4.6079   -3.4004   -2.0335 N.am       1 <1>        0.000
      2 C4         -4.9976   -2.1114   -2.1239 C.2        1 <1>        0.000
      3 O2         -4.6176   -1.2739   -1.3169 O.2        1 <1>        0.000
      4 C5         -5.9001   -1.6879   -3.2145 C.2        1 <1>        0.000
      5 C6         -5.6616   -1.8848   -4.5216 C.2        1 <1>        0.000
      6 C7         -6.5683   -1.4859   -5.6061 C.2        1 <1>        0.000
      7 C8         -6.3728   -1.7371   -6.9085 C.2        1 <1>        0.000
      8 C9         -7.3145   -1.3674   -7.9807 C.2        1 <1>        0.000
      9 C10        -7.1295   -1.5436   -9.3010 C.2        1 <1>        0.000
     10 C11        -5.9606   -2.1547   -9.9529 C.2        1 <1>        0.000
     11 C12        -5.4557   -3.3536   -9.6196 C.2        1 <1>        0.000
     12 C13        -4.2899   -3.9609  -10.2743 C.2        1 <1>        0.000
     13 C14        -3.7544   -5.1249   -9.8957 C.2        1 <1>        0.000
     14 H          -3.9843   -3.6931   -1.2813 H.spc      1 <1>        0.000
     15 H          -4.9370   -4.0819   -2.7174 H.spc      1 <1>        0.000
     16 H          -6.8243   -1.1800   -2.9390 H.spc      1 <1>        0.000
     17 H          -4.7283   -2.3758   -4.7973 H.spc      1 <1>        0.000
     18 H          -7.4720   -0.9424   -5.3301 H.spc      1 <1>        0.000
     19 H          -5.4544   -2.2500   -7.1942 H.spc      1 <1>        0.000
     20 H          -8.2529   -0.9059   -7.6732 H.spc      1 <1>        0.000
     21 H          -7.9288   -1.1977   -9.9565 H.spc      1 <1>        0.000
     22 H          -5.4746   -1.6002  -10.7557 H.spc      1 <1>        0.000
     23 H          -5.9396   -3.9086   -8.8159 H.spc      1 <1>        0.000
     24 H          -3.8372   -3.4338  -11.1141 H.spc      1 <1>        0.000
     25 H          -4.1842   -5.6762   -9.0593 H.spc      1 <1>        0.000
     26 H          -2.8877   -5.5233  -10.4232 H.spc      1 <1>        0.000
@<TRIPOS>BOND
     1    4    5 2  
     2   10   11 2  
     3    1    2 am 
     4   12   13 2  
     5    8    9 2  
     6    9   10 1  
     7   11   12 1  
     8    7    8 1  
     9    2    4 1  
    10    6    7 2  
    11    2    3 2  
    12    5    6 1  
    13    1   14 1  
    14    1   15 1  
    15    4   16 1  
    16    5   17 1  
    17    6   18 1  
    18    7   19 1  
    19    8   20 1  
    20    9   21 1  
    21   10   22 1  
    22   11   23 1  
    23   12   24 1  
    24   13   25 1  
    25   13   26 1  
# Name:          frag3-176-9/31924 -- energy: -2.709429
# Creation time: Sat Jun  5 12:52:08 2010


@<TRIPOS>MOLECULE
frag3-176-9/31924 -- energy: -2.709429
   26    25     1     1     1
SMALL
USER_CHARGES


@<TRIPOS>ATOM
      1 N1         -3.3729   -2.6641   -2.7007 N.am       1 <1>        0.000
      2 C4         -4.6941   -2.3999   -2.7907 C.2        1 <1>        0.000
      3 O2         -5.4255   -2.4792   -1.8147 O.2        1 <1>        0.000
      4 C5         -5.2745   -2.0026   -4.0878 C.2        1 <1>        0.000
      5 C6         -6.4641   -1.3894   -4.2381 C.2        1 <1>        0.000
      6 C7         -7.0305   -0.9759   -5.5233 C.2        1 <1>        0.000
      7 C8         -6.8370   -1.6097   -6.6929 C.2        1 <1>        0.000
      8 C9         -7.4408   -1.2114   -7.9725 C.2        1 <1>        0.000
      9 C10        -7.2684   -1.8173   -9.1609 C.2        1 <1>        0.000
     10 C11        -6.4472   -3.0021   -9.4342 C.2        1 <1>        0.000
     11 C12        -5.1079   -3.0346   -9.3385 C.2        1 <1>        0.000
     12 C13        -4.2924   -4.2218   -9.6030 C.2        1 <1>        0.000
     13 C14        -2.9750   -4.2784   -9.3922 C.2        1 <1>        0.000
     14 H          -2.9670   -2.9361   -1.8053 H.spc      1 <1>        0.000
     15 H          -2.7808   -2.5917   -3.5281 H.spc      1 <1>        0.000
     16 H          -4.6998   -2.2208   -4.9879 H.spc      1 <1>        0.000
     17 H          -7.0464   -1.1866   -3.3393 H.spc      1 <1>        0.000
     18 H          -7.6580   -0.0847   -5.5325 H.spc      1 <1>        0.000
     19 H          -6.1846   -2.4829   -6.6923 H.spc      1 <1>        0.000
     20 H          -8.0931   -0.3383   -7.9568 H.spc      1 <1>        0.000
     21 H          -7.7943   -1.3822  -10.0107 H.spc      1 <1>        0.000
     22 H          -6.9581   -3.9168   -9.7349 H.spc      1 <1>        0.000
     23 H          -4.5951   -2.1186   -9.0452 H.spc      1 <1>        0.000
     24 H          -4.7890   -5.1098   -9.9942 H.spc      1 <1>        0.000
     25 H          -2.4477   -3.4080   -9.0017 H.spc      1 <1>        0.000
     26 H          -2.4270   -5.1950   -9.6107 H.spc      1 <1>        0.000
@<TRIPOS>BOND
     1    4    5 2  
     2   10   11 2  
     3    1    2 am 
     4   12   13 2  
     5    8    9 2  
     6    9   10 1  
     7   11   12 1  
     8    7    8 1  
     9    2    4 1  
    10    6    7 2  
    11    2    3 2  
    12    5    6 1  
    13    1   14 1  
    14    1   15 1  
    15    4   16 1  
    16    5   17 1  
    17    6   18 1  
    18    7   19 1  
    19    8   20 1  
    20    9   21 1  
    21   10   22 1  
    22   11   23 1  
    23   12   24 1  
    24   13   25 1  
    25   13   26 1  
# Name:          frag3-176-9/31924 -- energy: -2.458440
# Creation time: Sat Jun  5 12:52:08 2010


@<TRIPOS>MOLECULE
frag3-176-9/31924 -- energy: -2.458440
   26    25     1     1     1
SMALL
USER_CHARGES


@<TRIPOS>ATOM
      1 N1         -5.3684   -3.2366   -1.3876 N.am       1 <1>        0.000
      2 C4         -5.0016   -2.2480   -2.2308 C.2        1 <1>        0.000
      3 O2         -4.1103   -1.4633   -1.9419 O.2        1 <1>        0.000
      4 C5         -5.6794   -2.1086   -3.5353 C.2        1 <1>        0.000
      5 C6         -6.1910   -0.9587   -4.0120 C.2        1 <1>        0.000
      6 C7         -6.8405   -0.8169   -5.3186 C.2        1 <1>        0.000
      7 C8         -6.4422   -1.4267   -6.4481 C.2        1 <1>        0.000
      8 C9         -7.1260   -1.3139   -7.7459 C.2        1 <1>        0.000
      9 C10        -6.7407   -1.8792   -8.9021 C.2        1 <1>        0.000
     10 C11        -5.5690   -2.7367   -9.1232 C.2        1 <1>        0.000
     11 C12        -5.3187   -3.4029  -10.2595 C.2        1 <1>        0.000
     12 C13        -4.1445   -4.2550  -10.4715 C.2        1 <1>        0.000
     13 C14        -4.0981   -5.2397  -11.3728 C.2        1 <1>        0.000
     14 H          -4.8987   -3.3402   -0.4881 H.spc      1 <1>        0.000
     15 H          -6.1152   -3.8799   -1.6501 H.spc      1 <1>        0.000
     16 H          -5.7719   -2.9999   -4.1559 H.spc      1 <1>        0.000
     17 H          -6.1173   -0.0715   -3.3831 H.spc      1 <1>        0.000
     18 H          -7.7135   -0.1670   -5.3786 H.spc      1 <1>        0.000
     19 H          -5.5488   -2.0493   -6.3992 H.spc      1 <1>        0.000
     20 H          -8.0347   -0.7125   -7.7719 H.spc      1 <1>        0.000
     21 H          -7.3666   -1.6795   -9.7719 H.spc      1 <1>        0.000
     22 H          -4.8535   -2.8385   -8.3072 H.spc      1 <1>        0.000
     23 H          -6.0330   -3.3049  -11.0770 H.spc      1 <1>        0.000
     24 H          -3.2605   -4.0749   -9.8597 H.spc      1 <1>        0.000
     25 H          -4.9653   -5.4455  -12.0003 H.spc      1 <1>        0.000
     26 H          -3.1931   -5.8375  -11.4808 H.spc      1 <1>        0.000
@<TRIPOS>BOND
     1    4    5 2  
     2   10   11 2  
     3    1    2 am 
     4   12   13 2  
     5    8    9 2  
     6    9   10 1  
     7   11   12 1  
     8    7    8 1  
     9    2    4 1  
    10    6    7 2  
    11    2    3 2  
    12    5    6 1  
    13    1   14 1  
    14    1   15 1  
    15    4   16 1  
    16    5   17 1  
    17    6   18 1  
    18    7   19 1  
    19    8   20 1  
    20    9   21 1  
    21   10   22 1  
    22   11   23 1  
    23   12   24 1  
    24   13   25 1  
    25   13   26 1  
# Name:          frag3-176-9/31924 -- energy: -2.083806
# Creation time: Sat Jun  5 12:52:08 2010


@<TRIPOS>MOLECULE
frag3-176-9/31924 -- energy: -2.083806
   26    25     1     1     1
SMALL
USER_CHARGES


@<TRIPOS>ATOM
      1 N1         -4.3885   -2.7718   -1.6429 N.am       1 <1>        0.000
      2 C4         -5.2947   -1.7720   -1.6121 C.2        1 <1>        0.000
      3 O2         -5.5392   -1.1661   -0.5774 O.2        1 <1>        0.000
      4 C5         -6.0120   -1.3871   -2.8460 C.2        1 <1>        0.000
      5 C6         -5.6695   -1.7843   -4.0825 C.2        1 <1>        0.000
      6 C7         -6.3954   -1.4214   -5.3075 C.2        1 <1>        0.000
      7 C8         -6.1778   -1.9531   -6.5192 C.2        1 <1>        0.000
      8 C9         -6.9453   -1.6089   -7.7306 C.2        1 <1>        0.000
      9 C10        -6.7229   -2.0711   -8.9722 C.2        1 <1>        0.000
     10 C11        -5.6809   -3.0233   -9.3903 C.2        1 <1>        0.000
     11 C12        -5.3477   -3.2629  -10.6667 C.2        1 <1>        0.000
     12 C13        -4.3020   -4.2122  -11.0744 C.2        1 <1>        0.000
     13 C14        -4.1543   -4.6519  -12.3275 C.2        1 <1>        0.000
     14 H          -3.8915   -3.0360   -0.7923 H.spc      1 <1>        0.000
     15 H          -4.2007   -3.2631   -2.5168 H.spc      1 <1>        0.000
     16 H          -6.8798   -0.7352   -2.7453 H.spc      1 <1>        0.000
     17 H          -4.7907   -2.4210   -4.1845 H.spc      1 <1>        0.000
     18 H          -7.1715   -0.6605   -5.2248 H.spc      1 <1>        0.000
     19 H          -5.3798   -2.6894   -6.6153 H.spc      1 <1>        0.000
     20 H          -7.7737   -0.9115   -7.6064 H.spc      1 <1>        0.000
     21 H          -7.3855   -1.7011   -9.7546 H.spc      1 <1>        0.000
     22 H          -5.1461   -3.5684   -8.6125 H.spc      1 <1>        0.000
     23 H          -5.8832   -2.7225  -11.4473 H.spc      1 <1>        0.000
     24 H          -3.6107   -4.5766  -10.3145 H.spc      1 <1>        0.000
     25 H          -4.8299   -4.3058  -13.1097 H.spc      1 <1>        0.000
     26 H          -3.3582   -5.3566  -12.5675 H.spc      1 <1>        0.000
@<TRIPOS>BOND
     1    4    5 2  
     2   10   11 2  
     3    1    2 am 
     4   12   13 2  
     5    8    9 2  
     6    9   10 1  
     7   11   12 1  
     8    7    8 1  
     9    2    4 1  
    10    6    7 2  
    11    2    3 2  
    12    5    6 1  
    13    1   14 1  
    14    1   15 1  
    15    4   16 1  
    16    5   17 1  
    17    6   18 1  
    18    7   19 1  
    19    8   20 1  
    20    9   21 1  
    21   10   22 1  
    22   11   23 1  
    23   12   24 1  
    24   13   25 1  
    25   13   26 1  
# Name:          frag3-176-9/31924 -- energy: -2.308120
# Creation time: Sat Jun  5 12:52:08 2010


@<TRIPOS>MOLECULE
frag3-176-9/31924 -- energy: -2.308120
   26    25     1     1     1
SMALL
USER_CHARGES


@<TRIPOS>ATOM
      1 N1         -3.4725   -2.1922   -2.1572 N.am       1 <1>        0.000
      2 C4         -4.8049   -2.1160   -2.3610 C.2        1 <1>        0.000
      3 O2         -5.6001   -2.3520   -1.4639 O.2        1 <1>        0.000
      4 C5         -5.3195   -1.7349   -3.6909 C.2        1 <1>        0.000
      5 C6         -6.6238   -1.6889   -4.0227 C.2        1 <1>        0.000
      6 C7         -7.1370   -1.2927   -5.3333 C.2        1 <1>        0.000
      7 C8         -6.7340   -1.8017   -6.5103 C.2        1 <1>        0.000
      8 C9         -7.2806   -1.4251   -7.8205 C.2        1 <1>        0.000
      9 C10        -6.8621   -1.8686   -9.0176 C.2        1 <1>        0.000
     10 C11        -5.7860   -2.8259   -9.2823 C.2        1 <1>        0.000
     11 C12        -5.3619   -3.1840  -10.5056 C.2        1 <1>        0.000
     12 C13        -4.2810   -4.1381  -10.7535 C.2        1 <1>        0.000
     13 C14        -3.3670   -4.4663   -9.8305 C.2        1 <1>        0.000
     14 H          -3.1110   -2.4512   -1.2393 H.spc      1 <1>        0.000
     15 H          -2.8274   -1.9907   -2.9212 H.spc      1 <1>        0.000
     16 H          -4.5921   -1.4720   -4.4590 H.spc      1 <1>        0.000
     17 H          -7.3497   -1.9672   -3.2587 H.spc      1 <1>        0.000
     18 H          -7.9082   -0.5228   -5.3578 H.spc      1 <1>        0.000
     19 H          -5.9419   -2.5503   -6.4909 H.spc      1 <1>        0.000
     20 H          -8.1079   -0.7154   -7.8217 H.spc      1 <1>        0.000
     21 H          -7.3818   -1.4714   -9.8895 H.spc      1 <1>        0.000
     22 H          -5.2929   -3.2814   -8.4236 H.spc      1 <1>        0.000
     23 H          -5.8544   -2.7352  -11.3682 H.spc      1 <1>        0.000
     24 H          -4.2161   -4.6045  -11.7365 H.spc      1 <1>        0.000
     25 H          -3.4075   -4.0155   -8.8389 H.spc      1 <1>        0.000
     26 H          -2.5829   -5.1841  -10.0711 H.spc      1 <1>        0.000
@<TRIPOS>BOND
     1    4    5 2  
     2   10   11 2  
     3    1    2 am 
     4   12   13 2  
     5    8    9 2  
     6    9   10 1  
     7   11   12 1  
     8    7    8 1  
     9    2    4 1  
    10    6    7 2  
    11    2    3 2  
    12    5    6 1  
    13    1   14 1  
    14    1   15 1  
    15    4   16 1  
    16    5   17 1  
    17    6   18 1  
    18    7   19 1  
    19    8   20 1  
    20    9   21 1  
    21   10   22 1  
    22   11   23 1  
    23   12   24 1  
    24   13   25 1  
    25   13   26 1  
# Name:          frag3-176-9/31924 -- energy: -2.577670
# Creation time: Sat Jun  5 12:52:08 2010


@<TRIPOS>MOLECULE
frag3-176-9/31924 -- energy: -2.577670
   26    25     1     1     1
SMALL
USER_CHARGES


@<TRIPOS>ATOM
      1 N1         -3.6463   -1.9680   -1.7369 N.am       1 <1>        0.000
      2 C4         -4.8654   -2.0970   -2.3045 C.2        1 <1>        0.000
      3 O2         -5.8316   -2.4709   -1.6570 O.2        1 <1>        0.000
      4 C5         -5.0447   -1.7767   -3.7355 C.2        1 <1>        0.000
      5 C6         -6.2155   -1.8500   -4.3930 C.2        1 <1>        0.000
      6 C7         -6.4038   -1.5098   -5.8065 C.2        1 <1>        0.000
      7 C8         -7.5169   -1.7427   -6.5197 C.2        1 <1>        0.000
      8 C9         -7.7027   -1.3568   -7.9283 C.2        1 <1>        0.000
      9 C10        -6.9228   -1.7299   -8.9597 C.2        1 <1>        0.000
     10 C11        -5.7464   -2.6092   -8.9103 C.2        1 <1>        0.000
     11 C12        -5.2850   -3.3170   -9.9514 C.2        1 <1>        0.000
     12 C13        -4.1069   -4.1893   -9.8937 C.2        1 <1>        0.000
     13 C14        -3.3423   -4.4690  -10.9529 C.2        1 <1>        0.000
     14 H          -3.5185   -2.1845   -0.7484 H.spc      1 <1>        0.000
     15 H          -2.8536   -1.6541   -2.2969 H.spc      1 <1>        0.000
     16 H          -4.1667   -1.4587   -4.2977 H.spc      1 <1>        0.000
     17 H          -7.0884   -2.1871   -3.8340 H.spc      1 <1>        0.000
     18 H          -5.5718   -1.0283   -6.3204 H.spc      1 <1>        0.000
     19 H          -8.3408   -2.2532   -6.0211 H.spc      1 <1>        0.000
     20 H          -8.5495   -0.7096   -8.1567 H.spc      1 <1>        0.000
     21 H          -7.1935   -1.3366   -9.9395 H.spc      1 <1>        0.000
     22 H          -5.2129   -2.6916   -7.9634 H.spc      1 <1>        0.000
     23 H          -5.8181   -3.2395  -10.8990 H.spc      1 <1>        0.000
     24 H          -3.8409   -4.6334   -8.9344 H.spc      1 <1>        0.000
     25 H          -3.5817   -4.0406  -11.9262 H.spc      1 <1>        0.000
     26 H          -2.4791   -5.1256  -10.8438 H.spc      1 <1>        0.000
@<TRIPOS>BOND
     1    4    5 2  
     2   10   11 2  
     3    1    2 am 
     4   12   13 2  
     5    8    9 2  
     6    9   10 1  
     7   11   12 1  
     8    7    8 1  
     9    2    4 1  
    10    6    7 2  
    11    2    3 2  
    12    5    6 1  
    13    1   14 1  
    14    1   15 1  
    15    4   16 1  
    16    5   17 1  
    17    6   18 1  
    18    7   19 1  
    19    8   20 1  
    20    9   21 1  
    21   10   22 1  
    22   11   23 1  
    23   12   24 1  
    24   13   25 1  
    25   13   26 1  
# Name:          frag3-176-9/31924 -- energy: -2.419807
# Creation time: Sat Jun  5 12:52:08 2010


@<TRIPOS>MOLECULE
frag3-176-9/31924 -- energy: -2.419807
   26    25     1     1     1
SMALL
USER_CHARGES


@<TRIPOS>ATOM
      1 N1         -3.5092   -1.7832   -2.1675 N.am       1 <1>        0.000
      2 C4         -4.8144   -2.0605   -2.3758 C.2        1 <1>        0.000
      3 O2         -5.5113   -2.5392   -1.4938 O.2        1 <1>        0.000
      4 C5         -5.4212   -1.7778   -3.6915 C.2        1 <1>        0.000
      5 C6         -6.7323   -1.9020   -3.9717 C.2        1 <1>        0.000
      6 C7         -7.3375   -1.6012   -5.2710 C.2        1 <1>        0.000
      7 C8         -6.7259   -1.7442   -6.4596 C.2        1 <1>        0.000
      8 C9         -7.3532   -1.4779   -7.7622 C.2        1 <1>        0.000
      9 C10        -6.8076   -1.6973   -8.9707 C.2        1 <1>        0.000
     10 C11        -5.4825   -2.2612   -9.2541 C.2        1 <1>        0.000
     11 C12        -5.2672   -3.3667   -9.9827 C.2        1 <1>        0.000
     12 C13        -3.9408   -3.9232  -10.2622 C.2        1 <1>        0.000
     13 C14        -3.7274   -4.9519  -11.0865 C.2        1 <1>        0.000
     14 H          -3.0861   -1.9732   -1.2591 H.spc      1 <1>        0.000
     15 H          -2.9465   -1.3837   -2.9186 H.spc      1 <1>        0.000
     16 H          -4.7613   -1.4450   -4.4927 H.spc      1 <1>        0.000
     17 H          -7.3896   -2.2510   -3.1753 H.spc      1 <1>        0.000
     18 H          -8.3634   -1.2328   -5.2746 H.spc      1 <1>        0.000
     19 H          -5.6896   -2.0821   -6.4573 H.spc      1 <1>        0.000
     20 H          -8.3603   -1.0613   -7.7463 H.spc      1 <1>        0.000
     21 H          -7.4153   -1.4271   -9.8343 H.spc      1 <1>        0.000
     22 H          -4.6136   -1.7462   -8.8443 H.spc      1 <1>        0.000
     23 H          -6.1344   -3.8841  -10.3931 H.spc      1 <1>        0.000
     24 H          -3.0796   -3.4720   -9.7694 H.spc      1 <1>        0.000
     25 H          -4.5668   -5.4259  -11.5952 H.spc      1 <1>        0.000
     26 H          -2.7138   -5.3176  -11.2506 H.spc      1 <1>        0.000
@<TRIPOS>BOND
     1    4    5 2  
     2   10   11 2  
     3    1    2 am 
     4   12   13 2  
     5    8    9 2  
     6    9   10 1  
     7   11   12 1  
     8    7    8 1  
     9    2    4 1  
    10    6    7 2  
    11    2    3 2  
    12    5    6 1  
    13    1   14 1  
    14    1   15 1  
    15    4   16 1  
    16    5   17 1  
    17    6   18 1  
    18    7   19 1  
    19    8   20 1  
    20    9   21 1  
    21   10   22 1  
    22   11   23 1  
    23   12   24 1  
    24   13   25 1  
    25   13   26 1  
# Name:          frag3-176-9/31924 -- energy: -2.466420
# Creation time: Sat Jun  5 12:52:08 2010


@<TRIPOS>MOLECULE
frag3-176-9/31924 -- energy: -2.466420
   26    25     1     1     1
SMALL
USER_CHARGES


@<TRIPOS>ATOM
      1 N1         -5.7355   -3.1337   -1.2700 N.am       1 <1>        0.000
      2 C4         -5.2888   -2.0859   -1.9960 C.2        1 <1>        0.000
      3 O2         -4.3844   -1.3712   -1.5898 O.2        1 <1>        0.000
      4 C5         -5.8958   -1.7919   -3.3095 C.2        1 <1>        0.000
      5 C6         -5.2679   -1.1551   -4.3157 C.2        1 <1>        0.000
      6 C7         -5.8637   -0.8853   -5.6282 C.2        1 <1>        0.000
      7 C8         -6.5752   -1.7697   -6.3481 C.2        1 <1>        0.000
      8 C9         -7.2069   -1.4757   -7.6445 C.2        1 <1>        0.000
      9 C10        -6.8410   -1.9741   -8.8379 C.2        1 <1>        0.000
     10 C11        -5.7557   -2.9272   -9.1066 C.2        1 <1>        0.000
     11 C12        -5.4178   -3.3679  -10.3270 C.2        1 <1>        0.000
     12 C13        -4.3295   -4.3166  -10.5859 C.2        1 <1>        0.000
     13 C14        -4.0682   -4.8318  -11.7902 C.2        1 <1>        0.000
     14 H          -5.3168   -3.3415   -0.3634 H.spc      1 <1>        0.000
     15 H          -6.4916   -3.7171   -1.6283 H.spc      1 <1>        0.000
     16 H          -6.9241   -2.1129   -3.4760 H.spc      1 <1>        0.000
     17 H          -4.2463   -0.8167   -4.1429 H.spc      1 <1>        0.000
     18 H          -5.7185    0.1082   -6.0523 H.spc      1 <1>        0.000
     19 H          -6.6926   -2.7750   -5.9435 H.spc      1 <1>        0.000
     20 H          -8.0525   -0.7879   -7.6360 H.spc      1 <1>        0.000
     21 H          -7.4124   -1.6337   -9.7015 H.spc      1 <1>        0.000
     22 H          -5.1864   -3.3016   -8.2558 H.spc      1 <1>        0.000
     23 H          -5.9872   -2.9982  -11.1797 H.spc      1 <1>        0.000
     24 H          -3.6991   -4.6178   -9.7492 H.spc      1 <1>        0.000
     25 H          -4.6799   -4.5509  -12.6475 H.spc      1 <1>        0.000
     26 H          -3.2433   -5.5331  -11.9156 H.spc      1 <1>        0.000
@<TRIPOS>BOND
     1    4    5 2  
     2   10   11 2  
     3    1    2 am 
     4   12   13 2  
     5    8    9 2  
     6    9   10 1  
     7   11   12 1  
     8    7    8 1  
     9    2    4 1  
    10    6    7 2  
    11    2    3 2  
    12    5    6 1  
    13    1   14 1  
    14    1   15 1  
    15    4   16 1  
    16    5   17 1  
    17    6   18 1  
    18    7   19 1  
    19    8   20 1  
    20    9   21 1  
    21   10   22 1  
    22   11   23 1  
    23   12   24 1  
    24   13   25 1  
    25   13   26 1  
# Name:          frag3-176-9/31924 -- energy: -2.420290
# Creation time: Sat Jun  5 12:52:08 2010


@<TRIPOS>MOLECULE
frag3-176-9/31924 -- energy: -2.420290
   26    25     1     1     1
SMALL
USER_CHARGES


@<TRIPOS>ATOM
      1 N1         -5.6534   -2.1710   -0.6744 N.am       1 <1>        0.000
      2 C4         -5.1261   -2.0703   -1.9140 C.2        1 <1>        0.000
      3 O2         -3.9212   -2.1538   -2.1004 O.2        1 <1>        0.000
      4 C5         -6.0157   -1.8609   -3.0745 C.2        1 <1>        0.000
      5 C6         -5.5974   -1.5070   -4.3028 C.2        1 <1>        0.000
      6 C7         -6.4744   -1.3236   -5.4640 C.2        1 <1>        0.000
      7 C8         -6.0923   -1.4158   -6.7465 C.2        1 <1>        0.000
      8 C9         -6.9958   -1.2742   -7.9006 C.2        1 <1>        0.000
      9 C10        -6.9374   -1.9725   -9.0476 C.2        1 <1>        0.000
     10 C11        -5.9743   -3.0255   -9.3967 C.2        1 <1>        0.000
     11 C12        -5.6748   -3.3928  -10.6528 C.2        1 <1>        0.000
     12 C13        -4.7041   -4.4405  -10.9886 C.2        1 <1>        0.000
     13 C14        -3.4636   -4.4783  -10.4866 C.2        1 <1>        0.000
     14 H          -5.0428   -2.3197    0.1290 H.spc      1 <1>        0.000
     15 H          -6.6621   -2.0983   -0.5418 H.spc      1 <1>        0.000
     16 H          -7.0860   -2.0031   -2.9249 H.spc      1 <1>        0.000
     17 H          -4.5291   -1.3447   -4.4456 H.spc      1 <1>        0.000
     18 H          -7.5219   -1.0937   -5.2690 H.spc      1 <1>        0.000
     19 H          -5.0388   -1.6092   -6.9486 H.spc      1 <1>        0.000
     20 H          -7.7888   -0.5311   -7.8166 H.spc      1 <1>        0.000
     21 H          -7.6868   -1.7310   -9.8014 H.spc      1 <1>        0.000
     22 H          -5.4691   -3.5432   -8.5813 H.spc      1 <1>        0.000
     23 H          -6.1826   -2.8827  -11.4713 H.spc      1 <1>        0.000
     24 H          -5.0077   -5.2262  -11.6804 H.spc      1 <1>        0.000
     25 H          -3.1327   -3.7057   -9.7926 H.spc      1 <1>        0.000
     26 H          -2.7845   -5.2817  -10.7719 H.spc      1 <1>        0.000
@<TRIPOS>BOND
     1    4    5 2  
     2   10   11 2  
     3    1    2 am 
     4   12   13 2  
     5    8    9 2  
     6    9   10 1  
     7   11   12 1  
     8    7    8 1  
     9    2    4 1  
    10    6    7 2  
    11    2    3 2  
    12    5    6 1  
    13    1   14 1  
    14    1   15 1  
    15    4   16 1  
    16    5   17 1  
    17    6   18 1  
    18    7   19 1  
    19    8   20 1  
    20    9   21 1  
    21   10   22 1  
    22   11   23 1  
    23   12   24 1  
    24   13   25 1  
    25   13   26 1  
# Name:          frag3-176-9/31924 -- energy: -2.643433
# Creation time: Sat Jun  5 12:52:08 2010


@<TRIPOS>MOLECULE
frag3-176-9/31924 -- energy: -2.643433
   26    25     1     1     1
SMALL
USER_CHARGES


@<TRIPOS>ATOM
      1 N1         -4.8970   -1.0227   -1.6705 N.am       1 <1>        0.000
      2 C4         -4.9400   -2.2494   -2.2311 C.2        1 <1>        0.000
      3 O2         -4.3625   -3.2017   -1.7244 O.2        1 <1>        0.000
      4 C5         -5.7041   -2.4645   -3.4778 C.2        1 <1>        0.000
      5 C6         -5.8617   -1.5448   -4.4441 C.2        1 <1>        0.000
      6 C7         -6.5989   -1.7649   -5.6951 C.2        1 <1>        0.000
      7 C8         -6.7688   -0.8512   -6.6629 C.2        1 <1>        0.000
      8 C9         -7.4753   -1.1027   -7.9321 C.2        1 <1>        0.000
      9 C10        -7.0687   -1.9292   -8.9130 C.2        1 <1>        0.000
     10 C11        -5.8510   -2.7552   -8.9307 C.2        1 <1>        0.000
     11 C12        -5.4375   -3.4674   -9.9888 C.2        1 <1>        0.000
     12 C13        -4.2164   -4.2842   -9.9987 C.2        1 <1>        0.000
     13 C14        -3.4484   -4.4483  -11.0800 C.2        1 <1>        0.000
     14 H          -4.3753   -0.8748   -0.8066 H.spc      1 <1>        0.000
     15 H          -5.3862   -0.2434   -2.1107 H.spc      1 <1>        0.000
     16 H          -6.1727   -3.4378   -3.6234 H.spc      1 <1>        0.000
     17 H          -5.4101   -0.5650   -4.2886 H.spc      1 <1>        0.000
     18 H          -7.0431   -2.7482   -5.8496 H.spc      1 <1>        0.000
     19 H          -6.3565    0.1445   -6.4996 H.spc      1 <1>        0.000
     20 H          -8.4131   -0.5703   -8.0905 H.spc      1 <1>        0.000
     21 H          -7.7118   -1.9940   -9.7907 H.spc      1 <1>        0.000
     22 H          -5.2459   -2.7904   -8.0248 H.spc      1 <1>        0.000
     23 H          -6.0429   -3.4387  -10.8948 H.spc      1 <1>        0.000
     24 H          -3.9212   -4.7827   -9.0754 H.spc      1 <1>        0.000
     25 H          -3.7171   -3.9627  -12.0181 H.spc      1 <1>        0.000
     26 H          -2.5533   -5.0677  -11.0238 H.spc      1 <1>        0.000
@<TRIPOS>BOND
     1    4    5 2  
     2   10   11 2  
     3    1    2 am 
     4   12   13 2  
     5    8    9 2  
     6    9   10 1  
     7   11   12 1  
     8    7    8 1  
     9    2    4 1  
    10    6    7 2  
    11    2    3 2  
    12    5    6 1  
    13    1   14 1  
    14    1   15 1  
    15    4   16 1  
    16    5   17 1  
    17    6   18 1  
    18    7   19 1  
    19    8   20 1  
    20    9   21 1  
    21   10   22 1  
    22   11   23 1  
    23   12   24 1  
    24   13   25 1  
    25   13   26 1  
# Name:          frag3-176-9/31924 -- energy: -2.616456
# Creation time: Sat Jun  5 12:52:08 2010


@<TRIPOS>MOLECULE
frag3-176-9/31924 -- energy: -2.616456
   26    25     1     1     1
SMALL
USER_CHARGES


@<TRIPOS>ATOM
      1 N1         -5.3388   -2.2463   -1.6090 N.am       1 <1>        0.000
      2 C4         -4.6509   -2.2889   -2.7680 C.2        1 <1>        0.000
      3 O2         -3.4770   -2.6340   -2.8000 O.2        1 <1>        0.000
      4 C5         -5.3145   -1.9162   -4.0330 C.2        1 <1>        0.000
      5 C6         -6.6405   -1.9760   -4.2493 C.2        1 <1>        0.000
      6 C7         -7.2985   -1.5852   -5.4989 C.2        1 <1>        0.000
      7 C8         -6.6867   -1.4727   -6.6906 C.2        1 <1>        0.000
      8 C9         -7.3624   -1.1205   -7.9485 C.2        1 <1>        0.000
      9 C10        -6.9040   -1.3492   -9.1923 C.2        1 <1>        0.000
     10 C11        -5.6456   -2.0107   -9.5597 C.2        1 <1>        0.000
     11 C12        -5.3807   -3.3085   -9.3388 C.2        1 <1>        0.000
     12 C13        -4.1229   -3.9647   -9.7075 C.2        1 <1>        0.000
     13 C14        -3.8078   -5.2133   -9.3538 C.2        1 <1>        0.000
     14 H          -4.8815   -2.5049   -0.7347 H.spc      1 <1>        0.000
     15 H          -6.3165   -1.9555   -1.6066 H.spc      1 <1>        0.000
     16 H          -4.6841   -1.5673   -4.8509 H.spc      1 <1>        0.000
     17 H          -7.2702   -2.3409   -3.4378 H.spc      1 <1>        0.000
     18 H          -8.3661   -1.3691   -5.4591 H.spc      1 <1>        0.000
     19 H          -5.6128   -1.6556   -6.7272 H.spc      1 <1>        0.000
     20 H          -8.3299   -0.6254   -7.8647 H.spc      1 <1>        0.000
     21 H          -7.5331   -1.0074  -10.0142 H.spc      1 <1>        0.000
     22 H          -4.8762   -1.4089  -10.0434 H.spc      1 <1>        0.000
     23 H          -6.1490   -3.9117   -8.8551 H.spc      1 <1>        0.000
     24 H          -3.4046   -3.4020  -10.3037 H.spc      1 <1>        0.000
     25 H          -4.5041   -5.8030   -8.7576 H.spc      1 <1>        0.000
     26 H          -2.8543   -5.6427   -9.6613 H.spc      1 <1>        0.000
@<TRIPOS>BOND
     1    4    5 2  
     2   10   11 2  
     3    1    2 am 
     4   12   13 2  
     5    8    9 2  
     6    9   10 1  
     7   11   12 1  
     8    7    8 1  
     9    2    4 1  
    10    6    7 2  
    11    2    3 2  
    12    5    6 1  
    13    1   14 1  
    14    1   15 1  
    15    4   16 1  
    16    5   17 1  
    17    6   18 1  
    18    7   19 1  
    19    8   20 1  
    20    9   21 1  
    21   10   22 1  
    22   11   23 1  
    23   12   24 1  
    24   13   25 1  
    25   13   26 1  
# Name:          frag3-176-9/31924 -- energy: -2.650787
# Creation time: Sat Jun  5 12:52:08 2010


@<TRIPOS>MOLECULE
frag3-176-9/31924 -- energy: -2.650787
   26    25     1     1     1
SMALL
USER_CHARGES


@<TRIPOS>ATOM
      1 N1         -4.0036   -1.4468   -1.5856 N.am       1 <1>        0.000
      2 C4         -4.7479   -2.1671   -2.4523 C.2        1 <1>        0.000
      3 O2         -4.9884   -3.3485   -2.2547 O.2        1 <1>        0.000
      4 C5         -5.2908   -1.5200   -3.6641 C.2        1 <1>        0.000
      5 C6         -6.1962   -2.0779   -4.4874 C.2        1 <1>        0.000
      6 C7         -6.7542   -1.4329   -5.6785 C.2        1 <1>        0.000
      7 C8         -6.9268   -2.0208   -6.8716 C.2        1 <1>        0.000
      8 C9         -7.5228   -1.3699   -8.0491 C.2        1 <1>        0.000
      9 C10        -7.2848   -1.6757   -9.3376 C.2        1 <1>        0.000
     10 C11        -6.3908   -2.7255   -9.8413 C.2        1 <1>        0.000
     11 C12        -5.1619   -2.9696   -9.3560 C.2        1 <1>        0.000
     12 C13        -4.2753   -4.0234   -9.8548 C.2        1 <1>        0.000
     13 C14        -3.0868   -4.3081   -9.3164 C.2        1 <1>        0.000
     14 H          -3.6295   -1.8880   -0.7455 H.spc      1 <1>        0.000
     15 H          -3.8156   -0.4616   -1.7711 H.spc      1 <1>        0.000
     16 H          -4.9324   -0.5200   -3.9082 H.spc      1 <1>        0.000
     17 H          -6.5404   -3.0847   -4.2508 H.spc      1 <1>        0.000
     18 H          -7.0539   -0.3889   -5.5876 H.spc      1 <1>        0.000
     19 H          -6.6020   -3.0560   -6.9766 H.spc      1 <1>        0.000
     20 H          -8.2268   -0.5598   -7.8586 H.spc      1 <1>        0.000
     21 H          -7.8106   -1.0820  -10.0854 H.spc      1 <1>        0.000
     22 H          -6.7471   -3.3474  -10.6625 H.spc      1 <1>        0.000
     23 H          -4.8019   -2.3438   -8.5394 H.spc      1 <1>        0.000
     24 H          -4.6041   -4.6082  -10.7139 H.spc      1 <1>        0.000
     25 H          -2.7284   -3.7422   -8.4565 H.spc      1 <1>        0.000
     26 H          -2.4752   -5.1064   -9.7368 H.spc      1 <1>        0.000
@<TRIPOS>BOND
     1    4    5 2  
     2   10   11 2  
     3    1    2 am 
     4   12   13 2  
     5    8    9 2  
     6    9   10 1  
     7   11   12 1  
     8    7    8 1  
     9    2    4 1  
    10    6    7 2  
    11    2    3 2  
    12    5    6 1  
    13    1   14 1  
    14    1   15 1  
    15    4   16 1  
    16    5   17 1  
    17    6   18 1  
    18    7   19 1  
    19    8   20 1  
    20    9   21 1  
    21   10   22 1  
    22   11   23 1  
    23   12   24 1  
    24   13   25 1  
    25   13   26 1  
# Name:          frag3-176-9/31924 -- energy: -2.498361
# Creation time: Sat Jun  5 12:52:08 2010


@<TRIPOS>MOLECULE
frag3-176-9/31924 -- energy: -2.498361
   26    25     1     1     1
SMALL
USER_CHARGES


@<TRIPOS>ATOM
      1 N1         -4.5088   -3.4940   -1.9939 N.am       1 <1>        0.000
      2 C4         -4.8620   -2.2643   -2.4251 C.2        1 <1>        0.000
      3 O2         -4.6523   -1.2684   -1.7488 O.2        1 <1>        0.000
      4 C5         -5.5081   -2.1093   -3.7430 C.2        1 <1>        0.000
      5 C6         -6.4926   -1.2310   -4.0141 C.2        1 <1>        0.000
      6 C7         -7.1155   -1.0604   -5.3284 C.2        1 <1>        0.000
      7 C8         -6.5414   -1.3766   -6.5024 C.2        1 <1>        0.000
      8 C9         -7.1892   -1.2441   -7.8151 C.2        1 <1>        0.000
      9 C10        -6.7908   -1.8185   -8.9626 C.2        1 <1>        0.000
     10 C11        -5.6381   -2.7049   -9.1578 C.2        1 <1>        0.000
     11 C12        -5.2146   -3.1534  -10.3498 C.2        1 <1>        0.000
     12 C13        -4.0596   -4.0357  -10.5316 C.2        1 <1>        0.000
     13 C14        -4.0573   -5.3257  -10.1768 C.2        1 <1>        0.000
     14 H          -4.0569   -3.6059   -1.0863 H.spc      1 <1>        0.000
     15 H          -4.6939   -4.3111   -2.5757 H.spc      1 <1>        0.000
     16 H          -5.1642   -2.7510   -4.5543 H.spc      1 <1>        0.000
     17 H          -6.8507   -0.6033   -3.1981 H.spc      1 <1>        0.000
     18 H          -8.1228   -0.6448   -5.3572 H.spc      1 <1>        0.000
     19 H          -5.5210   -1.7592   -6.4789 H.spc      1 <1>        0.000
     20 H          -8.0804   -0.6183   -7.8624 H.spc      1 <1>        0.000
     21 H          -7.3906   -1.6019   -9.8466 H.spc      1 <1>        0.000
     22 H          -5.0868   -3.0215   -8.2724 H.spc      1 <1>        0.000
     23 H          -5.7644   -2.8417  -11.2379 H.spc      1 <1>        0.000
     24 H          -3.1564   -3.6203  -10.9785 H.spc      1 <1>        0.000
     25 H          -4.9460   -5.7690   -9.7275 H.spc      1 <1>        0.000
     26 H          -3.1667   -5.9334  -10.3370 H.spc      1 <1>        0.000
@<TRIPOS>BOND
     1    4    5 2  
     2   10   11 2  
     3    1    2 am 
     4   12   13 2  
     5    8    9 2  
     6    9   10 1  
     7   11   12 1  
     8    7    8 1  
     9    2    4 1  
    10    6    7 2  
    11    2    3 2  
    12    5    6 1  
    13    1   14 1  
    14    1   15 1  
    15    4   16 1  
    16    5   17 1  
    17    6   18 1  
    18    7   19 1  
    19    8   20 1  
    20    9   21 1  
    21   10   22 1  
    22   11   23 1  
    23   12   24 1  
    24   13   25 1  
    25   13   26 1  
# Name:          frag3-176-9/31924 -- energy: -2.113603
# Creation time: Sat Jun  5 12:52:08 2010


@<TRIPOS>MOLECULE
frag3-176-9/31924 -- energy: -2.113603
   26    25     1     1     1
SMALL
USER_CHARGES


@<TRIPOS>ATOM
      1 N1         -3.8445   -2.1647   -2.0242 N.am       1 <1>        0.000
      2 C4         -5.1621   -1.9440   -1.8337 C.2        1 <1>        0.000
      3 O2         -5.6320   -1.8269   -0.7100 O.2        1 <1>        0.000
      4 C5         -6.0682   -1.8346   -2.9963 C.2        1 <1>        0.000
      5 C6         -5.6645   -1.7795   -4.2760 C.2        1 <1>        0.000
      6 C7         -6.5646   -1.6935   -5.4337 C.2        1 <1>        0.000
      7 C8         -6.1823   -1.4238   -6.6906 C.2        1 <1>        0.000
      8 C9         -7.0936   -1.3833   -7.8488 C.2        1 <1>        0.000
      9 C10        -6.9389   -2.0512   -9.0050 C.2        1 <1>        0.000
     10 C11        -5.8419   -2.9648   -9.3619 C.2        1 <1>        0.000
     11 C12        -5.7018   -3.5414  -10.5653 C.2        1 <1>        0.000
     12 C13        -4.5978   -4.4468  -10.9127 C.2        1 <1>        0.000
     13 C14        -3.3383   -4.0319  -11.0910 C.2        1 <1>        0.000
     14 H          -3.2184   -2.2371   -1.2223 H.spc      1 <1>        0.000
     15 H          -3.4747   -2.2591   -2.9701 H.spc      1 <1>        0.000
     16 H          -7.1399   -1.7959   -2.8012 H.spc      1 <1>        0.000
     17 H          -4.5920   -1.8001   -4.4695 H.spc      1 <1>        0.000
     18 H          -7.6269   -1.8622   -5.2573 H.spc      1 <1>        0.000
     19 H          -5.1261   -1.2208   -6.8679 H.spc      1 <1>        0.000
     20 H          -7.9772   -0.7514   -7.7590 H.spc      1 <1>        0.000
     21 H          -7.7099   -1.8996   -9.7604 H.spc      1 <1>        0.000
     22 H          -5.0952   -3.1874   -8.5997 H.spc      1 <1>        0.000
     23 H          -6.4494   -3.3260  -11.3287 H.spc      1 <1>        0.000
     24 H          -4.8156   -5.5083  -11.0309 H.spc      1 <1>        0.000
     25 H          -3.0913   -2.9762  -10.9792 H.spc      1 <1>        0.000
     26 H          -2.5593   -4.7496  -11.3480 H.spc      1 <1>        0.000
@<TRIPOS>BOND
     1    4    5 2  
     2   10   11 2  
     3    1    2 am 
     4   12   13 2  
     5    8    9 2  
     6    9   10 1  
     7   11   12 1  
     8    7    8 1  
     9    2    4 1  
    10    6    7 2  
    11    2    3 2  
    12    5    6 1  
    13    1   14 1  
    14    1   15 1  
    15    4   16 1  
    16    5   17 1  
    17    6   18 1  
    18    7   19 1  
    19    8   20 1  
    20    9   21 1  
    21   10   22 1  
    22   11   23 1  
    23   12   24 1  
    24   13   25 1  
    25   13   26 1  
# Name:          frag3-176-9/31924 -- energy: -2.634166
# Creation time: Sat Jun  5 12:52:08 2010


@<TRIPOS>MOLECULE
frag3-176-9/31924 -- energy: -2.634166
   26    25     1     1     1
SMALL
USER_CHARGES


@<TRIPOS>ATOM
      1 N1         -5.6127   -2.0314   -0.7485 N.am       1 <1>        0.000
      2 C4         -5.0865   -1.9774   -1.9910 C.2        1 <1>        0.000
      3 O2         -3.9073   -2.2244   -2.1936 O.2        1 <1>        0.000
      4 C5         -5.9480   -1.6168   -3.1354 C.2        1 <1>        0.000
      5 C6         -5.7357   -2.0087   -4.4044 C.2        1 <1>        0.000
      6 C7         -6.5983   -1.6724   -5.5398 C.2        1 <1>        0.000
      7 C8         -6.2140   -1.6343   -6.8243 C.2        1 <1>        0.000
      8 C9         -7.1031   -1.3337   -7.9573 C.2        1 <1>        0.000
      9 C10        -6.8889   -1.6525   -9.2466 C.2        1 <1>        0.000
     10 C11        -5.7368   -2.3781   -9.7944 C.2        1 <1>        0.000
     11 C12        -5.4351   -3.6546   -9.4979 C.2        1 <1>        0.000
     12 C13        -4.2842   -4.3730  -10.0513 C.2        1 <1>        0.000
     13 C14        -4.0796   -4.5290  -11.3649 C.2        1 <1>        0.000
     14 H          -5.0227   -2.2825    0.0447 H.spc      1 <1>        0.000
     15 H          -6.6002   -1.8211   -0.6033 H.spc      1 <1>        0.000
     16 H          -6.8168   -0.9890   -2.9376 H.spc      1 <1>        0.000
     17 H          -4.8567   -2.6220   -4.6028 H.spc      1 <1>        0.000
     18 H          -7.6393   -1.4332   -5.3226 H.spc      1 <1>        0.000
     19 H          -5.1668   -1.8411   -7.0448 H.spc      1 <1>        0.000
     20 H          -8.0260   -0.8003   -7.7297 H.spc      1 <1>        0.000
     21 H          -7.6514   -1.3388   -9.9596 H.spc      1 <1>        0.000
     22 H          -5.0830   -1.8477  -10.4868 H.spc      1 <1>        0.000
     23 H          -6.0859   -4.1869   -8.8042 H.spc      1 <1>        0.000
     24 H          -3.5591   -4.8014   -9.3594 H.spc      1 <1>        0.000
     25 H          -4.7881   -4.1113  -12.0802 H.spc      1 <1>        0.000
     26 H          -3.2045   -5.0737  -11.7193 H.spc      1 <1>        0.000
@<TRIPOS>BOND
     1    4    5 2  
     2   10   11 2  
     3    1    2 am 
     4   12   13 2  
     5    8    9 2  
     6    9   10 1  
     7   11   12 1  
     8    7    8 1  
     9    2    4 1  
    10    6    7 2  
    11    2    3 2  
    12    5    6 1  
    13    1   14 1  
    14    1   15 1  
    15    4   16 1  
    16    5   17 1  
    17    6   18 1  
    18    7   19 1  
    19    8   20 1  
    20    9   21 1  
    21   10   22 1  
    22   11   23 1  
    23   12   24 1  
    24   13   25 1  
    25   13   26 1  
# Name:          frag3-176-9/31924 -- energy: -2.689174
# Creation time: Sat Jun  5 12:52:08 2010


@<TRIPOS>MOLECULE
frag3-176-9/31924 -- energy: -2.689174
   26    25     1     1     1
SMALL
USER_CHARGES


@<TRIPOS>ATOM
      1 N1         -4.7440   -3.1398   -1.7852 N.am       1 <1>        0.000
      2 C4         -5.3240   -1.9380   -1.9852 C.2        1 <1>        0.000
      3 O2         -5.4376   -1.1272   -1.0758 O.2        1 <1>        0.000
      4 C5         -5.8364   -1.5797   -3.3234 C.2        1 <1>        0.000
      5 C6         -5.1289   -1.6791   -4.4630 C.2        1 <1>        0.000
      6 C7         -5.6474   -1.3451   -5.7949 C.2        1 <1>        0.000
      7 C8         -6.7873   -1.8261   -6.3197 C.2        1 <1>        0.000
      8 C9         -7.3214   -1.4498   -7.6399 C.2        1 <1>        0.000
      9 C10        -6.9067   -1.9257   -8.8273 C.2        1 <1>        0.000
     10 C11        -5.8589   -2.9295   -9.0644 C.2        1 <1>        0.000
     11 C12        -5.4454   -3.3193  -10.2787 C.2        1 <1>        0.000
     12 C13        -4.3938   -4.3182  -10.5056 C.2        1 <1>        0.000
     13 C14        -3.7987   -4.5089  -11.6864 C.2        1 <1>        0.000
     14 H          -4.3897   -3.3877   -0.8614 H.spc      1 <1>        0.000
     15 H          -4.6599   -3.8004   -2.5578 H.spc      1 <1>        0.000
     16 H          -6.8591   -1.2089   -3.3922 H.spc      1 <1>        0.000
     17 H          -4.1000   -2.0319   -4.3926 H.spc      1 <1>        0.000
     18 H          -5.0640   -0.6549   -6.4043 H.spc      1 <1>        0.000
     19 H          -7.3555   -2.5438   -5.7279 H.spc      1 <1>        0.000
     20 H          -8.1282   -0.7171   -7.6559 H.spc      1 <1>        0.000
     21 H          -7.4017   -1.5231   -9.7110 H.spc      1 <1>        0.000
     22 H          -5.3869   -3.3872   -8.1951 H.spc      1 <1>        0.000
     23 H          -5.9187   -2.8671  -11.1503 H.spc      1 <1>        0.000
     24 H          -4.0816   -4.9379   -9.6650 H.spc      1 <1>        0.000
     25 H          -4.0884   -3.9053  -12.5465 H.spc      1 <1>        0.000
     26 H          -3.0234   -5.2681  -11.7897 H.spc      1 <1>        0.000
@<TRIPOS>BOND
     1    4    5 2  
     2   10   11 2  
     3    1    2 am 
     4   12   13 2  
     5    8    9 2  
     6    9   10 1  
     7   11   12 1  
     8    7    8 1  
     9    2    4 1  
    10    6    7 2  
    11    2    3 2  
    12    5    6 1  
    13    1   14 1  
    14    1   15 1  
    15    4   16 1  
    16    5   17 1  
    17    6   18 1  
    18    7   19 1  
    19    8   20 1  
    20    9   21 1  
    21   10   22 1  
    22   11   23 1  
    23   12   24 1  
    24   13   25 1  
    25   13   26 1  
# Name:          frag3-176-9/31924 -- energy: -2.643757
# Creation time: Sat Jun  5 12:52:08 2010


@<TRIPOS>MOLECULE
frag3-176-9/31924 -- energy: -2.643757
   26    25     1     1     1
SMALL
USER_CHARGES


@<TRIPOS>ATOM
      1 N1         -4.6493   -3.4861   -1.8976 N.am       1 <1>        0.000
      2 C4         -5.0845   -2.2908   -2.3505 C.2        1 <1>        0.000
      3 O2         -5.0998   -1.3046   -1.6294 O.2        1 <1>        0.000
      4 C5         -5.5490   -2.1629   -3.7459 C.2        1 <1>        0.000
      5 C6         -5.5938   -1.0073   -4.4346 C.2        1 <1>        0.000
      6 C7         -6.0365   -0.8830   -5.8245 C.2        1 <1>        0.000
      7 C8         -7.0967   -1.5163   -6.3578 C.2        1 <1>        0.000
      8 C9         -7.5567   -1.3561   -7.7446 C.2        1 <1>        0.000
      9 C10        -6.9603   -1.8614   -8.8397 C.2        1 <1>        0.000
     10 C11        -5.7521   -2.6923   -8.8896 C.2        1 <1>        0.000
     11 C12        -5.3483   -3.3869   -9.9630 C.2        1 <1>        0.000
     12 C13        -4.1385   -4.2113  -10.0044 C.2        1 <1>        0.000
     13 C14        -3.7649   -4.9273  -11.0678 C.2        1 <1>        0.000
     14 H          -4.3243   -3.5793   -0.9353 H.spc      1 <1>        0.000
     15 H          -4.6456   -4.2959   -2.5178 H.spc      1 <1>        0.000
     16 H          -5.8791   -3.0686   -4.2546 H.spc      1 <1>        0.000
     17 H          -5.2780   -0.0993   -3.9209 H.spc      1 <1>        0.000
     18 H          -5.4624   -0.2262   -6.4780 H.spc      1 <1>        0.000
     19 H          -7.6548   -2.1973   -5.7153 H.spc      1 <1>        0.000
     20 H          -8.4651   -0.7741   -7.9002 H.spc      1 <1>        0.000
     21 H          -7.4268   -1.6273   -9.7966 H.spc      1 <1>        0.000
     22 H          -5.1392   -2.7489   -7.9900 H.spc      1 <1>        0.000
     23 H          -5.9603   -3.3346  -10.8635 H.spc      1 <1>        0.000
     24 H          -3.5070   -4.2422   -9.1165 H.spc      1 <1>        0.000
     25 H          -4.3737   -4.9186  -11.9719 H.spc      1 <1>        0.000
     26 H          -2.8511   -5.5204  -11.0318 H.spc      1 <1>        0.000
@<TRIPOS>BOND
     1    4    5 2  
     2   10   11 2  
     3    1    2 am 
     4   12   13 2  
     5    8    9 2  
     6    9   10 1  
     7   11   12 1  
     8    7    8 1  
     9    2    4 1  
    10    6    7 2  
    11    2    3 2  
    12    5    6 1  
    13    1   14 1  
    14    1   15 1  
    15    4   16 1  
    16    5   17 1  
    17    6   18 1  
    18    7   19 1  
    19    8   20 1  
    20    9   21 1  
    21   10   22 1  
    22   11   23 1  
    23   12   24 1  
    24   13   25 1  
    25   13   26 1  
# Name:          frag3-176-9/31924 -- energy: -2.699061
# Creation time: Sat Jun  5 12:52:08 2010


@<TRIPOS>MOLECULE
frag3-176-9/31924 -- energy: -2.699061
   26    25     1     1     1
SMALL
USER_CHARGES


@<TRIPOS>ATOM
      1 N1         -5.4934   -3.2724   -1.6917 N.am       1 <1>        0.000
      2 C4         -4.9166   -2.4641   -2.6061 C.2        1 <1>        0.000
      3 O2         -3.8057   -1.9883   -2.4243 O.2        1 <1>        0.000
      4 C5         -5.6311   -2.1496   -3.8590 C.2        1 <1>        0.000
      5 C6         -5.8052   -0.9081   -4.3498 C.2        1 <1>        0.000
      6 C7         -6.4921   -0.6001   -5.6063 C.2        1 <1>        0.000
      7 C8         -6.5022   -1.3891   -6.6948 C.2        1 <1>        0.000
      8 C9         -7.2300   -1.0936   -7.9375 C.2        1 <1>        0.000
      9 C10        -7.2384   -1.8406   -9.0558 C.2        1 <1>        0.000
     10 C11        -6.5295   -3.1069   -9.2741 C.2        1 <1>        0.000
     11 C12        -5.1988   -3.2153   -9.4187 C.2        1 <1>        0.000
     12 C13        -4.4949   -4.4825   -9.6290 C.2        1 <1>        0.000
     13 C14        -3.2922   -4.5757  -10.2022 C.2        1 <1>        0.000
     14 H          -5.0010   -3.4976   -0.8273 H.spc      1 <1>        0.000
     15 H          -6.4216   -3.6580   -1.8652 H.spc      1 <1>        0.000
     16 H          -6.0473   -2.9816   -4.4271 H.spc      1 <1>        0.000
     17 H          -5.4073   -0.0740   -3.7718 H.spc      1 <1>        0.000
     18 H          -7.0374    0.3420   -5.6632 H.spc      1 <1>        0.000
     19 H          -5.9291   -2.3153   -6.6529 H.spc      1 <1>        0.000
     20 H          -7.8215   -0.1782   -7.9542 H.spc      1 <1>        0.000
     21 H          -7.8346   -1.4660   -9.8878 H.spc      1 <1>        0.000
     22 H          -7.1225   -4.0202   -9.3221 H.spc      1 <1>        0.000
     23 H          -4.6048   -2.3023   -9.3769 H.spc      1 <1>        0.000
     24 H          -4.9800   -5.4012   -9.2991 H.spc      1 <1>        0.000
     25 H          -2.7799   -3.6761  -10.5433 H.spc      1 <1>        0.000
     26 H          -2.8230   -5.5513  -10.3289 H.spc      1 <1>        0.000
@<TRIPOS>BOND
     1    4    5 2  
     2   10   11 2  
     3    1    2 am 
     4   12   13 2  
     5    8    9 2  
     6    9   10 1  
     7   11   12 1  
     8    7    8 1  
     9    2    4 1  
    10    6    7 2  
    11    2    3 2  
    12    5    6 1  
    13    1   14 1  
    14    1   15 1  
    15    4   16 1  
    16    5   17 1  
    17    6   18 1  
    18    7   19 1  
    19    8   20 1  
    20    9   21 1  
    21   10   22 1  
    22   11   23 1  
    23   12   24 1  
    24   13   25 1  
    25   13   26 1  
# Name:          frag3-176-9/31924 -- energy: -2.739170
# Creation time: Sat Jun  5 12:52:08 2010


@<TRIPOS>MOLECULE
frag3-176-9/31924 -- energy: -2.739170
   26    25     1     1     1
SMALL
USER_CHARGES


@<TRIPOS>ATOM
      1 N1         -5.8189   -2.5132   -1.1924 N.am       1 <1>        0.000
      2 C4         -5.1365   -1.8607   -2.1566 C.2        1 <1>        0.000
      3 O2         -4.0102   -1.4277   -1.9567 O.2        1 <1>        0.000
      4 C5         -5.7504   -1.6586   -3.4838 C.2        1 <1>        0.000
      5 C6         -5.6541   -2.5231   -4.5098 C.2        1 <1>        0.000
      6 C7         -6.2820   -2.3306   -5.8206 C.2        1 <1>        0.000
      7 C8         -6.5346   -1.1368   -6.3871 C.2        1 <1>        0.000
      8 C9         -7.1276   -0.9544   -7.7215 C.2        1 <1>        0.000
      9 C10        -6.7394   -1.5797   -8.8493 C.2        1 <1>        0.000
     10 C11        -5.6627   -2.5695   -8.9914 C.2        1 <1>        0.000
     11 C12        -5.4352   -3.2893  -10.0990 C.2        1 <1>        0.000
     12 C13        -4.3553   -4.2729  -10.2327 C.2        1 <1>        0.000
     13 C14        -4.1234   -4.9697  -11.3483 C.2        1 <1>        0.000
     14 H          -5.3964   -2.6537   -0.2747 H.spc      1 <1>        0.000
     15 H          -6.7572   -2.8659   -1.3813 H.spc      1 <1>        0.000
     16 H          -6.3220   -0.7444   -3.6436 H.spc      1 <1>        0.000
     17 H          -5.0687   -3.4296   -4.3560 H.spc      1 <1>        0.000
     18 H          -6.5658   -3.2228   -6.3787 H.spc      1 <1>        0.000
     19 H          -6.2824   -0.2421   -5.8179 H.spc      1 <1>        0.000
     20 H          -7.9553   -0.2500   -7.8045 H.spc      1 <1>        0.000
     21 H          -7.2845   -1.3231   -9.7577 H.spc      1 <1>        0.000
     22 H          -5.0040   -2.7293   -8.1378 H.spc      1 <1>        0.000
     23 H          -6.0937   -3.1340  -10.9536 H.spc      1 <1>        0.000
     24 H          -3.7061   -4.4447   -9.3741 H.spc      1 <1>        0.000
     25 H          -4.7544   -4.8214  -12.2246 H.spc      1 <1>        0.000
     26 H          -3.3031   -5.6867  -11.3824 H.spc      1 <1>        0.000
@<TRIPOS>BOND
     1    4    5 2  
     2   10   11 2  
     3    1    2 am 
     4   12   13 2  
     5    8    9 2  
     6    9   10 1  
     7   11   12 1  
     8    7    8 1  
     9    2    4 1  
    10    6    7 2  
    11    2    3 2  
    12    5    6 1  
    13    1   14 1  
    14    1   15 1  
    15    4   16 1  
    16    5   17 1  
    17    6   18 1  
    18    7   19 1  
    19    8   20 1  
    20    9   21 1  
    21   10   22 1  
    22   11   23 1  
    23   12   24 1  
    24   13   25 1  
    25   13   26 1  
# Name:          frag3-176-9/31924 -- energy: -2.410123
# Creation time: Sat Jun  5 12:52:08 2010


@<TRIPOS>MOLECULE
frag3-176-9/31924 -- energy: -2.410123
   26    25     1     1     1
SMALL
USER_CHARGES


@<TRIPOS>ATOM
      1 N1         -3.9210   -2.8050   -1.8976 N.am       1 <1>        0.000
      2 C4         -4.9548   -1.9489   -2.0439 C.2        1 <1>        0.000
      3 O2         -5.5724   -1.5270   -1.0768 O.2        1 <1>        0.000
      4 C5         -5.3500   -1.4987   -3.3940 C.2        1 <1>        0.000
      5 C6         -6.5535   -1.7221   -3.9507 C.2        1 <1>        0.000
      6 C7         -6.9556   -1.2584   -5.2831 C.2        1 <1>        0.000
      7 C8         -6.7059   -1.9035   -6.4335 C.2        1 <1>        0.000
      8 C9         -7.1475   -1.4457   -7.7616 C.2        1 <1>        0.000
      9 C10        -6.6614   -1.8512   -8.9465 C.2        1 <1>        0.000
     10 C11        -5.6007   -2.8415   -9.1783 C.2        1 <1>        0.000
     11 C12        -5.1821   -3.2348  -10.3897 C.2        1 <1>        0.000
     12 C13        -4.1198   -4.2222  -10.6110 C.2        1 <1>        0.000
     13 C14        -3.9056   -4.8275  -11.7824 C.2        1 <1>        0.000
     14 H          -3.6413   -3.1124   -0.9661 H.spc      1 <1>        0.000
     15 H          -3.4198   -3.1444   -2.7186 H.spc      1 <1>        0.000
     16 H          -4.6149   -0.9469   -3.9799 H.spc      1 <1>        0.000
     17 H          -7.2823   -2.2881   -3.3705 H.spc      1 <1>        0.000
     18 H          -7.4999   -0.3160   -5.3437 H.spc      1 <1>        0.000
     19 H          -6.1363   -2.8313   -6.3809 H.spc      1 <1>        0.000
     20 H          -7.9471   -0.7053   -7.7856 H.spc      1 <1>        0.000
     21 H          -7.1021   -1.3957   -9.8333 H.spc      1 <1>        0.000
     22 H          -5.1218   -3.2865   -8.3061 H.spc      1 <1>        0.000
     23 H          -5.6605   -2.7937  -11.2642 H.spc      1 <1>        0.000
     24 H          -3.4697   -4.4758   -9.7737 H.spc      1 <1>        0.000
     25 H          -4.5382   -4.5959  -12.6393 H.spc      1 <1>        0.000
     26 H          -3.0982   -5.5530  -11.8814 H.spc      1 <1>        0.000
@<TRIPOS>BOND
     1    4    5 2  
     2   10   11 2  
     3    1    2 am 
     4   12   13 2  
     5    8    9 2  
     6    9   10 1  
     7   11   12 1  
     8    7    8 1  
     9    2    4 1  
    10    6    7 2  
    11    2    3 2  
    12    5    6 1  
    13    1   14 1  
    14    1   15 1  
    15    4   16 1  
    16    5   17 1  
    17    6   18 1  
    18    7   19 1  
    19    8   20 1  
    20    9   21 1  
    21   10   22 1  
    22   11   23 1  
    23   12   24 1  
    24   13   25 1  
    25   13   26 1  
# Name:          frag3-176-9/31924 -- energy: -2.281280
# Creation time: Sat Jun  5 12:52:08 2010


@<TRIPOS>MOLECULE
frag3-176-9/31924 -- energy: -2.281280
   26    25     1     1     1
SMALL
USER_CHARGES


@<TRIPOS>ATOM
      1 N1         -4.0609   -1.1404   -1.2176 N.am       1 <1>        0.000
      2 C4         -5.0256   -1.8205   -1.8741 C.2        1 <1>        0.000
      3 O2         -5.5263   -2.8296   -1.4011 O.2        1 <1>        0.000
      4 C5         -5.4949   -1.3388   -3.1894 C.2        1 <1>        0.000
      5 C6         -6.3660   -1.9948   -3.9765 C.2        1 <1>        0.000
      6 C7         -6.8519   -1.5108   -5.2714 C.2        1 <1>        0.000
      7 C8         -6.6473   -2.1151   -6.4519 C.2        1 <1>        0.000
      8 C9         -7.1727   -1.6363   -7.7404 C.2        1 <1>        0.000
      9 C10        -6.7102   -1.9593   -8.9597 C.2        1 <1>        0.000
     10 C11        -5.5972   -2.8636   -9.2754 C.2        1 <1>        0.000
     11 C12        -5.2679   -3.2605  -10.5129 C.2        1 <1>        0.000
     12 C13        -4.1522   -4.1610  -10.8187 C.2        1 <1>        0.000
     13 C14        -3.7575   -4.4557  -12.0602 C.2        1 <1>        0.000
     14 H          -3.7360   -1.4669   -0.3075 H.spc      1 <1>        0.000
     15 H          -3.6572   -0.3003   -1.6319 H.spc      1 <1>        0.000
     16 H          -5.1080   -0.3846   -3.5471 H.spc      1 <1>        0.000
     17 H          -6.7379   -2.9573   -3.6254 H.spc      1 <1>        0.000
     18 H          -7.4263   -0.5845   -5.2761 H.spc      1 <1>        0.000
     19 H          -6.0489   -3.0261   -6.4568 H.spc      1 <1>        0.000
     20 H          -8.0205   -0.9523   -7.7017 H.spc      1 <1>        0.000
     21 H          -7.2170   -1.4994   -9.8081 H.spc      1 <1>        0.000
     22 H          -4.9971   -3.2382   -8.4461 H.spc      1 <1>        0.000
     23 H          -5.8677   -2.8902  -11.3443 H.spc      1 <1>        0.000
     24 H          -3.6147   -4.6154   -9.9864 H.spc      1 <1>        0.000
     25 H          -4.2738   -4.0180  -12.9146 H.spc      1 <1>        0.000
     26 H          -2.9191   -5.1339  -12.2190 H.spc      1 <1>        0.000
@<TRIPOS>BOND
     1    4    5 2  
     2   10   11 2  
     3    1    2 am 
     4   12   13 2  
     5    8    9 2  
     6    9   10 1  
     7   11   12 1  
     8    7    8 1  
     9    2    4 1  
    10    6    7 2  
    11    2    3 2  
    12    5    6 1  
    13    1   14 1  
    14    1   15 1  
    15    4   16 1  
    16    5   17 1  
    17    6   18 1  
    18    7   19 1  
    19    8   20 1  
    20    9   21 1  
    21   10   22 1  
    22   11   23 1  
    23   12   24 1  
    24   13   25 1  
    25   13   26 1  
# Name:          frag3-176-9/31924 -- energy: -2.468893
# Creation time: Sat Jun  5 12:52:08 2010


@<TRIPOS>MOLECULE
frag3-176-9/31924 -- energy: -2.468893
   26    25     1     1     1
SMALL
USER_CHARGES


@<TRIPOS>ATOM
      1 N1         -5.3319   -3.1648   -1.3452 N.am       1 <1>        0.000
      2 C4         -5.2581   -1.8658   -1.7048 C.2        1 <1>        0.000
      3 O2         -4.6394   -1.0536   -1.0312 O.2        1 <1>        0.000
      4 C5         -5.9322   -1.4012   -2.9350 C.2        1 <1>        0.000
      5 C6         -5.5230   -1.6871   -4.1824 C.2        1 <1>        0.000
      6 C7         -6.2064   -1.2470   -5.4065 C.2        1 <1>        0.000
      7 C8         -6.1635   -1.8841   -6.5858 C.2        1 <1>        0.000
      8 C9         -6.8910   -1.4529   -7.7936 C.2        1 <1>        0.000
      9 C10        -6.6886   -1.8956   -9.0457 C.2        1 <1>        0.000
     10 C11        -5.7144   -2.9092   -9.4810 C.2        1 <1>        0.000
     11 C12        -5.8126   -3.6083  -10.6219 C.2        1 <1>        0.000
     12 C13        -4.8311   -4.6151  -11.0491 C.2        1 <1>        0.000
     13 C14        -3.6381   -4.3017  -11.5672 C.2        1 <1>        0.000
     14 H          -4.8661   -3.4863   -0.4966 H.spc      1 <1>        0.000
     15 H          -5.8534   -3.8248   -1.9220 H.spc      1 <1>        0.000
     16 H          -6.8233   -0.7836   -2.8226 H.spc      1 <1>        0.000
     17 H          -4.6204   -2.2879   -4.2942 H.spc      1 <1>        0.000
     18 H          -6.7944   -0.3308   -5.3517 H.spc      1 <1>        0.000
     19 H          -5.5491   -2.7817   -6.6562 H.spc      1 <1>        0.000
     20 H          -7.6689   -0.7017   -7.6573 H.spc      1 <1>        0.000
     21 H          -7.3135   -1.4566   -9.8234 H.spc      1 <1>        0.000
     22 H          -4.8583   -3.1044   -8.8352 H.spc      1 <1>        0.000
     23 H          -6.6692   -3.4187  -11.2688 H.spc      1 <1>        0.000
     24 H          -5.0876   -5.6687  -10.9385 H.spc      1 <1>        0.000
     25 H          -3.3547   -3.2563  -11.6896 H.spc      1 <1>        0.000
     26 H          -2.9496   -5.0917  -11.8670 H.spc      1 <1>        0.000
@<TRIPOS>BOND
     1    4    5 2  
     2   10   11 2  
     3    1    2 am 
     4   12   13 2  
     5    8    9 2  
     6    9   10 1  
     7   11   12 1  
     8    7    8 1  
     9    2    4 1  
    10    6    7 2  
    11    2    3 2  
    12    5    6 1  
    13    1   14 1  
    14    1   15 1  
    15    4   16 1  
    16    5   17 1  
    17    6   18 1  
    18    7   19 1  
    19    8   20 1  
    20    9   21 1  
    21   10   22 1  
    22   11   23 1  
    23   12   24 1  
    24   13   25 1  
    25   13   26 1  
# Name:          frag3-176-9/31924 -- energy: -2.265878
# Creation time: Sat Jun  5 12:52:08 2010


@<TRIPOS>MOLECULE
frag3-176-9/31924 -- energy: -2.265878
   26    25     1     1     1
SMALL
USER_CHARGES


@<TRIPOS>ATOM
      1 N1         -5.1555   -1.5156   -1.4592 N.am       1 <1>        0.000
      2 C4         -4.8094   -2.3215   -2.4838 C.2        1 <1>        0.000
      3 O2         -3.9098   -3.1442   -2.3702 O.2        1 <1>        0.000
      4 C5         -5.5246   -2.2270   -3.7722 C.2        1 <1>        0.000
      5 C6         -6.4185   -1.2713   -4.0826 C.2        1 <1>        0.000
      6 C7         -7.1082   -1.1645   -5.3723 C.2        1 <1>        0.000
      7 C8         -6.5149   -1.2638   -6.5739 C.2        1 <1>        0.000
      8 C9         -7.2225   -1.2009   -7.8632 C.2        1 <1>        0.000
      9 C10        -6.8550   -1.8094   -9.0039 C.2        1 <1>        0.000
     10 C11        -5.6839   -2.6717   -9.2105 C.2        1 <1>        0.000
     11 C12        -5.6732   -3.7606   -9.9962 C.2        1 <1>        0.000
     12 C13        -4.4952   -4.6118  -10.1969 C.2        1 <1>        0.000
     13 C14        -3.2596   -4.1238  -10.3646 C.2        1 <1>        0.000
     14 H          -4.6646   -1.5846   -0.5678 H.spc      1 <1>        0.000
     15 H          -5.9082   -0.8371   -1.5758 H.spc      1 <1>        0.000
     16 H          -5.3130   -2.9859   -4.5254 H.spc      1 <1>        0.000
     17 H          -6.6462   -0.5240   -3.3225 H.spc      1 <1>        0.000
     18 H          -8.1842   -0.9914   -5.3549 H.spc      1 <1>        0.000
     19 H          -5.4337   -1.4005   -6.5954 H.spc      1 <1>        0.000
     20 H          -8.1331   -0.6027   -7.8960 H.spc      1 <1>        0.000
     21 H          -7.4959   -1.6451   -9.8701 H.spc      1 <1>        0.000
     22 H          -4.7619   -2.4102   -8.6913 H.spc      1 <1>        0.000
     23 H          -6.5937   -4.0278  -10.5153 H.spc      1 <1>        0.000
     24 H          -4.6324   -5.6931  -10.2101 H.spc      1 <1>        0.000
     25 H          -3.0932   -3.0466  -10.3558 H.spc      1 <1>        0.000
     26 H          -2.4202   -4.8037  -10.5099 H.spc      1 <1>        0.000
@<TRIPOS>BOND
     1    4    5 2  
     2   10   11 2  
     3    1    2 am 
     4   12   13 2  
     5    8    9 2  
     6    9   10 1  
     7   11   12 1  
     8    7    8 1  
     9    2    4 1  
    10    6    7 2  
    11    2    3 2  
    12    5    6 1  
    13    1   14 1  
    14    1   15 1  
    15    4   16 1  
    16    5   17 1  
    17    6   18 1  
    18    7   19 1  
    19    8   20 1  
    20    9   21 1  
    21   10   22 1  
    22   11   23 1  
    23   12   24 1  
    24   13   25 1  
    25   13   26 1  
# Name:          frag3-176-9/31924 -- energy: -2.411502
# Creation time: Sat Jun  5 12:52:08 2010


@<TRIPOS>MOLECULE
frag3-176-9/31924 -- energy: -2.411502
   26    25     1     1     1
SMALL
USER_CHARGES


@<TRIPOS>ATOM
      1 N1         -5.9359   -2.4690   -1.0085 N.am       1 <1>        0.000
      2 C4         -5.0570   -1.8348   -1.8123 C.2        1 <1>        0.000
      3 O2         -3.8866   -1.6898   -1.4872 O.2        1 <1>        0.000
      4 C5         -5.5028   -1.3007   -3.1162 C.2        1 <1>        0.000
      5 C6         -6.2823   -1.9625   -3.9863 C.2        1 <1>        0.000
      6 C7         -6.7424   -1.4248   -5.2726 C.2        1 <1>        0.000
      7 C8         -6.3464   -1.8612   -6.4779 C.2        1 <1>        0.000
      8 C9         -6.8462   -1.3374   -7.7614 C.2        1 <1>        0.000
      9 C10        -6.5006   -1.7676   -8.9862 C.2        1 <1>        0.000
     10 C11        -5.5647   -2.8538   -9.3134 C.2        1 <1>        0.000
     11 C12        -5.3384   -3.3088  -10.5540 C.2        1 <1>        0.000
     12 C13        -4.3987   -4.3916  -10.8715 C.2        1 <1>        0.000
     13 C14        -4.2282   -4.8843  -12.1017 C.2        1 <1>        0.000
     14 H          -5.6291   -2.8392   -0.1089 H.spc      1 <1>        0.000
     15 H          -6.9071   -2.5782   -1.3005 H.spc      1 <1>        0.000
     16 H          -5.1754   -0.2980   -3.3911 H.spc      1 <1>        0.000
     17 H          -6.5961   -2.9714   -3.7184 H.spc      1 <1>        0.000
     18 H          -7.4623   -0.6068   -5.2463 H.spc      1 <1>        0.000
     19 H          -5.6036   -2.6583   -6.5100 H.spc      1 <1>        0.000
     20 H          -7.5668   -0.5210   -7.7122 H.spc      1 <1>        0.000
     21 H          -6.9644   -1.2558   -9.8294 H.spc      1 <1>        0.000
     22 H          -5.0189   -3.3198   -8.4930 H.spc      1 <1>        0.000
     23 H          -5.8848   -2.8472  -11.3765 H.spc      1 <1>        0.000
     24 H          -3.8083   -4.8164  -10.0597 H.spc      1 <1>        0.000
     25 H          -4.8036   -4.4809  -12.9349 H.spc      1 <1>        0.000
     26 H          -3.5137   -5.6896  -12.2721 H.spc      1 <1>        0.000
@<TRIPOS>BOND
     1    4    5 2  
     2   10   11 2  
     3    1    2 am 
     4   12   13 2  
     5    8    9 2  
     6    9   10 1  
     7   11   12 1  
     8    7    8 1  
     9    2    4 1  
    10    6    7 2  
    11    2    3 2  
    12    5    6 1  
    13    1   14 1  
    14    1   15 1  
    15    4   16 1  
    16    5   17 1  
    17    6   18 1  
    18    7   19 1  
    19    8   20 1  
    20    9   21 1  
    21   10   22 1  
    22   11   23 1  
    23   12   24 1  
    24   13   25 1  
    25   13   26 1  
# Name:          frag3-176-9/31924 -- energy: -2.722538
# Creation time: Sat Jun  5 12:52:08 2010


@<TRIPOS>MOLECULE
frag3-176-9/31924 -- energy: -2.722538
   26    25     1     1     1
SMALL
USER_CHARGES


@<TRIPOS>ATOM
      1 N1         -3.5679   -2.6374   -2.2289 N.am       1 <1>        0.000
      2 C4         -4.7825   -2.1468   -2.5585 C.2        1 <1>        0.000
      3 O2         -5.5327   -1.6848   -1.7120 O.2        1 <1>        0.000
      4 C5         -5.2191   -2.1588   -3.9699 C.2        1 <1>        0.000
      5 C6         -6.5016   -2.1031   -4.3727 C.2        1 <1>        0.000
      6 C7         -6.9348   -2.0863   -5.7730 C.2        1 <1>        0.000
      7 C8         -7.1435   -0.9790   -6.5049 C.2        1 <1>        0.000
      8 C9         -7.5323   -0.9771   -7.9250 C.2        1 <1>        0.000
      9 C10        -6.8891   -1.6167   -8.9201 C.2        1 <1>        0.000
     10 C11        -5.6824   -2.4479   -8.8086 C.2        1 <1>        0.000
     11 C12        -5.1766   -3.1882   -9.8052 C.2        1 <1>        0.000
     12 C13        -3.9698   -4.0132   -9.6849 C.2        1 <1>        0.000
     13 C14        -3.6982   -5.0472  -10.4858 C.2        1 <1>        0.000
     14 H          -3.2604   -2.6270   -1.2564 H.spc      1 <1>        0.000
     15 H          -2.9582   -3.0183   -2.9525 H.spc      1 <1>        0.000
     16 H          -4.4484   -2.2168   -4.7385 H.spc      1 <1>        0.000
     17 H          -7.2730   -2.0680   -3.6034 H.spc      1 <1>        0.000
     18 H          -7.1007   -3.0479   -6.2588 H.spc      1 <1>        0.000
     19 H          -7.0161   -0.0147   -6.0129 H.spc      1 <1>        0.000
     20 H          -8.4209   -0.4065   -8.1951 H.spc      1 <1>        0.000
     21 H          -7.3102   -1.5056   -9.9193 H.spc      1 <1>        0.000
     22 H          -5.1632   -2.4636   -7.8503 H.spc      1 <1>        0.000
     23 H          -5.6942   -3.1763  -10.7644 H.spc      1 <1>        0.000
     24 H          -3.2553   -3.7691   -8.8987 H.spc      1 <1>        0.000
     25 H          -4.3924   -5.3172  -11.2816 H.spc      1 <1>        0.000
     26 H          -2.7824   -5.6210  -10.3435 H.spc      1 <1>        0.000
@<TRIPOS>BOND
     1    4    5 2  
     2   10   11 2  
     3    1    2 am 
     4   12   13 2  
     5    8    9 2  
     6    9   10 1  
     7   11   12 1  
     8    7    8 1  
     9    2    4 1  
    10    6    7 2  
    11    2    3 2  
    12    5    6 1  
    13    1   14 1  
    14    1   15 1  
    15    4   16 1  
    16    5   17 1  
    17    6   18 1  
    18    7   19 1  
    19    8   20 1  
    20    9   21 1  
    21   10   22 1  
    22   11   23 1  
    23   12   24 1  
    24   13   25 1  
    25   13   26 1  
# Name:          frag3-176-9/31924 -- energy: -2.457473
# Creation time: Sat Jun  5 12:52:08 2010


@<TRIPOS>MOLECULE
frag3-176-9/31924 -- energy: -2.457473
   26    25     1     1     1
SMALL
USER_CHARGES


@<TRIPOS>ATOM
      1 N1         -4.6722   -1.0614   -1.0989 N.am       1 <1>        0.000
      2 C4         -4.8923   -1.9410   -2.0994 C.2        1 <1>        0.000
      3 O2         -4.6459   -3.1307   -1.9652 O.2        1 <1>        0.000
      4 C5         -5.4432   -1.4672   -3.3849 C.2        1 <1>        0.000
      5 C6         -6.4407   -2.0691   -4.0566 C.2        1 <1>        0.000
      6 C7         -7.0023   -1.5905   -5.3228 C.2        1 <1>        0.000
      7 C8         -6.5205   -1.8803   -6.5419 C.2        1 <1>        0.000
      8 C9         -7.1152   -1.4239   -7.8081 C.2        1 <1>        0.000
      9 C10        -6.7527   -1.8081   -9.0435 C.2        1 <1>        0.000
     10 C11        -5.7016   -2.7680   -9.4008 C.2        1 <1>        0.000
     11 C12        -5.6075   -3.3860  -10.5893 C.2        1 <1>        0.000
     12 C13        -4.5493   -4.3399  -10.9342 C.2        1 <1>        0.000
     13 C14        -3.2868   -4.2201  -10.5037 C.2        1 <1>        0.000
     14 H          -4.2930   -1.3854   -0.2092 H.spc      1 <1>        0.000
     15 H          -4.8851   -0.0729   -1.2328 H.spc      1 <1>        0.000
     16 H          -5.0109   -0.5661   -3.8200 H.spc      1 <1>        0.000
     17 H          -6.8619   -2.9786   -3.6283 H.spc      1 <1>        0.000
     18 H          -7.8813   -0.9480   -5.2706 H.spc      1 <1>        0.000
     19 H          -5.6243   -2.4982   -6.5978 H.spc      1 <1>        0.000
     20 H          -7.9299   -0.7033   -7.7368 H.spc      1 <1>        0.000
     21 H          -7.2995   -1.3572   -9.8716 H.spc      1 <1>        0.000
     22 H          -4.9451   -2.9950   -8.6496 H.spc      1 <1>        0.000
     23 H          -6.3634   -3.1650  -11.3428 H.spc      1 <1>        0.000
     24 H          -4.8020   -5.1873  -11.5715 H.spc      1 <1>        0.000
     25 H          -3.0059   -3.3826   -9.8651 H.spc      1 <1>        0.000
     26 H          -2.5402   -4.9601  -10.7919 H.spc      1 <1>        0.000
@<TRIPOS>BOND
     1    4    5 2  
     2   10   11 2  
     3    1    2 am 
     4   12   13 2  
     5    8    9 2  
     6    9   10 1  
     7   11   12 1  
     8    7    8 1  
     9    2    4 1  
    10    6    7 2  
    11    2    3 2  
    12    5    6 1  
    13    1   14 1  
    14    1   15 1  
    15    4   16 1  
    16    5   17 1  
    17    6   18 1  
    18    7   19 1  
    19    8   20 1  
    20    9   21 1  
    21   10   22 1  
    22   11   23 1  
    23   12   24 1  
    24   13   25 1  
    25   13   26 1  
# Name:          frag3-176-9/31924 -- energy: -2.187480
# Creation time: Sat Jun  5 12:52:08 2010


@<TRIPOS>MOLECULE
frag3-176-9/31924 -- energy: -2.187480
   26    25     1     1     1
SMALL
USER_CHARGES


@<TRIPOS>ATOM
      1 N1         -3.8142   -2.4996   -2.2765 N.am       1 <1>        0.000
      2 C4         -5.0929   -2.1119   -2.0888 C.2        1 <1>        0.000
      3 O2         -5.6047   -2.1225   -0.9773 O.2        1 <1>        0.000
      4 C5         -5.9032   -1.6572   -3.2382 C.2        1 <1>        0.000
      5 C6         -5.4582   -1.5817   -4.5037 C.2        1 <1>        0.000
      6 C7         -6.2709   -1.1546   -5.6497 C.2        1 <1>        0.000
      7 C8         -6.4561   -1.8658   -6.7720 C.2        1 <1>        0.000
      8 C9         -7.3119   -1.4435   -7.8955 C.2        1 <1>        0.000
      9 C10        -7.3477   -1.9941   -9.1217 C.2        1 <1>        0.000
     10 C11        -6.5503   -3.1344   -9.5994 C.2        1 <1>        0.000
     11 C12        -5.2146   -3.1148   -9.7331 C.2        1 <1>        0.000
     12 C13        -4.4228   -4.2587  -10.2041 C.2        1 <1>        0.000
     13 C14        -3.1828   -4.1476  -10.6892 C.2        1 <1>        0.000
     14 H          -3.2536   -2.8097   -1.4828 H.spc      1 <1>        0.000
     15 H          -3.4082   -2.4826   -3.2121 H.spc      1 <1>        0.000
     16 H          -6.9347   -1.3623   -3.0456 H.spc      1 <1>        0.000
     17 H          -4.4207   -1.8569   -4.6930 H.spc      1 <1>        0.000
     18 H          -6.7621   -0.1838   -5.5833 H.spc      1 <1>        0.000
     19 H          -5.9385   -2.8211   -6.8591 H.spc      1 <1>        0.000
     20 H          -7.9813   -0.6025   -7.7145 H.spc      1 <1>        0.000
     21 H          -8.0399   -1.5491   -9.8365 H.spc      1 <1>        0.000
     22 H          -7.0767   -4.0523   -9.8611 H.spc      1 <1>        0.000
     23 H          -4.6868   -2.1961   -9.4771 H.spc      1 <1>        0.000
     24 H          -4.8707   -5.2512  -10.1553 H.spc      1 <1>        0.000
     25 H          -2.7074   -3.1687  -10.7509 H.spc      1 <1>        0.000
     26 H          -2.6466   -5.0359  -11.0232 H.spc      1 <1>        0.000
@<TRIPOS>BOND
     1    4    5 2  
     2   10   11 2  
     3    1    2 am 
     4   12   13 2  
     5    8    9 2  
     6    9   10 1  
     7   11   12 1  
     8    7    8 1  
     9    2    4 1  
    10    6    7 2  
    11    2    3 2  
    12    5    6 1  
    13    1   14 1  
    14    1   15 1  
    15    4   16 1  
    16    5   17 1  
    17    6   18 1  
    18    7   19 1  
    19    8   20 1  
    20    9   21 1  
    21   10   22 1  
    22   11   23 1  
    23   12   24 1  
    24   13   25 1  
    25   13   26 1  
# Name:          frag3-176-9/31924 -- energy: -2.930646
# Creation time: Sat Jun  5 12:52:08 2010


@<TRIPOS>MOLECULE
frag3-176-9/31924 -- energy: -2.930646
   26    25     1     1     1
SMALL
USER_CHARGES


@<TRIPOS>ATOM
      1 N1         -5.2390   -2.0867   -1.4106 N.am       1 <1>        0.000
      2 C4         -4.8352   -2.4474   -2.6475 C.2        1 <1>        0.000
      3 O2         -3.6916   -2.8251   -2.8578 O.2        1 <1>        0.000
      4 C5         -5.7881   -2.3980   -3.7750 C.2        1 <1>        0.000
      5 C6         -5.6667   -1.5899   -4.8421 C.2        1 <1>        0.000
      6 C7         -6.5975   -1.5565   -5.9760 C.2        1 <1>        0.000
      7 C8         -6.4325   -0.8320   -7.0931 C.2        1 <1>        0.000
      8 C9         -7.3554   -0.8440   -8.2412 C.2        1 <1>        0.000
      9 C10        -7.4377   -1.8047   -9.1823 C.2        1 <1>        0.000
     10 C11        -6.6320   -3.0315   -9.2622 C.2        1 <1>        0.000
     11 C12        -5.2964   -3.0662   -9.1240 C.2        1 <1>        0.000
     12 C13        -4.4964   -4.2937   -9.1972 C.2        1 <1>        0.000
     13 C14        -3.1619   -4.3106   -9.1403 C.2        1 <1>        0.000
     14 H          -4.5850   -2.1263   -0.6288 H.spc      1 <1>        0.000
     15 H          -6.1980   -1.7746   -1.2580 H.spc      1 <1>        0.000
     16 H          -6.6504   -3.0637   -3.7391 H.spc      1 <1>        0.000
     17 H          -4.8151   -0.9100   -4.8670 H.spc      1 <1>        0.000
     18 H          -7.4957   -2.1700   -5.9050 H.spc      1 <1>        0.000
     19 H          -5.5541   -0.1896   -7.1555 H.spc      1 <1>        0.000
     20 H          -8.0347    0.0029   -8.3384 H.spc      1 <1>        0.000
     21 H          -8.1797   -1.6566   -9.9669 H.spc      1 <1>        0.000
     22 H          -7.1511   -3.9723   -9.4451 H.spc      1 <1>        0.000
     23 H          -4.7754   -2.1253   -8.9467 H.spc      1 <1>        0.000
     24 H          -5.0196   -5.2440   -9.3039 H.spc      1 <1>        0.000
     25 H          -2.6091   -3.3772   -9.0338 H.spc      1 <1>        0.000
     26 H          -2.6258   -5.2577   -9.2003 H.spc      1 <1>        0.000
@<TRIPOS>BOND
     1    4    5 2  
     2   10   11 2  
     3    1    2 am 
     4   12   13 2  
     5    8    9 2  
     6    9   10 1  
     7   11   12 1  
     8    7    8 1  
     9    2    4 1  
    10    6    7 2  
    11    2    3 2  
    12    5    6 1  
    13    1   14 1  
    14    1   15 1  
    15    4   16 1  
    16    5   17 1  
    17    6   18 1  
    18    7   19 1  
    19    8   20 1  
    20    9   21 1  
    21   10   22 1  
    22   11   23 1  
    23   12   24 1  
    24   13   25 1  
    25   13   26 1  
# Name:          frag3-176-9/31924 -- energy: -2.594252
# Creation time: Sat Jun  5 12:52:08 2010


@<TRIPOS>MOLECULE
frag3-176-9/31924 -- energy: -2.594252
   26    25     1     1     1
SMALL
USER_CHARGES


@<TRIPOS>ATOM
      1 N1         -4.6532   -3.5352   -1.9431 N.am       1 <1>        0.000
      2 C4         -4.8680   -2.3107   -2.4699 C.2        1 <1>        0.000
      3 O2         -4.4993   -1.2976   -1.8938 O.2        1 <1>        0.000
      4 C5         -5.5537   -2.1830   -3.7706 C.2        1 <1>        0.000
      5 C6         -6.3686   -1.1652   -4.1087 C.2        1 <1>        0.000
      6 C7         -7.0283   -1.0252   -5.4089 C.2        1 <1>        0.000
      7 C8         -6.4284   -1.1864   -6.6010 C.2        1 <1>        0.000
      8 C9         -7.1082   -1.0891   -7.9012 C.2        1 <1>        0.000
      9 C10        -6.7709   -1.7407   -9.0275 C.2        1 <1>        0.000
     10 C11        -5.6679   -2.6915   -9.2046 C.2        1 <1>        0.000
     11 C12        -5.7258   -3.7904   -9.9747 C.2        1 <1>        0.000
     12 C13        -4.6150   -4.7304  -10.1454 C.2        1 <1>        0.000
     13 C14        -3.3431   -4.3409  -10.2999 C.2        1 <1>        0.000
     14 H          -4.1747   -3.6281   -1.0471 H.spc      1 <1>        0.000
     15 H          -4.9694   -4.3673   -2.4411 H.spc      1 <1>        0.000
     16 H          -5.3891   -2.9673   -4.5094 H.spc      1 <1>        0.000
     17 H          -6.5498   -0.3916   -3.3625 H.spc      1 <1>        0.000
     18 H          -8.0881   -0.7705   -5.4099 H.spc      1 <1>        0.000
     19 H          -5.3606   -1.4051   -6.6040 H.spc      1 <1>        0.000
     20 H          -7.9697   -0.4237   -7.9572 H.spc      1 <1>        0.000
     21 H          -7.3845   -1.5406   -9.9059 H.spc      1 <1>        0.000
     22 H          -4.7366   -2.4923   -8.6744 H.spc      1 <1>        0.000
     23 H          -6.6558   -3.9954  -10.5050 H.spc      1 <1>        0.000
     24 H          -4.8344   -5.7981  -10.1467 H.spc      1 <1>        0.000
     25 H          -3.0946   -3.2796  -10.3026 H.spc      1 <1>        0.000
     26 H          -2.5563   -5.0852  -10.4230 H.spc      1 <1>        0.000
@<TRIPOS>BOND
     1    4    5 2  
     2   10   11 2  
     3    1    2 am 
     4   12   13 2  
     5    8    9 2  
     6    9   10 1  
     7   11   12 1  
     8    7    8 1  
     9    2    4 1  
    10    6    7 2  
    11    2    3 2  
    12    5    6 1  
    13    1   14 1  
    14    1   15 1  
    15    4   16 1  
    16    5   17 1  
    17    6   18 1  
    18    7   19 1  
    19    8   20 1  
    20    9   21 1  
    21   10   22 1  
    22   11   23 1  
    23   12   24 1  
    24   13   25 1  
    25   13   26 1  
# Name:          frag3-176-9/31924 -- energy: -2.321308
# Creation time: Sat Jun  5 12:52:08 2010


@<TRIPOS>MOLECULE
frag3-176-9/31924 -- energy: -2.321308
   26    25     1     1     1
SMALL
USER_CHARGES


@<TRIPOS>ATOM
      1 N1         -5.7449   -2.0350   -1.5864 N.am       1 <1>        0.000
      2 C4         -4.7740   -2.3174   -2.4801 C.2        1 <1>        0.000
      3 O2         -3.7083   -2.8059   -2.1282 O.2        1 <1>        0.000
      4 C5         -4.9881   -2.0418   -3.9159 C.2        1 <1>        0.000
      5 C6         -6.1315   -1.5718   -4.4408 C.2        1 <1>        0.000
      6 C7         -6.3388   -1.2772   -5.8640 C.2        1 <1>        0.000
      7 C8         -7.4596   -1.5436   -6.5525 C.2        1 <1>        0.000
      8 C9         -7.6660   -1.2056   -7.9724 C.2        1 <1>        0.000
      9 C10        -6.9474   -1.6721   -9.0095 C.2        1 <1>        0.000
     10 C11        -5.8273   -2.6247   -8.9563 C.2        1 <1>        0.000
     11 C12        -5.0383   -2.9211  -10.0001 C.2        1 <1>        0.000
     12 C13        -3.9200   -3.8714   -9.9342 C.2        1 <1>        0.000
     13 C14        -4.0863   -5.1987   -9.9088 C.2        1 <1>        0.000
     14 H          -5.5981   -2.2285   -0.5957 H.spc      1 <1>        0.000
     15 H          -6.6255   -1.6281   -1.9016 H.spc      1 <1>        0.000
     16 H          -4.1593   -2.2335   -4.5974 H.spc      1 <1>        0.000
     17 H          -6.9655   -1.3965   -3.7613 H.spc      1 <1>        0.000
     18 H          -5.5180   -0.8050   -6.4039 H.spc      1 <1>        0.000
     19 H          -8.2724   -2.0438   -6.0260 H.spc      1 <1>        0.000
     20 H          -8.4759   -0.5136   -8.2034 H.spc      1 <1>        0.000
     21 H          -7.2253   -1.3042   -9.9972 H.spc      1 <1>        0.000
     22 H          -5.6255   -3.1217   -8.0074 H.spc      1 <1>        0.000
     23 H          -5.2385   -2.4285  -10.9516 H.spc      1 <1>        0.000
     24 H          -2.9048   -3.4757   -9.9045 H.spc      1 <1>        0.000
     25 H          -5.0900   -5.6229   -9.9373 H.spc      1 <1>        0.000
     26 H          -3.2181   -5.8559   -9.8596 H.spc      1 <1>        0.000
@<TRIPOS>BOND
     1    4    5 2  
     2   10   11 2  
     3    1    2 am 
     4   12   13 2  
     5    8    9 2  
     6    9   10 1  
     7   11   12 1  
     8    7    8 1  
     9    2    4 1  
    10    6    7 2  
    11    2    3 2  
    12    5    6 1  
    13    1   14 1  
    14    1   15 1  
    15    4   16 1  
    16    5   17 1  
    17    6   18 1  
    18    7   19 1  
    19    8   20 1  
    20    9   21 1  
    21   10   22 1  
    22   11   23 1  
    23   12   24 1  
    24   13   25 1  
    25   13   26 1  
# Name:          frag3-176-9/31924 -- energy: -2.709202
# Creation time: Sat Jun  5 12:52:08 2010


@<TRIPOS>MOLECULE
frag3-176-9/31924 -- energy: -2.709202
   26    25     1     1     1
SMALL
USER_CHARGES


@<TRIPOS>ATOM
      1 N1         -4.8991   -3.3883   -1.5979 N.am       1 <1>        0.000
      2 C4         -4.9072   -2.3557   -2.4688 C.2        1 <1>        0.000
      3 O2         -4.2462   -1.3481   -2.2651 O.2        1 <1>        0.000
      4 C5         -5.7234   -2.4387   -3.6967 C.2        1 <1>        0.000
      5 C6         -5.7853   -1.4806   -4.6387 C.2        1 <1>        0.000
      6 C7         -6.5742   -1.5685   -5.8708 C.2        1 <1>        0.000
      7 C8         -6.5106   -0.7067   -6.8976 C.2        1 <1>        0.000
      8 C9         -7.2790   -0.8352   -8.1464 C.2        1 <1>        0.000
      9 C10        -7.1269   -1.8009   -9.0724 C.2        1 <1>        0.000
     10 C11        -6.1764   -2.9197   -9.0391 C.2        1 <1>        0.000
     11 C12        -5.3781   -3.2678  -10.0615 C.2        1 <1>        0.000
     12 C13        -4.4257   -4.3820  -10.0126 C.2        1 <1>        0.000
     13 C14        -3.5983   -4.5940   -8.9816 C.2        1 <1>        0.000
     14 H          -4.3337   -3.3364   -0.7505 H.spc      1 <1>        0.000
     15 H          -5.4584   -4.2199   -1.7877 H.spc      1 <1>        0.000
     16 H          -6.3174   -3.3396   -3.8504 H.spc      1 <1>        0.000
     17 H          -5.2062   -0.5720   -4.4736 H.spc      1 <1>        0.000
     18 H          -7.2700   -2.4027   -5.9605 H.spc      1 <1>        0.000
     19 H          -5.8426    0.1490   -6.7998 H.spc      1 <1>        0.000
     20 H          -8.0407   -0.0797   -8.3392 H.spc      1 <1>        0.000
     21 H          -7.7813   -1.7461   -9.9424 H.spc      1 <1>        0.000
     22 H          -6.1146   -3.5072   -8.1230 H.spc      1 <1>        0.000
     23 H          -5.4418   -2.6878  -10.9822 H.spc      1 <1>        0.000
     24 H          -4.3897   -5.0709  -10.8565 H.spc      1 <1>        0.000
     25 H          -3.6125   -3.9212   -8.1242 H.spc      1 <1>        0.000
     26 H          -2.9105   -5.4394   -8.9997 H.spc      1 <1>        0.000
@<TRIPOS>BOND
     1    4    5 2  
     2   10   11 2  
     3    1    2 am 
     4   12   13 2  
     5    8    9 2  
     6    9   10 1  
     7   11   12 1  
     8    7    8 1  
     9    2    4 1  
    10    6    7 2  
    11    2    3 2  
    12    5    6 1  
    13    1   14 1  
    14    1   15 1  
    15    4   16 1  
    16    5   17 1  
    17    6   18 1  
    18    7   19 1  
    19    8   20 1  
    20    9   21 1  
    21   10   22 1  
    22   11   23 1  
    23   12   24 1  
    24   13   25 1  
    25   13   26 1  
# Name:          frag3-176-9/31924 -- energy: -2.587066
# Creation time: Sat Jun  5 12:52:08 2010


@<TRIPOS>MOLECULE
frag3-176-9/31924 -- energy: -2.587066
   26    25     1     1     1
SMALL
USER_CHARGES


@<TRIPOS>ATOM
      1 N1         -5.4756   -2.3882   -0.9754 N.am       1 <1>        0.000
      2 C4         -5.0017   -2.2001   -2.2262 C.2        1 <1>        0.000
      3 O2         -3.8102   -2.3014   -2.4765 O.2        1 <1>        0.000
      4 C5         -5.9365   -1.8699   -3.3213 C.2        1 <1>        0.000
      5 C6         -5.5779   -1.7012   -4.6065 C.2        1 <1>        0.000
      6 C7         -6.5042   -1.3978   -5.7011 C.2        1 <1>        0.000
      7 C8         -6.1719   -1.3025   -6.9968 C.2        1 <1>        0.000
      8 C9         -7.1229   -1.0399   -8.0890 C.2        1 <1>        0.000
      9 C10        -7.3023   -1.7963   -9.1883 C.2        1 <1>        0.000
     10 C11        -6.5926   -3.0362   -9.5285 C.2        1 <1>        0.000
     11 C12        -5.2575   -3.1792   -9.4820 C.2        1 <1>        0.000
     12 C13        -4.5526   -4.4197   -9.8166 C.2        1 <1>        0.000
     13 C14        -3.3245   -4.4539  -10.3411 C.2        1 <1>        0.000
     14 H          -4.8345   -2.6199   -0.2166 H.spc      1 <1>        0.000
     15 H          -6.4745   -2.2985   -0.7896 H.spc      1 <1>        0.000
     16 H          -6.9909   -1.7549   -3.0701 H.spc      1 <1>        0.000
     17 H          -4.5203   -1.7972   -4.8522 H.spc      1 <1>        0.000
     18 H          -7.5501   -1.2362   -5.4403 H.spc      1 <1>        0.000
     19 H          -5.1217   -1.4286   -7.2601 H.spc      1 <1>        0.000
     20 H          -7.7416   -0.1470   -7.9993 H.spc      1 <1>        0.000
     21 H          -8.0527   -1.4525   -9.9002 H.spc      1 <1>        0.000
     22 H          -7.1871   -3.8955   -9.8386 H.spc      1 <1>        0.000
     23 H          -4.6616   -2.3192   -9.1764 H.spc      1 <1>        0.000
     24 H          -5.0582   -5.3666   -9.6271 H.spc      1 <1>        0.000
     25 H          -2.7919   -3.5245  -10.5426 H.spc      1 <1>        0.000
     26 H          -2.8551   -5.4112  -10.5675 H.spc      1 <1>        0.000
@<TRIPOS>BOND
     1    4    5 2  
     2   10   11 2  
     3    1    2 am 
     4   12   13 2  
     5    8    9 2  
     6    9   10 1  
     7   11   12 1  
     8    7    8 1  
     9    2    4 1  
    10    6    7 2  
    11    2    3 2  
    12    5    6 1  
    13    1   14 1  
    14    1   15 1  
    15    4   16 1  
    16    5   17 1  
    17    6   18 1  
    18    7   19 1  
    19    8   20 1  
    20    9   21 1  
    21   10   22 1  
    22   11   23 1  
    23   12   24 1  
    24   13   25 1  
    25   13   26 1  
# Name:          frag3-176-9/31924 -- energy: -2.584692
# Creation time: Sat Jun  5 12:52:08 2010


@<TRIPOS>MOLECULE
frag3-176-9/31924 -- energy: -2.584692
   26    25     1     1     1
SMALL
USER_CHARGES


@<TRIPOS>ATOM
      1 N1         -5.4421   -2.8956   -1.1973 N.am       1 <1>        0.000
      2 C4         -4.9882   -2.2675   -2.3038 C.2        1 <1>        0.000
      3 O2         -3.9982   -1.5518   -2.2669 O.2        1 <1>        0.000
      4 C5         -5.6906   -2.4485   -3.5907 C.2        1 <1>        0.000
      5 C6         -5.6887   -1.5533   -4.5935 C.2        1 <1>        0.000
      6 C7         -6.3658   -1.7390   -5.8811 C.2        1 <1>        0.000
      7 C8         -6.8118   -0.7507   -6.6725 C.2        1 <1>        0.000
      8 C9         -7.4534   -0.9547   -7.9825 C.2        1 <1>        0.000
      9 C10        -6.9889   -1.7370   -8.9751 C.2        1 <1>        0.000
     10 C11        -5.7646   -2.5510   -8.9664 C.2        1 <1>        0.000
     11 C12        -5.3054   -3.2394  -10.0212 C.2        1 <1>        0.000
     12 C13        -4.0802   -4.0470  -10.0026 C.2        1 <1>        0.000
     13 C14        -4.0524   -5.3507  -10.2957 C.2        1 <1>        0.000
     14 H          -4.9565   -2.7771   -0.3082 H.spc      1 <1>        0.000
     15 H          -6.2704   -3.4884   -1.2509 H.spc      1 <1>        0.000
     16 H          -6.2496   -3.3727   -3.7374 H.spc      1 <1>        0.000
     17 H          -5.1444   -0.6218   -4.4384 H.spc      1 <1>        0.000
     18 H          -6.5193   -2.7625   -6.2232 H.spc      1 <1>        0.000
     19 H          -6.6907    0.2740   -6.3212 H.spc      1 <1>        0.000
     20 H          -8.3883   -0.4247   -8.1648 H.spc      1 <1>        0.000
     21 H          -7.5867   -1.7705   -9.8859 H.spc      1 <1>        0.000
     22 H          -5.1918   -2.5979   -8.0402 H.spc      1 <1>        0.000
     23 H          -5.8765   -3.1967  -10.9486 H.spc      1 <1>        0.000
     24 H          -3.1434   -3.5578   -9.7357 H.spc      1 <1>        0.000
     25 H          -4.9727   -5.8682  -10.5664 H.spc      1 <1>        0.000
     26 H          -3.1094   -5.8964  -10.2641 H.spc      1 <1>        0.000
@<TRIPOS>BOND
     1    4    5 2  
     2   10   11 2  
     3    1    2 am 
     4   12   13 2  
     5    8    9 2  
     6    9   10 1  
     7   11   12 1  
     8    7    8 1  
     9    2    4 1  
    10    6    7 2  
    11    2    3 2  
    12    5    6 1  
    13    1   14 1  
    14    1   15 1  
    15    4   16 1  
    16    5   17 1  
    17    6   18 1  
    18    7   19 1  
    19    8   20 1  
    20    9   21 1  
    21   10   22 1  
    22   11   23 1  
    23   12   24 1  
    24   13   25 1  
    25   13   26 1  
# Name:          frag3-176-9/31924 -- energy: -2.480395
# Creation time: Sat Jun  5 12:52:08 2010


@<TRIPOS>MOLECULE
frag3-176-9/31924 -- energy: -2.480395
   26    25     1     1     1
SMALL
USER_CHARGES


@<TRIPOS>ATOM
      1 N1         -5.4753   -3.2825   -1.8793 N.am       1 <1>        0.000
      2 C4         -4.8659   -2.1291   -2.2255 C.2        1 <1>        0.000
      3 O2         -4.2033   -1.4920   -1.4180 O.2        1 <1>        0.000
      4 C5         -4.9853   -1.6169   -3.6068 C.2        1 <1>        0.000
      5 C6         -6.0223   -1.8620   -4.4243 C.2        1 <1>        0.000
      6 C7         -6.1541   -1.3332   -5.7887 C.2        1 <1>        0.000
      7 C8         -7.1870   -1.5689   -6.6115 C.2        1 <1>        0.000
      8 C9         -7.3237   -0.9960   -7.9631 C.2        1 <1>        0.000
      9 C10        -6.9526   -1.5820   -9.1149 C.2        1 <1>        0.000
     10 C11        -6.3514   -2.9156   -9.2762 C.2        1 <1>        0.000
     11 C12        -5.1524   -3.1383   -9.8345 C.2        1 <1>        0.000
     12 C13        -4.5555   -4.4728   -9.9854 C.2        1 <1>        0.000
     13 C14        -3.4017   -4.6968  -10.6211 C.2        1 <1>        0.000
     14 H          -5.3884   -3.6396   -0.9278 H.spc      1 <1>        0.000
     15 H          -6.0228   -3.7971   -2.5691 H.spc      1 <1>        0.000
     16 H          -4.1746   -0.9965   -3.9889 H.spc      1 <1>        0.000
     17 H          -6.8233   -2.4987   -4.0487 H.spc      1 <1>        0.000
     18 H          -5.3494   -0.6996   -6.1617 H.spc      1 <1>        0.000
     19 H          -7.9789   -2.2286   -6.2568 H.spc      1 <1>        0.000
     20 H          -7.7677   -0.0032   -8.0355 H.spc      1 <1>        0.000
     21 H          -7.1144   -1.0077  -10.0271 H.spc      1 <1>        0.000
     22 H          -6.9163   -3.7768   -8.9194 H.spc      1 <1>        0.000
     23 H          -4.5878   -2.2795  -10.1975 H.spc      1 <1>        0.000
     24 H          -5.0820   -5.3251   -9.5559 H.spc      1 <1>        0.000
     25 H          -2.8516   -3.8651  -11.0613 H.spc      1 <1>        0.000
     26 H          -3.0107   -5.7112  -10.6995 H.spc      1 <1>        0.000
@<TRIPOS>BOND
     1    4    5 2  
     2   10   11 2  
     3    1    2 am 
     4   12   13 2  
     5    8    9 2  
     6    9   10 1  
     7   11   12 1  
     8    7    8 1  
     9    2    4 1  
    10    6    7 2  
    11    2    3 2  
    12    5    6 1  
    13    1   14 1  
    14    1   15 1  
    15    4   16 1  
    16    5   17 1  
    17    6   18 1  
    18    7   19 1  
    19    8   20 1  
    20    9   21 1  
    21   10   22 1  
    22   11   23 1  
    23   12   24 1  
    24   13   25 1  
    25   13   26 1  
# Name:          frag3-176-9/31924 -- energy: -2.773750
# Creation time: Sat Jun  5 12:52:08 2010


@<TRIPOS>MOLECULE
frag3-176-9/31924 -- energy: -2.773750
   26    25     1     1     1
SMALL
USER_CHARGES


@<TRIPOS>ATOM
      1 N1         -4.4844   -3.7388   -2.5328 N.am       1 <1>        0.000
      2 C4         -4.9439   -2.4760   -2.6586 C.2        1 <1>        0.000
      3 O2         -4.7116   -1.6267   -1.8110 O.2        1 <1>        0.000
      4 C5         -5.7442   -2.1026   -3.8416 C.2        1 <1>        0.000
      5 C6         -5.4571   -1.0783   -4.6671 C.2        1 <1>        0.000
      6 C7         -6.2380   -0.7237   -5.8537 C.2        1 <1>        0.000
      7 C8         -6.6364   -1.5859   -6.8039 C.2        1 <1>        0.000
      8 C9         -7.4579   -1.2294   -7.9700 C.2        1 <1>        0.000
      9 C10        -7.4199   -1.8108   -9.1831 C.2        1 <1>        0.000
     10 C11        -6.5624   -2.9272   -9.5953 C.2        1 <1>        0.000
     11 C12        -5.3044   -3.1170   -9.1620 C.2        1 <1>        0.000
     12 C13        -4.4530   -4.2355   -9.5675 C.2        1 <1>        0.000
     13 C14        -3.2173   -4.4344   -9.1027 C.2        1 <1>        0.000
     14 H          -3.9306   -4.0011   -1.7174 H.spc      1 <1>        0.000
     15 H          -4.6909   -4.4308   -3.2531 H.spc      1 <1>        0.000
     16 H          -6.6300   -2.6981   -4.0624 H.spc      1 <1>        0.000
     17 H          -4.5822   -0.4707   -4.4358 H.spc      1 <1>        0.000
     18 H          -6.5183    0.3225   -5.9759 H.spc      1 <1>        0.000
     19 H          -6.3279   -2.6264   -6.7029 H.spc      1 <1>        0.000
     20 H          -8.1683   -0.4131   -7.8389 H.spc      1 <1>        0.000
     21 H          -8.0968   -1.4104   -9.9379 H.spc      1 <1>        0.000
     22 H          -6.9726   -3.6508  -10.2997 H.spc      1 <1>        0.000
     23 H          -4.8914   -2.3900   -8.4627 H.spc      1 <1>        0.000
     24 H          -4.8504   -4.9475  -10.2908 H.spc      1 <1>        0.000
     25 H          -2.7894   -3.7414   -8.3783 H.spc      1 <1>        0.000
     26 H          -2.6364   -5.2898   -9.4476 H.spc      1 <1>        0.000
@<TRIPOS>BOND
     1    4    5 2  
     2   10   11 2  
     3    1    2 am 
     4   12   13 2  
     5    8    9 2  
     6    9   10 1  
     7   11   12 1  
     8    7    8 1  
     9    2    4 1  
    10    6    7 2  
    11    2    3 2  
    12    5    6 1  
    13    1   14 1  
    14    1   15 1  
    15    4   16 1  
    16    5   17 1  
    17    6   18 1  
    18    7   19 1  
    19    8   20 1  
    20    9   21 1  
    21   10   22 1  
    22   11   23 1  
    23   12   24 1  
    24   13   25 1  
    25   13   26 1  
# Name:          frag3-176-9/31924 -- energy: -3.076391
# Creation time: Sat Jun  5 12:52:08 2010


@<TRIPOS>MOLECULE
frag3-176-9/31924 -- energy: -3.076391
   26    25     1     1     1
SMALL
USER_CHARGES


@<TRIPOS>ATOM
      1 N1         -3.4692   -2.1310   -3.0468 N.am       1 <1>        0.000
      2 C4         -4.7484   -2.5155   -2.8596 C.2        1 <1>        0.000
      3 O2         -5.1728   -2.7965   -1.7467 O.2        1 <1>        0.000
      4 C5         -5.6679   -2.6034   -4.0124 C.2        1 <1>        0.000
      5 C6         -5.7233   -1.7113   -5.0155 C.2        1 <1>        0.000
      6 C7         -6.6192   -1.8067   -6.1717 C.2        1 <1>        0.000
      7 C8         -6.7825   -0.8587   -7.1083 C.2        1 <1>        0.000
      8 C9         -7.6543   -0.9896   -8.2879 C.2        1 <1>        0.000
      9 C10        -7.5299   -1.9085   -9.2667 C.2        1 <1>        0.000
     10 C11        -6.5110   -2.9629   -9.3607 C.2        1 <1>        0.000
     11 C12        -5.2768   -2.8685   -8.8377 C.2        1 <1>        0.000
     12 C13        -4.2649   -3.9248   -8.9254 C.2        1 <1>        0.000
     13 C14        -3.2103   -4.0089   -8.1099 C.2        1 <1>        0.000
     14 H          -2.8335   -2.0696   -2.2515 H.spc      1 <1>        0.000
     15 H          -3.1375   -1.9016   -3.9837 H.spc      1 <1>        0.000
     16 H          -6.3501   -3.4526   -4.0521 H.spc      1 <1>        0.000
     17 H          -5.0527   -0.8535   -4.9659 H.spc      1 <1>        0.000
     18 H          -7.2005   -2.7224   -6.2800 H.spc      1 <1>        0.000
     19 H          -6.2309    0.0736   -6.9870 H.spc      1 <1>        0.000
     20 H          -8.4754   -0.2784   -8.3780 H.spc      1 <1>        0.000
     21 H          -8.2621   -1.8645  -10.0729 H.spc      1 <1>        0.000
     22 H          -6.7729   -3.8801   -9.8882 H.spc      1 <1>        0.000
     23 H          -5.0119   -1.9490   -8.3157 H.spc      1 <1>        0.000
     24 H          -4.3791   -4.6841   -9.6991 H.spc      1 <1>        0.000
     25 H          -3.0670   -3.2654   -7.3258 H.spc      1 <1>        0.000
     26 H          -2.4930   -4.8210   -8.2286 H.spc      1 <1>        0.000
@<TRIPOS>BOND
     1    4    5 2  
     2   10   11 2  
     3    1    2 am 
     4   12   13 2  
     5    8    9 2  
     6    9   10 1  
     7   11   12 1  
     8    7    8 1  
     9    2    4 1  
    10    6    7 2  
    11    2    3 2  
    12    5    6 1  
    13    1   14 1  
    14    1   15 1  
    15    4   16 1  
    16    5   17 1  
    17    6   18 1  
    18    7   19 1  
    19    8   20 1  
    20    9   21 1  
    21   10   22 1  
    22   11   23 1  
    23   12   24 1  
    24   13   25 1  
    25   13   26 1  
# Name:          frag3-176-9/31924 -- energy: -2.752299
# Creation time: Sat Jun  5 12:52:08 2010


@<TRIPOS>MOLECULE
frag3-176-9/31924 -- energy: -2.752299
   26    25     1     1     1
SMALL
USER_CHARGES


@<TRIPOS>ATOM
      1 N1         -5.4351   -3.0100   -1.8248 N.am       1 <1>        0.000
      2 C4         -4.7453   -2.1904   -2.6447 C.2        1 <1>        0.000
      3 O2         -3.7287   -1.6219   -2.2689 O.2        1 <1>        0.000
      4 C5         -5.2095   -1.9711   -4.0299 C.2        1 <1>        0.000
      5 C6         -6.4677   -2.1784   -4.4564 C.2        1 <1>        0.000
      6 C7         -6.9317   -1.9353   -5.8264 C.2        1 <1>        0.000
      7 C8         -6.6522   -0.8376   -6.5509 C.2        1 <1>        0.000
      8 C9         -7.0853   -0.6244   -7.9422 C.2        1 <1>        0.000
      9 C10        -6.9197   -1.4881   -8.9622 C.2        1 <1>        0.000
     10 C11        -6.2828   -2.8122   -8.9082 C.2        1 <1>        0.000
     11 C12        -5.1792   -3.1482   -9.5920 C.2        1 <1>        0.000
     12 C13        -4.5445   -4.4702   -9.5265 C.2        1 <1>        0.000
     13 C14        -3.4486   -4.7986  -10.2162 C.2        1 <1>        0.000
     14 H          -5.1119   -3.1664   -0.8701 H.spc      1 <1>        0.000
     15 H          -6.2799   -3.4733   -2.1596 H.spc      1 <1>        0.000
     16 H          -4.4802   -1.6160   -4.7580 H.spc      1 <1>        0.000
     17 H          -7.1930   -2.5530   -3.7341 H.spc      1 <1>        0.000
     18 H          -7.5499   -2.7026   -6.2925 H.spc      1 <1>        0.000
     19 H          -6.0649   -0.0518   -6.0759 H.spc      1 <1>        0.000
     20 H          -7.5852    0.3178   -8.1668 H.spc      1 <1>        0.000
     21 H          -7.2992   -1.1710   -9.9336 H.spc      1 <1>        0.000
     22 H          -6.7374   -3.5704   -8.2706 H.spc      1 <1>        0.000
     23 H          -4.7261   -2.3940  -10.2354 H.spc      1 <1>        0.000
     24 H          -4.9918   -5.2251   -8.8798 H.spc      1 <1>        0.000
     25 H          -2.9773   -4.0662  -10.8717 H.spc      1 <1>        0.000
     26 H          -3.0257   -5.7989  -10.1235 H.spc      1 <1>        0.000
@<TRIPOS>BOND
     1    4    5 2  
     2   10   11 2  
     3    1    2 am 
     4   12   13 2  
     5    8    9 2  
     6    9   10 1  
     7   11   12 1  
     8    7    8 1  
     9    2    4 1  
    10    6    7 2  
    11    2    3 2  
    12    5    6 1  
    13    1   14 1  
    14    1   15 1  
    15    4   16 1  
    16    5   17 1  
    17    6   18 1  
    18    7   19 1  
    19    8   20 1  
    20    9   21 1  
    21   10   22 1  
    22   11   23 1  
    23   12   24 1  
    24   13   25 1  
    25   13   26 1  
# Name:          frag3-176-9/31924 -- energy: -2.427621
# Creation time: Sat Jun  5 12:52:08 2010


@<TRIPOS>MOLECULE
frag3-176-9/31924 -- energy: -2.427621
   26    25     1     1     1
SMALL
USER_CHARGES


@<TRIPOS>ATOM
      1 N1         -5.9122   -2.8905   -1.3775 N.am       1 <1>        0.000
      2 C4         -5.1739   -2.2248   -2.2910 C.2        1 <1>        0.000
      3 O2         -4.0402   -1.8458   -2.0385 O.2        1 <1>        0.000
      4 C5         -5.7386   -1.9498   -3.6258 C.2        1 <1>        0.000
      5 C6         -5.0851   -1.3146   -4.6186 C.2        1 <1>        0.000
      6 C7         -5.6366   -1.0626   -5.9493 C.2        1 <1>        0.000
      7 C8         -6.8095   -1.5407   -6.4049 C.2        1 <1>        0.000
      8 C9         -7.3775   -1.2506   -7.7272 C.2        1 <1>        0.000
      9 C10        -7.0408   -1.8514   -8.8828 C.2        1 <1>        0.000
     10 C11        -6.0667   -2.9297   -9.0726 C.2        1 <1>        0.000
     11 C12        -5.6624   -3.3946  -10.2654 C.2        1 <1>        0.000
     12 C13        -4.6821   -4.4665  -10.4407 C.2        1 <1>        0.000
     13 C14        -3.4047   -4.3647  -10.0550 C.2        1 <1>        0.000
     14 H          -5.5256   -3.0866   -0.4542 H.spc      1 <1>        0.000
     15 H          -6.8566   -3.1974   -1.6106 H.spc      1 <1>        0.000
     16 H          -6.7571   -2.2842   -3.8232 H.spc      1 <1>        0.000
     17 H          -4.0734   -0.9637   -4.4152 H.spc      1 <1>        0.000
     18 H          -5.0520   -0.4386   -6.6253 H.spc      1 <1>        0.000
     19 H          -7.3801   -2.1918   -5.7427 H.spc      1 <1>        0.000
     20 H          -8.1432   -0.4765   -7.7773 H.spc      1 <1>        0.000
     21 H          -7.5498   -1.4962   -9.7788 H.spc      1 <1>        0.000
     22 H          -5.6394   -3.3875   -8.1805 H.spc      1 <1>        0.000
     23 H          -6.0919   -2.9447  -11.1605 H.spc      1 <1>        0.000
     24 H          -5.0088   -5.3949  -10.9091 H.spc      1 <1>        0.000
     25 H          -3.0491   -3.4484   -9.5837 H.spc      1 <1>        0.000
     26 H          -2.7199   -5.1980  -10.2121 H.spc      1 <1>        0.000
@<TRIPOS>BOND
     1    4    5 2  
     2   10   11 2  
     3    1    2 am 
     4   12   13 2  
     5    8    9 2  
     6    9   10 1  
     7   11   12 1  
     8    7    8 1  
     9    2    4 1  
    10    6    7 2  
    11    2    3 2  
    12    5    6 1  
    13    1   14 1  
    14    1   15 1  
    15    4   16 1  
    16    5   17 1  
    17    6   18 1  
    18    7   19 1  
    19    8   20 1  
    20    9   21 1  
    21   10   22 1  
    22   11   23 1  
    23   12   24 1  
    24   13   25 1  
    25   13   26 1  
# Name:          frag3-176-9/31924 -- energy: -2.762665
# Creation time: Sat Jun  5 12:52:08 2010


@<TRIPOS>MOLECULE
frag3-176-9/31924 -- energy: -2.762665
   26    25     1     1     1
SMALL
USER_CHARGES


@<TRIPOS>ATOM
      1 N1         -3.9167   -1.3764   -2.0846 N.am       1 <1>        0.000
      2 C4         -4.9382   -2.2421   -2.2501 C.2        1 <1>        0.000
      3 O2         -5.0616   -3.2261   -1.5335 O.2        1 <1>        0.000
      4 C5         -5.9420   -2.0039   -3.3081 C.2        1 <1>        0.000
      5 C6         -5.6521   -1.6278   -4.5650 C.2        1 <1>        0.000
      6 C7         -6.6461   -1.4175   -5.6242 C.2        1 <1>        0.000
      7 C8         -6.4859   -1.7519   -6.9129 C.2        1 <1>        0.000
      8 C9         -7.5114   -1.5755   -7.9562 C.2        1 <1>        0.000
      9 C10        -7.3647   -1.8235   -9.2699 C.2        1 <1>        0.000
     10 C11        -6.1609   -2.3371   -9.9401 C.2        1 <1>        0.000
     11 C12        -5.4808   -3.4234   -9.5376 C.2        1 <1>        0.000
     12 C13        -4.2799   -3.9326  -10.2095 C.2        1 <1>        0.000
     13 C14        -3.1902   -4.3486   -9.5575 C.2        1 <1>        0.000
     14 H          -3.2272   -1.5356   -1.3500 H.spc      1 <1>        0.000
     15 H          -3.8340   -0.5627   -2.6940 H.spc      1 <1>        0.000
     16 H          -6.9920   -2.1432   -3.0506 H.spc      1 <1>        0.000
     17 H          -4.6036   -1.4674   -4.8160 H.spc      1 <1>        0.000
     18 H          -7.5901   -0.9522   -5.3406 H.spc      1 <1>        0.000
     19 H          -5.5303   -2.1844   -7.2094 H.spc      1 <1>        0.000
     20 H          -8.4847   -1.2078   -7.6313 H.spc      1 <1>        0.000
     21 H          -8.2283   -1.6228   -9.9039 H.spc      1 <1>        0.000
     22 H          -5.7977   -1.8031  -10.8182 H.spc      1 <1>        0.000
     23 H          -5.8426   -3.9584   -8.6596 H.spc      1 <1>        0.000
     24 H          -4.2765   -3.9737  -11.2987 H.spc      1 <1>        0.000
     25 H          -3.1627   -4.3199   -8.4682 H.spc      1 <1>        0.000
     26 H          -2.3288   -4.7166  -10.1149 H.spc      1 <1>        0.000
@<TRIPOS>BOND
     1    4    5 2  
     2   10   11 2  
     3    1    2 am 
     4   12   13 2  
     5    8    9 2  
     6    9   10 1  
     7   11   12 1  
     8    7    8 1  
     9    2    4 1  
    10    6    7 2  
    11    2    3 2  
    12    5    6 1  
    13    1   14 1  
    14    1   15 1  
    15    4   16 1  
    16    5   17 1  
    17    6   18 1  
    18    7   19 1  
    19    8   20 1  
    20    9   21 1  
    21   10   22 1  
    22   11   23 1  
    23   12   24 1  
    24   13   25 1  
    25   13   26 1  
# Name:          frag3-176-9/31924 -- energy: -3.170887
# Creation time: Sat Jun  5 12:52:08 2010


@<TRIPOS>MOLECULE
frag3-176-9/31924 -- energy: -3.170887
   26    25     1     1     1
SMALL
USER_CHARGES


@<TRIPOS>ATOM
      1 N1         -4.3448   -1.3086   -2.3332 N.am       1 <1>        0.000
      2 C4         -4.7413   -2.5122   -2.7968 C.2        1 <1>        0.000
      3 O2         -4.3546   -3.5519   -2.2797 O.2        1 <1>        0.000
      4 C5         -5.6676   -2.5928   -3.9450 C.2        1 <1>        0.000
      5 C6         -5.7590   -1.6717   -4.9182 C.2        1 <1>        0.000
      6 C7         -6.6610   -1.7620   -6.0730 C.2        1 <1>        0.000
      7 C8         -6.7331   -0.8669   -7.0700 C.2        1 <1>        0.000
      8 C9         -7.6142   -0.9955   -8.2446 C.2        1 <1>        0.000
      9 C10        -7.5141   -1.9282   -9.2116 C.2        1 <1>        0.000
     10 C11        -6.5160   -3.0054   -9.2984 C.2        1 <1>        0.000
     11 C12        -5.1958   -2.8224   -9.1309 C.2        1 <1>        0.000
     12 C13        -4.2045   -3.9027   -9.2093 C.2        1 <1>        0.000
     13 C14        -3.3243   -4.1662   -8.2385 C.2        1 <1>        0.000
     14 H          -3.7103   -1.2527   -1.5365 H.spc      1 <1>        0.000
     15 H          -4.6795   -0.4547   -2.7795 H.spc      1 <1>        0.000
     16 H          -6.3233   -3.4614   -4.0066 H.spc      1 <1>        0.000
     17 H          -5.1171   -0.7937   -4.8454 H.spc      1 <1>        0.000
     18 H          -7.3250   -2.6249   -6.1246 H.spc      1 <1>        0.000
     19 H          -6.0966    0.0157   -7.0070 H.spc      1 <1>        0.000
     20 H          -8.4212   -0.2690   -8.3396 H.spc      1 <1>        0.000
     21 H          -8.2501   -1.8795  -10.0141 H.spc      1 <1>        0.000
     22 H          -6.8695   -4.0142   -9.5118 H.spc      1 <1>        0.000
     23 H          -4.8397   -1.8131   -8.9248 H.spc      1 <1>        0.000
     24 H          -4.1854   -4.5221  -10.1060 H.spc      1 <1>        0.000
     25 H          -3.3187   -3.5643   -7.3298 H.spc      1 <1>        0.000
     26 H          -2.6121   -4.9830   -8.3556 H.spc      1 <1>        0.000
@<TRIPOS>BOND
     1    4    5 2  
     2   10   11 2  
     3    1    2 am 
     4   12   13 2  
     5    8    9 2  
     6    9   10 1  
     7   11   12 1  
     8    7    8 1  
     9    2    4 1  
    10    6    7 2  
    11    2    3 2  
    12    5    6 1  
    13    1   14 1  
    14    1   15 1  
    15    4   16 1  
    16    5   17 1  
    17    6   18 1  
    18    7   19 1  
    19    8   20 1  
    20    9   21 1  
    21   10   22 1  
    22   11   23 1  
    23   12   24 1  
    24   13   25 1  
    25   13   26 1  
# Name:          frag3-176-9/31924 -- energy: -2.508639
# Creation time: Sat Jun  5 12:52:08 2010


@<TRIPOS>MOLECULE
frag3-176-9/31924 -- energy: -2.508639
   26    25     1     1     1
SMALL
USER_CHARGES


@<TRIPOS>ATOM
      1 N1         -5.7590   -1.6150   -0.8996 N.am       1 <1>        0.000
      2 C4         -5.1807   -2.0067   -2.0553 C.2        1 <1>        0.000
      3 O2         -4.1934   -2.7264   -2.0602 O.2        1 <1>        0.000
      4 C5         -5.7502   -1.5651   -3.3442 C.2        1 <1>        0.000
      5 C6         -5.2169   -1.8401   -4.5498 C.2        1 <1>        0.000
      6 C7         -5.7947   -1.4273   -5.8299 C.2        1 <1>        0.000
      7 C8         -6.8221   -2.0338   -6.4485 C.2        1 <1>        0.000
      8 C9         -7.4243   -1.5824   -7.7116 C.2        1 <1>        0.000
      9 C10        -6.9820   -1.8712   -8.9485 C.2        1 <1>        0.000
     10 C11        -5.8331   -2.7083   -9.3075 C.2        1 <1>        0.000
     11 C12        -5.4778   -3.0189  -10.5651 C.2        1 <1>        0.000
     12 C13        -4.3247   -3.8537  -10.9086 C.2        1 <1>        0.000
     13 C14        -3.8714   -4.8374  -10.1206 C.2        1 <1>        0.000
     14 H          -5.3720   -1.9203   -0.0066 H.spc      1 <1>        0.000
     15 H          -6.5828   -1.0139   -0.9197 H.spc      1 <1>        0.000
     16 H          -6.6664   -0.9752   -3.3179 H.spc      1 <1>        0.000
     17 H          -4.2886   -2.4109   -4.5742 H.spc      1 <1>        0.000
     18 H          -5.3565   -0.5583   -6.3207 H.spc      1 <1>        0.000
     19 H          -7.2393   -2.9251   -5.9798 H.spc      1 <1>        0.000
     20 H          -8.3125   -0.9548   -7.6387 H.spc      1 <1>        0.000
     21 H          -7.5400   -1.4341   -9.7765 H.spc      1 <1>        0.000
     22 H          -5.2240   -3.1069   -8.4962 H.spc      1 <1>        0.000
     23 H          -6.0852   -2.6253  -11.3801 H.spc      1 <1>        0.000
     24 H          -3.8105   -3.6655  -11.8511 H.spc      1 <1>        0.000
     25 H          -4.3661   -5.0479   -9.1724 H.spc      1 <1>        0.000
     26 H          -3.0078   -5.4274  -10.4275 H.spc      1 <1>        0.000
@<TRIPOS>BOND
     1    4    5 2  
     2   10   11 2  
     3    1    2 am 
     4   12   13 2  
     5    8    9 2  
     6    9   10 1  
     7   11   12 1  
     8    7    8 1  
     9    2    4 1  
    10    6    7 2  
    11    2    3 2  
    12    5    6 1  
    13    1   14 1  
    14    1   15 1  
    15    4   16 1  
    16    5   17 1  
    17    6   18 1  
    18    7   19 1  
    19    8   20 1  
    20    9   21 1  
    21   10   22 1  
    22   11   23 1  
    23   12   24 1  
    24   13   25 1  
    25   13   26 1  
# Name:          frag3-176-9/31924 -- energy: -2.725922
# Creation time: Sat Jun  5 12:52:08 2010


@<TRIPOS>MOLECULE
frag3-176-9/31924 -- energy: -2.725922
   26    25     1     1     1
SMALL
USER_CHARGES


@<TRIPOS>ATOM
      1 N1         -4.4813   -0.7792   -1.6870 N.am       1 <1>        0.000
      2 C4         -5.1108   -1.8588   -2.1973 C.2        1 <1>        0.000
      3 O2         -5.1346   -2.9235   -1.5970 O.2        1 <1>        0.000
      4 C5         -5.7955   -1.7599   -3.5007 C.2        1 <1>        0.000
      5 C6         -5.6145   -2.6137   -4.5263 C.2        1 <1>        0.000
      6 C7         -6.3104   -2.5280   -5.8119 C.2        1 <1>        0.000
      7 C8         -6.8122   -1.3991   -6.3455 C.2        1 <1>        0.000
      8 C9         -7.4732   -1.3145   -7.6559 C.2        1 <1>        0.000
      9 C10        -6.9608   -1.7401   -8.8266 C.2        1 <1>        0.000
     10 C11        -5.6563   -2.3762   -9.0470 C.2        1 <1>        0.000
     11 C12        -5.3756   -3.2044  -10.0633 C.2        1 <1>        0.000
     12 C13        -4.0699   -3.8340  -10.2763 C.2        1 <1>        0.000
     13 C14        -3.8353   -4.7548  -11.2146 C.2        1 <1>        0.000
     14 H          -4.0128   -0.8419   -0.7831 H.spc      1 <1>        0.000
     15 H          -4.4741    0.0993   -2.2053 H.spc      1 <1>        0.000
     16 H          -6.4971   -0.9380   -3.6434 H.spc      1 <1>        0.000
     17 H          -4.8999   -3.4254   -4.3899 H.spc      1 <1>        0.000
     18 H          -6.4313   -3.4500   -6.3806 H.spc      1 <1>        0.000
     19 H          -6.7221   -0.4814   -5.7643 H.spc      1 <1>        0.000
     20 H          -8.4669   -0.8673   -7.6825 H.spc      1 <1>        0.000
     21 H          -7.5844   -1.5961   -9.7089 H.spc      1 <1>        0.000
     22 H          -4.8602   -2.1601   -8.3346 H.spc      1 <1>        0.000
     23 H          -6.1698   -3.4234  -10.7770 H.spc      1 <1>        0.000
     24 H          -3.2432   -3.5338   -9.6324 H.spc      1 <1>        0.000
     25 H          -4.6402   -5.0772  -11.8751 H.spc      1 <1>        0.000
     26 H          -2.8389   -5.1840  -11.3200 H.spc      1 <1>        0.000
@<TRIPOS>BOND
     1    4    5 2  
     2   10   11 2  
     3    1    2 am 
     4   12   13 2  
     5    8    9 2  
     6    9   10 1  
     7   11   12 1  
     8    7    8 1  
     9    2    4 1  
    10    6    7 2  
    11    2    3 2  
    12    5    6 1  
    13    1   14 1  
    14    1   15 1  
    15    4   16 1  
    16    5   17 1  
    17    6   18 1  
    18    7   19 1  
    19    8   20 1  
    20    9   21 1  
    21   10   22 1  
    22   11   23 1  
    23   12   24 1  
    24   13   25 1  
    25   13   26 1  
# Name:          frag3-176-9/31924 -- energy: -2.538114
# Creation time: Sat Jun  5 12:52:08 2010


@<TRIPOS>MOLECULE
frag3-176-9/31924 -- energy: -2.538114
   26    25     1     1     1
SMALL
USER_CHARGES


@<TRIPOS>ATOM
      1 N1         -5.1836   -1.0853   -1.0603 N.am       1 <1>        0.000
      2 C4         -5.2396   -2.0791   -1.9715 C.2        1 <1>        0.000
      3 O2         -4.7356   -3.1720   -1.7536 O.2        1 <1>        0.000
      4 C5         -5.9309   -1.8594   -3.2584 C.2        1 <1>        0.000
      5 C6         -5.4086   -1.1874   -4.3002 C.2        1 <1>        0.000
      6 C7         -6.0866   -0.9927   -5.5873 C.2        1 <1>        0.000
      7 C8         -6.6282   -1.9738   -6.3286 C.2        1 <1>        0.000
      8 C9         -7.3456   -1.7623   -7.5972 C.2        1 <1>        0.000
      9 C10        -6.9562   -2.1879   -8.8110 C.2        1 <1>        0.000
     10 C11        -5.7516   -2.9659   -9.1341 C.2        1 <1>        0.000
     11 C12        -5.3316   -3.2292  -10.3800 C.2        1 <1>        0.000
     12 C13        -4.1249   -4.0037  -10.6926 C.2        1 <1>        0.000
     13 C14        -3.9075   -4.5876  -11.8744 C.2        1 <1>        0.000
     14 H          -4.7137   -1.2375   -0.1679 H.spc      1 <1>        0.000
     15 H          -5.6111   -0.1819   -1.2640 H.spc      1 <1>        0.000
     16 H          -6.9341   -2.2704   -3.3717 H.spc      1 <1>        0.000
     17 H          -4.4139   -0.7582   -4.1803 H.spc      1 <1>        0.000
     18 H          -6.1560    0.0252   -5.9710 H.spc      1 <1>        0.000
     19 H          -6.5298   -2.9970   -5.9659 H.spc      1 <1>        0.000
     20 H          -8.2824   -1.2073   -7.5468 H.spc      1 <1>        0.000
     21 H          -7.6047   -1.9277   -9.6476 H.spc      1 <1>        0.000
     22 H          -5.1601   -3.3549   -8.3053 H.spc      1 <1>        0.000
     23 H          -5.9225   -2.8445  -11.2113 H.spc      1 <1>        0.000
     24 H          -3.3647   -4.1082   -9.9185 H.spc      1 <1>        0.000
     25 H          -4.6484   -4.5017  -12.6693 H.spc      1 <1>        0.000
     26 H          -2.9892   -5.1499  -12.0438 H.spc      1 <1>        0.000
@<TRIPOS>BOND
     1    4    5 2  
     2   10   11 2  
     3    1    2 am 
     4   12   13 2  
     5    8    9 2  
     6    9   10 1  
     7   11   12 1  
     8    7    8 1  
     9    2    4 1  
    10    6    7 2  
    11    2    3 2  
    12    5    6 1  
    13    1   14 1  
    14    1   15 1  
    15    4   16 1  
    16    5   17 1  
    17    6   18 1  
    18    7   19 1  
    19    8   20 1  
    20    9   21 1  
    21   10   22 1  
    22   11   23 1  
    23   12   24 1  
    24   13   25 1  
    25   13   26 1  
# Name:          frag3-176-9/31924 -- energy: -2.327508
# Creation time: Sat Jun  5 12:52:08 2010


@<TRIPOS>MOLECULE
frag3-176-9/31924 -- energy: -2.327508
   26    25     1     1     1
SMALL
USER_CHARGES


@<TRIPOS>ATOM
      1 N1         -4.2878   -1.2354   -1.6933 N.am       1 <1>        0.000
      2 C4         -5.1189   -2.1978   -2.1432 C.2        1 <1>        0.000
      3 O2         -5.2885   -3.2359   -1.5168 O.2        1 <1>        0.000
      4 C5         -5.8516   -2.0074   -3.4111 C.2        1 <1>        0.000
      5 C6         -5.5753   -1.0545   -4.3187 C.2        1 <1>        0.000
      6 C7         -6.2897   -0.8833   -5.5882 C.2        1 <1>        0.000
      7 C8         -6.6300   -1.8815   -6.4210 C.2        1 <1>        0.000
      8 C9         -7.3859   -1.7041   -7.6719 C.2        1 <1>        0.000
      9 C10        -7.0484   -2.1847   -8.8805 C.2        1 <1>        0.000
     10 C11        -5.8721   -2.9997   -9.2141 C.2        1 <1>        0.000
     11 C12        -5.6313   -3.5226  -10.4264 C.2        1 <1>        0.000
     12 C13        -4.4495   -4.3303  -10.7487 C.2        1 <1>        0.000
     13 C14        -3.2012   -3.8490  -10.7154 C.2        1 <1>        0.000
     14 H          -3.7857   -1.3648   -0.8149 H.spc      1 <1>        0.000
     15 H          -4.1614   -0.3782   -2.2315 H.spc      1 <1>        0.000
     16 H          -6.6753   -2.6880   -3.6267 H.spc      1 <1>        0.000
     17 H          -4.7643   -0.3613   -4.0955 H.spc      1 <1>        0.000
     18 H          -6.5655    0.1306   -5.8781 H.spc      1 <1>        0.000
     19 H          -6.3252   -2.8928   -6.1517 H.spc      1 <1>        0.000
     20 H          -8.3087   -1.1270   -7.6118 H.spc      1 <1>        0.000
     21 H          -7.7209   -1.9436   -9.7037 H.spc      1 <1>        0.000
     22 H          -5.1464   -3.1925   -8.4239 H.spc      1 <1>        0.000
     23 H          -6.3566   -3.3363  -11.2185 H.spc      1 <1>        0.000
     24 H          -4.5954   -5.3735  -11.0290 H.spc      1 <1>        0.000
     25 H          -3.0251   -2.8095  -10.4386 H.spc      1 <1>        0.000
     26 H          -2.3606   -4.4964  -10.9651 H.spc      1 <1>        0.000
@<TRIPOS>BOND
     1    4    5 2  
     2   10   11 2  
     3    1    2 am 
     4   12   13 2  
     5    8    9 2  
     6    9   10 1  
     7   11   12 1  
     8    7    8 1  
     9    2    4 1  
    10    6    7 2  
    11    2    3 2  
    12    5    6 1  
    13    1   14 1  
    14    1   15 1  
    15    4   16 1  
    16    5   17 1  
    17    6   18 1  
    18    7   19 1  
    19    8   20 1  
    20    9   21 1  
    21   10   22 1  
    22   11   23 1  
    23   12   24 1  
    24   13   25 1  
    25   13   26 1  
# Name:          frag3-176-9/31924 -- energy: -2.800972
# Creation time: Sat Jun  5 12:52:08 2010


@<TRIPOS>MOLECULE
frag3-176-9/31924 -- energy: -2.800972
   26    25     1     1     1
SMALL
USER_CHARGES


@<TRIPOS>ATOM
      1 N1         -3.5834   -2.9374   -2.3610 N.am       1 <1>        0.000
      2 C4         -4.7354   -2.3204   -2.7023 C.2        1 <1>        0.000
      3 O2         -5.3812   -1.6824   -1.8846 O.2        1 <1>        0.000
      4 C5         -5.2297   -2.4094   -4.0914 C.2        1 <1>        0.000
      5 C6         -6.3413   -1.8026   -4.5468 C.2        1 <1>        0.000
      6 C7         -6.8199   -1.8659   -5.9293 C.2        1 <1>        0.000
      7 C8         -7.0816   -0.8051   -6.7106 C.2        1 <1>        0.000
      8 C9         -7.5166   -0.8854   -8.1140 C.2        1 <1>        0.000
      9 C10        -6.9428   -1.6336   -9.0761 C.2        1 <1>        0.000
     10 C11        -5.7840   -2.5233   -8.9364 C.2        1 <1>        0.000
     11 C12        -5.5902   -3.6389   -9.6583 C.2        1 <1>        0.000
     12 C13        -4.4263   -4.5175   -9.5105 C.2        1 <1>        0.000
     13 C14        -3.1981   -4.0644   -9.2279 C.2        1 <1>        0.000
     14 H          -3.2362   -2.8761   -1.4039 H.spc      1 <1>        0.000
     15 H          -3.0607   -3.4647   -3.0604 H.spc      1 <1>        0.000
     16 H          -4.6539   -3.0084   -4.7969 H.spc      1 <1>        0.000
     17 H          -6.9279   -1.2219   -3.8349 H.spc      1 <1>        0.000
     18 H          -6.9766   -2.8550   -6.3597 H.spc      1 <1>        0.000
     19 H          -6.9632    0.1864   -6.2736 H.spc      1 <1>        0.000
     20 H          -8.3805   -0.2858   -8.4008 H.spc      1 <1>        0.000
     21 H          -7.3888   -1.5713  -10.0687 H.spc      1 <1>        0.000
     22 H          -5.0287   -2.2605   -8.1957 H.spc      1 <1>        0.000
     23 H          -6.3438   -3.9072  -10.3987 H.spc      1 <1>        0.000
     24 H          -4.5671   -5.5910   -9.6366 H.spc      1 <1>        0.000
     25 H          -3.0283   -2.9958   -9.0965 H.spc      1 <1>        0.000
     26 H          -2.3683   -4.7643   -9.1293 H.spc      1 <1>        0.000
@<TRIPOS>BOND
     1    4    5 2  
     2   10   11 2  
     3    1    2 am 
     4   12   13 2  
     5    8    9 2  
     6    9   10 1  
     7   11   12 1  
     8    7    8 1  
     9    2    4 1  
    10    6    7 2  
    11    2    3 2  
    12    5    6 1  
    13    1   14 1  
    14    1   15 1  
    15    4   16 1  
    16    5   17 1  
    17    6   18 1  
    18    7   19 1  
    19    8   20 1  
    20    9   21 1  
    21   10   22 1  
    22   11   23 1  
    23   12   24 1  
    24   13   25 1  
    25   13   26 1  
# Name:          frag3-176-9/31924 -- energy: -2.845012
# Creation time: Sat Jun  5 12:52:08 2010


@<TRIPOS>MOLECULE
frag3-176-9/31924 -- energy: -2.845012
   26    25     1     1     1
SMALL
USER_CHARGES


@<TRIPOS>ATOM
      1 N1         -4.9255   -3.3202   -2.1251 N.am       1 <1>        0.000
      2 C4         -4.8018   -2.0961   -2.6778 C.2        1 <1>        0.000
      3 O2         -4.2683   -1.1752   -2.0732 O.2        1 <1>        0.000
      4 C5         -5.3083   -1.8486   -4.0428 C.2        1 <1>        0.000
      5 C6         -6.2233   -2.6092   -4.6694 C.2        1 <1>        0.000
      6 C7         -6.7420   -2.3465   -6.0153 C.2        1 <1>        0.000
      7 C8         -6.9612   -1.1242   -6.5318 C.2        1 <1>        0.000
      8 C9         -7.4393   -0.8699   -7.9004 C.2        1 <1>        0.000
      9 C10        -6.8092   -1.2249   -9.0367 C.2        1 <1>        0.000
     10 C11        -5.5324   -1.9431   -9.1537 C.2        1 <1>        0.000
     11 C12        -5.4248   -3.2601   -9.3871 C.2        1 <1>        0.000
     12 C13        -4.1469   -3.9713   -9.5033 C.2        1 <1>        0.000
     13 C14        -4.0475   -5.2970   -9.6326 C.2        1 <1>        0.000
     14 H          -4.5708   -3.4933   -1.1846 H.spc      1 <1>        0.000
     15 H          -5.3738   -4.0728   -2.6477 H.spc      1 <1>        0.000
     16 H          -4.9120   -0.9876   -4.5810 H.spc      1 <1>        0.000
     17 H          -6.6059   -3.4817   -4.1398 H.spc      1 <1>        0.000
     18 H          -6.9671   -3.2072   -6.6451 H.spc      1 <1>        0.000
     19 H          -6.7716   -0.2620   -5.8924 H.spc      1 <1>        0.000
     20 H          -8.3899   -0.3466   -8.0038 H.spc      1 <1>        0.000
     21 H          -7.2994   -0.9497   -9.9706 H.spc      1 <1>        0.000
     22 H          -4.6127   -1.3684   -9.0437 H.spc      1 <1>        0.000
     23 H          -6.3431   -3.8369   -9.4971 H.spc      1 <1>        0.000
     24 H          -3.2279   -3.3856   -9.4830 H.spc      1 <1>        0.000
     25 H          -4.9476   -5.9113   -9.6563 H.spc      1 <1>        0.000
     26 H          -3.0663   -5.7646   -9.7144 H.spc      1 <1>        0.000
@<TRIPOS>BOND
     1    4    5 2  
     2   10   11 2  
     3    1    2 am 
     4   12   13 2  
     5    8    9 2  
     6    9   10 1  
     7   11   12 1  
     8    7    8 1  
     9    2    4 1  
    10    6    7 2  
    11    2    3 2  
    12    5    6 1  
    13    1   14 1  
    14    1   15 1  
    15    4   16 1  
    16    5   17 1  
    17    6   18 1  
    18    7   19 1  
    19    8   20 1  
    20    9   21 1  
    21   10   22 1  
    22   11   23 1  
    23   12   24 1  
    24   13   25 1  
    25   13   26 1  
# Name:          frag3-176-9/31924 -- energy: -2.238763
# Creation time: Sat Jun  5 12:52:08 2010


@<TRIPOS>MOLECULE
frag3-176-9/31924 -- energy: -2.238763
   26    25     1     1     1
SMALL
USER_CHARGES


@<TRIPOS>ATOM
      1 N1         -5.1566   -1.3569   -0.8608 N.am       1 <1>        0.000
      2 C4         -5.0919   -2.0605   -2.0107 C.2        1 <1>        0.000
      3 O2         -4.3306   -3.0081   -2.1352 O.2        1 <1>        0.000
      4 C5         -5.9622   -1.6886   -3.1438 C.2        1 <1>        0.000
      5 C6         -5.5928   -1.7272   -4.4374 C.2        1 <1>        0.000
      6 C7         -6.4576   -1.3877   -5.5662 C.2        1 <1>        0.000
      7 C8         -6.3402   -1.8660   -6.8140 C.2        1 <1>        0.000
      8 C9         -7.2450   -1.5494   -7.9268 C.2        1 <1>        0.000
      9 C10        -7.1816   -2.0450   -9.1757 C.2        1 <1>        0.000
     10 C11        -6.2031   -3.0030   -9.6927 C.2        1 <1>        0.000
     11 C12        -4.9022   -2.7276   -9.9016 C.2        1 <1>        0.000
     12 C13        -3.9299   -3.6947  -10.4090 C.2        1 <1>        0.000
     13 C14        -4.2365   -4.9715  -10.6753 C.2        1 <1>        0.000
     14 H          -4.5621   -1.6125   -0.0724 H.spc      1 <1>        0.000
     15 H          -5.8000   -0.5695   -0.7802 H.spc      1 <1>        0.000
     16 H          -6.9761   -1.3593   -2.9165 H.spc      1 <1>        0.000
     17 H          -4.5712   -2.0350   -4.6604 H.spc      1 <1>        0.000
     18 H          -7.2687   -0.6844   -5.3774 H.spc      1 <1>        0.000
     19 H          -5.5094   -2.5416   -7.0177 H.spc      1 <1>        0.000
     20 H          -8.0482   -0.8421   -7.7199 H.spc      1 <1>        0.000
     21 H          -7.9394   -1.6961   -9.8772 H.spc      1 <1>        0.000
     22 H          -6.5521   -4.0092   -9.9246 H.spc      1 <1>        0.000
     23 H          -4.5514   -1.7200   -9.6784 H.spc      1 <1>        0.000
     24 H          -2.9063   -3.3608  -10.5788 H.spc      1 <1>        0.000
     25 H          -5.2522   -5.3329  -10.5149 H.spc      1 <1>        0.000
     26 H          -3.4702   -5.6488  -11.0523 H.spc      1 <1>        0.000
@<TRIPOS>BOND
     1    4    5 2  
     2   10   11 2  
     3    1    2 am 
     4   12   13 2  
     5    8    9 2  
     6    9   10 1  
     7   11   12 1  
     8    7    8 1  
     9    2    4 1  
    10    6    7 2  
    11    2    3 2  
    12    5    6 1  
    13    1   14 1  
    14    1   15 1  
    15    4   16 1  
    16    5   17 1  
    17    6   18 1  
    18    7   19 1  
    19    8   20 1  
    20    9   21 1  
    21   10   22 1  
    22   11   23 1  
    23   12   24 1  
    24   13   25 1  
    25   13   26 1  
# Name:          frag3-176-9/31924 -- energy: -2.749064
# Creation time: Sat Jun  5 12:52:08 2010


@<TRIPOS>MOLECULE
frag3-176-9/31924 -- energy: -2.749064
   26    25     1     1     1
SMALL
USER_CHARGES


@<TRIPOS>ATOM
      1 N1         -5.3099   -3.4435   -1.7537 N.am       1 <1>        0.000
      2 C4         -4.9850   -2.3913   -2.5355 C.2        1 <1>        0.000
      3 O2         -4.3207   -1.4605   -2.1052 O.2        1 <1>        0.000
      4 C5         -5.4322   -2.3601   -3.9429 C.2        1 <1>        0.000
      5 C6         -5.4617   -1.2558   -4.7105 C.2        1 <1>        0.000
      6 C7         -5.8853   -1.2234   -6.1115 C.2        1 <1>        0.000
      7 C8         -7.1352   -0.9761   -6.5392 C.2        1 <1>        0.000
      8 C9         -7.5391   -0.9111   -7.9522 C.2        1 <1>        0.000
      9 C10        -7.1571   -1.7639   -8.9221 C.2        1 <1>        0.000
     10 C11        -6.2830   -2.9350   -8.7811 C.2        1 <1>        0.000
     11 C12        -5.3130   -3.2679   -9.6450 C.2        1 <1>        0.000
     12 C13        -4.4386   -4.4337   -9.4918 C.2        1 <1>        0.000
     13 C14        -3.3696   -4.6640  -10.2584 C.2        1 <1>        0.000
     14 H          -4.9997   -3.4722   -0.7824 H.spc      1 <1>        0.000
     15 H          -5.8655   -4.2095   -2.1345 H.spc      1 <1>        0.000
     16 H          -5.7614   -3.2976   -4.3909 H.spc      1 <1>        0.000
     17 H          -5.1472   -0.3163   -4.2561 H.spc      1 <1>        0.000
     18 H          -5.1255   -1.4154   -6.8691 H.spc      1 <1>        0.000
     19 H          -7.9048   -0.8119   -5.7850 H.spc      1 <1>        0.000
     20 H          -8.2077   -0.0998   -8.2401 H.spc      1 <1>        0.000
     21 H          -7.5393   -1.5622   -9.9228 H.spc      1 <1>        0.000
     22 H          -6.4329   -3.5784   -7.9141 H.spc      1 <1>        0.000
     23 H          -5.1655   -2.6306  -10.5169 H.spc      1 <1>        0.000
     24 H          -4.6740   -5.1536   -8.7079 H.spc      1 <1>        0.000
     25 H          -3.1065   -3.9638  -11.0513 H.spc      1 <1>        0.000
     26 H          -2.7602   -5.5521  -10.0912 H.spc      1 <1>        0.000
@<TRIPOS>BOND
     1    4    5 2  
     2   10   11 2  
     3    1    2 am 
     4   12   13 2  
     5    8    9 2  
     6    9   10 1  
     7   11   12 1  
     8    7    8 1  
     9    2    4 1  
    10    6    7 2  
    11    2    3 2  
    12    5    6 1  
    13    1   14 1  
    14    1   15 1  
    15    4   16 1  
    16    5   17 1  
    17    6   18 1  
    18    7   19 1  
    19    8   20 1  
    20    9   21 1  
    21   10   22 1  
    22   11   23 1  
    23   12   24 1  
    24   13   25 1  
    25   13   26 1  
# Name:          frag3-176-9/31924 -- energy: -2.310164
# Creation time: Sat Jun  5 12:52:08 2010


@<TRIPOS>MOLECULE
frag3-176-9/31924 -- energy: -2.310164
   26    25     1     1     1
SMALL
USER_CHARGES


@<TRIPOS>ATOM
      1 N1         -4.6026   -1.1300   -2.0421 N.am       1 <1>        0.000
      2 C4         -4.7968   -2.3776   -2.5164 C.2        1 <1>        0.000
      3 O2         -4.4011   -3.3604   -1.9029 O.2        1 <1>        0.000
      4 C5         -5.5041   -2.5793   -3.7975 C.2        1 <1>        0.000
      5 C6         -5.9660   -1.5897   -4.5797 C.2        1 <1>        0.000
      6 C7         -6.6476   -1.7864   -5.8631 C.2        1 <1>        0.000
      7 C8         -6.9338   -0.8169   -6.7461 C.2        1 <1>        0.000
      8 C9         -7.5797   -1.0391   -8.0509 C.2        1 <1>        0.000
      9 C10        -7.1297   -1.8495   -9.0271 C.2        1 <1>        0.000
     10 C11        -5.9189   -2.6814   -9.0033 C.2        1 <1>        0.000
     11 C12        -5.5650   -3.5336   -9.9783 C.2        1 <1>        0.000
     12 C13        -4.3496   -4.3553   -9.9438 C.2        1 <1>        0.000
     13 C14        -3.2355   -3.9871   -9.2982 C.2        1 <1>        0.000
     14 H          -4.1176   -0.9912   -1.1556 H.spc      1 <1>        0.000
     15 H          -4.9408   -0.3253   -2.5699 H.spc      1 <1>        0.000
     16 H          -5.6625   -3.6045   -4.1320 H.spc      1 <1>        0.000
     17 H          -5.8237   -0.5654   -4.2352 H.spc      1 <1>        0.000
     18 H          -6.9461   -2.8025   -6.1209 H.spc      1 <1>        0.000
     19 H          -6.6698    0.2063   -6.4788 H.spc      1 <1>        0.000
     20 H          -8.5062   -0.4983   -8.2437 H.spc      1 <1>        0.000
     21 H          -7.7301   -1.8934   -9.9358 H.spc      1 <1>        0.000
     22 H          -5.2640   -2.6012   -8.1357 H.spc      1 <1>        0.000
     23 H          -6.2186   -3.6203  -10.8463 H.spc      1 <1>        0.000
     24 H          -4.3538   -5.3107  -10.4685 H.spc      1 <1>        0.000
     25 H          -3.2033   -3.0369   -8.7651 H.spc      1 <1>        0.000
     26 H          -2.3609   -4.6376   -9.3058 H.spc      1 <1>        0.000
@<TRIPOS>BOND
     1    4    5 2  
     2   10   11 2  
     3    1    2 am 
     4   12   13 2  
     5    8    9 2  
     6    9   10 1  
     7   11   12 1  
     8    7    8 1  
     9    2    4 1  
    10    6    7 2  
    11    2    3 2  
    12    5    6 1  
    13    1   14 1  
    14    1   15 1  
    15    4   16 1  
    16    5   17 1  
    17    6   18 1  
    18    7   19 1  
    19    8   20 1  
    20    9   21 1  
    21   10   22 1  
    22   11   23 1  
    23   12   24 1  
    24   13   25 1  
    25   13   26 1  
# Name:          frag3-176-9/31924 -- energy: -2.447851
# Creation time: Sat Jun  5 12:52:08 2010


@<TRIPOS>MOLECULE
frag3-176-9/31924 -- energy: -2.447851
   26    25     1     1     1
SMALL
USER_CHARGES


@<TRIPOS>ATOM
      1 N1         -4.1341   -1.2251   -1.2797 N.am       1 <1>        0.000
      2 C4         -4.9534   -1.9488   -2.0729 C.2        1 <1>        0.000
      3 O2         -5.3223   -3.0686   -1.7526 O.2        1 <1>        0.000
      4 C5         -5.4231   -1.3802   -3.3527 C.2        1 <1>        0.000
      5 C6         -6.1872   -2.0353   -4.2449 C.2        1 <1>        0.000
      6 C7         -6.6749   -1.4694   -5.5051 C.2        1 <1>        0.000
      7 C8         -6.8210   -2.1443   -6.6554 C.2        1 <1>        0.000
      8 C9         -7.3477   -1.5697   -7.9032 C.2        1 <1>        0.000
      9 C10        -7.0224   -1.9423   -9.1533 C.2        1 <1>        0.000
     10 C11        -6.0823   -3.0001   -9.5429 C.2        1 <1>        0.000
     11 C12        -4.7828   -2.7971   -9.8173 C.2        1 <1>        0.000
     12 C13        -3.8508   -3.8620  -10.1987 C.2        1 <1>        0.000
     13 C14        -4.0285   -4.6434  -11.2708 C.2        1 <1>        0.000
     14 H          -3.8106   -1.6115   -0.3929 H.spc      1 <1>        0.000
     15 H          -3.8389   -0.2921   -1.5675 H.spc      1 <1>        0.000
     16 H          -5.1298   -0.3578   -3.5908 H.spc      1 <1>        0.000
     17 H          -6.4642   -3.0637   -4.0131 H.spc      1 <1>        0.000
     18 H          -6.9411   -0.4124   -5.5085 H.spc      1 <1>        0.000
     19 H          -6.5283   -3.1942   -6.6663 H.spc      1 <1>        0.000
     20 H          -8.0732   -0.7623   -7.8044 H.spc      1 <1>        0.000
     21 H          -7.5090   -1.4008   -9.9646 H.spc      1 <1>        0.000
     22 H          -6.4640   -4.0186   -9.6144 H.spc      1 <1>        0.000
     23 H          -4.3986   -1.7791   -9.7524 H.spc      1 <1>        0.000
     24 H          -2.9694   -4.0257   -9.5787 H.spc      1 <1>        0.000
     25 H          -4.9007   -4.5027  -11.9092 H.spc      1 <1>        0.000
     26 H          -3.3010   -5.4204  -11.5055 H.spc      1 <1>        0.000
@<TRIPOS>BOND
     1    4    5 2  
     2   10   11 2  
     3    1    2 am 
     4   12   13 2  
     5    8    9 2  
     6    9   10 1  
     7   11   12 1  
     8    7    8 1  
     9    2    4 1  
    10    6    7 2  
    11    2    3 2  
    12    5    6 1  
    13    1   14 1  
    14    1   15 1  
    15    4   16 1  
    16    5   17 1  
    17    6   18 1  
    18    7   19 1  
    19    8   20 1  
    20    9   21 1  
    21   10   22 1  
    22   11   23 1  
    23   12   24 1  
    24   13   25 1  
    25   13   26 1  
# Name:          frag3-176-9/31924 -- energy: -2.278849
# Creation time: Sat Jun  5 12:52:08 2010


@<TRIPOS>MOLECULE
frag3-176-9/31924 -- energy: -2.278849
   26    25     1     1     1
SMALL
USER_CHARGES


@<TRIPOS>ATOM
      1 N1         -3.9631   -2.5941   -2.0915 N.am       1 <1>        0.000
      2 C4         -5.1493   -1.9824   -1.8904 C.2        1 <1>        0.000
      3 O2         -5.5213   -1.6696   -0.7673 O.2        1 <1>        0.000
      4 C5         -6.0258   -1.6733   -3.0396 C.2        1 <1>        0.000
      5 C6         -5.6404   -1.7158   -4.3256 C.2        1 <1>        0.000
      6 C7         -6.5180   -1.4329   -5.4698 C.2        1 <1>        0.000
      7 C8         -6.3761   -1.9538   -6.6975 C.2        1 <1>        0.000
      8 C9         -7.2921   -1.6941   -7.8238 C.2        1 <1>        0.000
      9 C10        -7.0005   -1.8099   -9.1308 C.2        1 <1>        0.000
     10 C11        -5.7184   -2.2372   -9.7149 C.2        1 <1>        0.000
     11 C12        -5.3626   -3.5196   -9.8880 C.2        1 <1>        0.000
     12 C13        -4.0820   -3.9393  -10.4752 C.2        1 <1>        0.000
     13 C14        -3.9808   -4.8643  -11.4349 C.2        1 <1>        0.000
     14 H          -3.3569   -2.8045   -1.2986 H.spc      1 <1>        0.000
     15 H          -3.6729   -2.8460   -3.0363 H.spc      1 <1>        0.000
     16 H          -7.0573   -1.3911   -2.8287 H.spc      1 <1>        0.000
     17 H          -4.6036   -1.9787   -4.5353 H.spc      1 <1>        0.000
     18 H          -7.3490   -0.7463   -5.3081 H.spc      1 <1>        0.000
     19 H          -5.5267   -2.6134   -6.8748 H.spc      1 <1>        0.000
     20 H          -8.3042   -1.3774   -7.5718 H.spc      1 <1>        0.000
     21 H          -7.7971   -1.5613   -9.8320 H.spc      1 <1>        0.000
     22 H          -5.0151   -1.4647  -10.0258 H.spc      1 <1>        0.000
     23 H          -6.0631   -4.2940   -9.5754 H.spc      1 <1>        0.000
     24 H          -3.1677   -3.4721  -10.1092 H.spc      1 <1>        0.000
     25 H          -4.8773   -5.3492  -11.8212 H.spc      1 <1>        0.000
     26 H          -3.0018   -5.1337  -11.8311 H.spc      1 <1>        0.000
@<TRIPOS>BOND
     1    4    5 2  
     2   10   11 2  
     3    1    2 am 
     4   12   13 2  
     5    8    9 2  
     6    9   10 1  
     7   11   12 1  
     8    7    8 1  
     9    2    4 1  
    10    6    7 2  
    11    2    3 2  
    12    5    6 1  
    13    1   14 1  
    14    1   15 1  
    15    4   16 1  
    16    5   17 1  
    17    6   18 1  
    18    7   19 1  
    19    8   20 1  
    20    9   21 1  
    21   10   22 1  
    22   11   23 1  
    23   12   24 1  
    24   13   25 1  
    25   13   26 1  
# Name:          frag3-176-9/31924 -- energy: -2.716866
# Creation time: Sat Jun  5 12:52:08 2010


@<TRIPOS>MOLECULE
frag3-176-9/31924 -- energy: -2.716866
   26    25     1     1     1
SMALL
USER_CHARGES


@<TRIPOS>ATOM
      1 N1         -3.5547   -2.8604   -2.6732 N.am       1 <1>        0.000
      2 C4         -4.7095   -2.1633   -2.6213 C.2        1 <1>        0.000
      3 O2         -5.2164   -1.8514   -1.5532 O.2        1 <1>        0.000
      4 C5         -5.3774   -1.7553   -3.8729 C.2        1 <1>        0.000
      5 C6         -6.6185   -2.1282   -4.2340 C.2        1 <1>        0.000
      6 C7         -7.2893   -1.7049   -5.4667 C.2        1 <1>        0.000
      7 C8         -6.7182   -1.6681   -6.6826 C.2        1 <1>        0.000
      8 C9         -7.4107   -1.2798   -7.9211 C.2        1 <1>        0.000
      9 C10        -6.9480   -1.4284   -9.1749 C.2        1 <1>        0.000
     10 C11        -5.6672   -2.0235   -9.5778 C.2        1 <1>        0.000
     11 C12        -5.4210   -3.3432   -9.6039 C.2        1 <1>        0.000
     12 C13        -4.1397   -3.9313  -10.0055 C.2        1 <1>        0.000
     13 C14        -3.5596   -4.9485   -9.3624 C.2        1 <1>        0.000
     14 H          -3.0871   -3.1377   -1.8101 H.spc      1 <1>        0.000
     15 H          -3.1497   -3.1099   -3.5755 H.spc      1 <1>        0.000
     16 H          -4.8259   -1.1058   -4.5527 H.spc      1 <1>        0.000
     17 H          -7.1636   -2.7918   -3.5627 H.spc      1 <1>        0.000
     18 H          -8.3319   -1.3961   -5.3913 H.spc      1 <1>        0.000
     19 H          -5.6668   -1.9458   -6.7565 H.spc      1 <1>        0.000
     20 H          -8.3961   -0.8269   -7.8116 H.spc      1 <1>        0.000
     21 H          -7.5920   -1.0690   -9.9775 H.spc      1 <1>        0.000
     22 H          -4.8637   -1.3496   -9.8752 H.spc      1 <1>        0.000
     23 H          -6.2235   -4.0190   -9.3082 H.spc      1 <1>        0.000
     24 H          -3.6326   -3.5160  -10.8764 H.spc      1 <1>        0.000
     25 H          -4.0412   -5.3861   -8.4879 H.spc      1 <1>        0.000
     26 H          -2.6047   -5.3408   -9.7122 H.spc      1 <1>        0.000
@<TRIPOS>BOND
     1    4    5 2  
     2   10   11 2  
     3    1    2 am 
     4   12   13 2  
     5    8    9 2  
     6    9   10 1  
     7   11   12 1  
     8    7    8 1  
     9    2    4 1  
    10    6    7 2  
    11    2    3 2  
    12    5    6 1  
    13    1   14 1  
    14    1   15 1  
    15    4   16 1  
    16    5   17 1  
    17    6   18 1  
    18    7   19 1  
    19    8   20 1  
    20    9   21 1  
    21   10   22 1  
    22   11   23 1  
    23   12   24 1  
    24   13   25 1  
    25   13   26 1  
# Name:          frag3-176-9/31924 -- energy: -2.862470
# Creation time: Sat Jun  5 12:52:08 2010


@<TRIPOS>MOLECULE
frag3-176-9/31924 -- energy: -2.862470
   26    25     1     1     1
SMALL
USER_CHARGES


@<TRIPOS>ATOM
      1 N1         -4.4384   -3.2326   -2.2832 N.am       1 <1>        0.000
      2 C4         -4.9968   -2.0223   -2.4867 C.2        1 <1>        0.000
      3 O2         -4.9229   -1.1375   -1.6432 O.2        1 <1>        0.000
      4 C5         -5.7111   -1.7408   -3.7475 C.2        1 <1>        0.000
      5 C6         -5.7303   -2.5573   -4.8155 C.2        1 <1>        0.000
      6 C7         -6.4566   -2.2859   -6.0580 C.2        1 <1>        0.000
      7 C8         -6.5039   -1.0942   -6.6804 C.2        1 <1>        0.000
      8 C9         -7.2033   -0.8413   -7.9499 C.2        1 <1>        0.000
      9 C10        -7.1327   -1.6077   -9.0572 C.2        1 <1>        0.000
     10 C11        -6.3540   -2.8412   -9.2284 C.2        1 <1>        0.000
     11 C12        -5.0189   -2.9174   -9.0912 C.2        1 <1>        0.000
     12 C13        -4.2484   -4.1530   -9.2573 C.2        1 <1>        0.000
     13 C14        -3.9131   -4.6551  -10.4509 C.2        1 <1>        0.000
     14 H          -3.9424   -3.4256   -1.4131 H.spc      1 <1>        0.000
     15 H          -4.5120   -3.9552   -2.9994 H.spc      1 <1>        0.000
     16 H          -6.2628   -0.8033   -3.8177 H.spc      1 <1>        0.000
     17 H          -5.1652   -3.4872   -4.7521 H.spc      1 <1>        0.000
     18 H          -7.0008   -3.1132   -6.5135 H.spc      1 <1>        0.000
     19 H          -5.9876   -0.2568   -6.2110 H.spc      1 <1>        0.000
     20 H          -7.8354    0.0453   -7.9999 H.spc      1 <1>        0.000
     21 H          -7.7156   -1.2765   -9.9167 H.spc      1 <1>        0.000
     22 H          -6.8933   -3.7535   -9.4831 H.spc      1 <1>        0.000
     23 H          -4.4768   -2.0054   -8.8414 H.spc      1 <1>        0.000
     24 H          -3.9326   -4.6900   -8.3629 H.spc      1 <1>        0.000
     25 H          -4.2148   -4.1402  -11.3630 H.spc      1 <1>        0.000
     26 H          -3.3381   -5.5791  -10.5114 H.spc      1 <1>        0.000
@<TRIPOS>BOND
     1    4    5 2  
     2   10   11 2  
     3    1    2 am 
     4   12   13 2  
     5    8    9 2  
     6    9   10 1  
     7   11   12 1  
     8    7    8 1  
     9    2    4 1  
    10    6    7 2  
    11    2    3 2  
    12    5    6 1  
    13    1   14 1  
    14    1   15 1  
    15    4   16 1  
    16    5   17 1  
    17    6   18 1  
    18    7   19 1  
    19    8   20 1  
    20    9   21 1  
    21   10   22 1  
    22   11   23 1  
    23   12   24 1  
    24   13   25 1  
    25   13   26 1  
# Name:          frag3-176-9/31924 -- energy: -2.849794
# Creation time: Sat Jun  5 12:52:08 2010


@<TRIPOS>MOLECULE
frag3-176-9/31924 -- energy: -2.849794
   26    25     1     1     1
SMALL
USER_CHARGES


@<TRIPOS>ATOM
      1 N1         -4.1412   -1.4042   -2.1367 N.am       1 <1>        0.000
      2 C4         -4.8398   -2.4314   -2.6600 C.2        1 <1>        0.000
      3 O2         -4.8571   -3.5304   -2.1201 O.2        1 <1>        0.000
      4 C5         -5.6047   -2.2434   -3.9078 C.2        1 <1>        0.000
      5 C6         -6.1389   -1.0753   -4.3103 C.2        1 <1>        0.000
      6 C7         -6.8792   -0.8861   -5.5591 C.2        1 <1>        0.000
      7 C8         -6.6920   -1.5977   -6.6839 C.2        1 <1>        0.000
      8 C9         -7.4687   -1.4319   -7.9209 C.2        1 <1>        0.000
      9 C10        -7.2723   -2.0823   -9.0822 C.2        1 <1>        0.000
     10 C11        -6.2493   -3.0964   -9.3595 C.2        1 <1>        0.000
     11 C12        -4.9422   -2.9516   -9.0760 C.2        1 <1>        0.000
     12 C13        -3.9269   -3.9700   -9.3494 C.2        1 <1>        0.000
     13 C14        -3.6181   -4.3856  -10.5834 C.2        1 <1>        0.000
     14 H          -3.6128   -1.5339   -1.2740 H.spc      1 <1>        0.000
     15 H          -4.1410   -0.4973   -2.6035 H.spc      1 <1>        0.000
     16 H          -5.7474   -3.1128   -4.5496 H.spc      1 <1>        0.000
     17 H          -6.0113   -0.2093   -3.6608 H.spc      1 <1>        0.000
     18 H          -7.6417   -0.1074   -5.5782 H.spc      1 <1>        0.000
     19 H          -5.9065   -2.3533   -6.6784 H.spc      1 <1>        0.000
     20 H          -8.2851   -0.7101   -7.8947 H.spc      1 <1>        0.000
     21 H          -7.9436   -1.8292   -9.9028 H.spc      1 <1>        0.000
     22 H          -6.5691   -4.0283   -9.8258 H.spc      1 <1>        0.000
     23 H          -4.6193   -2.0185   -8.6143 H.spc      1 <1>        0.000
     24 H          -3.3961   -4.4117   -8.5061 H.spc      1 <1>        0.000
     25 H          -4.1325   -3.9618  -11.4459 H.spc      1 <1>        0.000
     26 H          -2.8522   -5.1480  -10.7260 H.spc      1 <1>        0.000
@<TRIPOS>BOND
     1    4    5 2  
     2   10   11 2  
     3    1    2 am 
     4   12   13 2  
     5    8    9 2  
     6    9   10 1  
     7   11   12 1  
     8    7    8 1  
     9    2    4 1  
    10    6    7 2  
    11    2    3 2  
    12    5    6 1  
    13    1   14 1  
    14    1   15 1  
    15    4   16 1  
    16    5   17 1  
    17    6   18 1  
    18    7   19 1  
    19    8   20 1  
    20    9   21 1  
    21   10   22 1  
    22   11   23 1  
    23   12   24 1  
    24   13   25 1  
    25   13   26 1  
# Name:          frag3-176-9/31924 -- energy: -2.754145
# Creation time: Sat Jun  5 12:52:08 2010


@<TRIPOS>MOLECULE
frag3-176-9/31924 -- energy: -2.754145
   26    25     1     1     1
SMALL
USER_CHARGES


@<TRIPOS>ATOM
      1 N1         -4.7933   -0.9500   -1.2896 N.am       1 <1>        0.000
      2 C4         -5.2111   -1.9326   -2.1159 C.2        1 <1>        0.000
      3 O2         -5.1946   -3.1048   -1.7688 O.2        1 <1>        0.000
      4 C5         -5.7089   -1.5955   -3.4645 C.2        1 <1>        0.000
      5 C6         -5.1966   -2.0792   -4.6110 C.2        1 <1>        0.000
      6 C7         -5.7090   -1.7636   -5.9477 C.2        1 <1>        0.000
      7 C8         -7.0022   -1.8231   -6.3123 C.2        1 <1>        0.000
      8 C9         -7.5115   -1.4610   -7.6449 C.2        1 <1>        0.000
      9 C10        -7.0501   -1.9270   -8.8203 C.2        1 <1>        0.000
     10 C11        -5.9685   -2.8998   -9.0275 C.2        1 <1>        0.000
     11 C12        -5.5265   -3.2985  -10.2289 C.2        1 <1>        0.000
     12 C13        -4.4407   -4.2649  -10.4247 C.2        1 <1>        0.000
     13 C14        -3.3174   -3.9866  -11.0933 C.2        1 <1>        0.000
     14 H          -4.4552   -1.1790   -0.3549 H.spc      1 <1>        0.000
     15 H          -4.8158    0.0214   -1.6000 H.spc      1 <1>        0.000
     16 H          -6.5504   -0.9065   -3.5364 H.spc      1 <1>        0.000
     17 H          -4.3418   -2.7519   -4.5409 H.spc      1 <1>        0.000
     18 H          -4.9865   -1.4572   -6.7042 H.spc      1 <1>        0.000
     19 H          -7.7234   -2.1632   -5.5691 H.spc      1 <1>        0.000
     20 H          -8.3375   -0.7508   -7.6834 H.spc      1 <1>        0.000
     21 H          -7.5322   -1.5399   -9.7180 H.spc      1 <1>        0.000
     22 H          -5.4931   -3.3264   -8.1443 H.spc      1 <1>        0.000
     23 H          -6.0034   -2.8786  -11.1145 H.spc      1 <1>        0.000
     24 H          -4.5560   -5.2632  -10.0025 H.spc      1 <1>        0.000
     25 H          -3.1724   -2.9973  -11.5273 H.spc      1 <1>        0.000
     26 H          -2.5463   -4.7489  -11.2046 H.spc      1 <1>        0.000
@<TRIPOS>BOND
     1    4    5 2  
     2   10   11 2  
     3    1    2 am 
     4   12   13 2  
     5    8    9 2  
     6    9   10 1  
     7   11   12 1  
     8    7    8 1  
     9    2    4 1  
    10    6    7 2  
    11    2    3 2  
    12    5    6 1  
    13    1   14 1  
    14    1   15 1  
    15    4   16 1  
    16    5   17 1  
    17    6   18 1  
    18    7   19 1  
    19    8   20 1  
    20    9   21 1  
    21   10   22 1  
    22   11   23 1  
    23   12   24 1  
    24   13   25 1  
    25   13   26 1  
# Name:          frag3-176-9/31924 -- energy: -3.034551
# Creation time: Sat Jun  5 12:52:09 2010


@<TRIPOS>MOLECULE
frag3-176-9/31924 -- energy: -3.034551
   26    25     1     1     1
SMALL
USER_CHARGES


@<TRIPOS>ATOM
      1 N1         -5.5971   -2.1458   -1.3730 N.am       1 <1>        0.000
      2 C4         -4.9165   -2.0849   -2.5369 C.2        1 <1>        0.000
      3 O2         -3.7143   -2.3002   -2.5834 O.2        1 <1>        0.000
      4 C5         -5.6296   -1.7519   -3.7858 C.2        1 <1>        0.000
      5 C6         -5.7306   -2.5702   -4.8499 C.2        1 <1>        0.000
      6 C7         -6.4547   -2.2481   -6.0804 C.2        1 <1>        0.000
      7 C8         -6.4716   -1.0411   -6.6754 C.2        1 <1>        0.000
      8 C9         -7.1690   -0.7370   -7.9331 C.2        1 <1>        0.000
      9 C10        -7.2048   -1.5259   -9.0264 C.2        1 <1>        0.000
     10 C11        -6.5643   -2.8360   -9.1916 C.2        1 <1>        0.000
     11 C12        -5.2451   -3.0193   -9.3613 C.2        1 <1>        0.000
     12 C13        -4.6093   -4.3294   -9.5167 C.2        1 <1>        0.000
     13 C14        -3.3234   -4.4964   -9.8354 C.2        1 <1>        0.000
     14 H          -5.1082   -2.3754   -0.5077 H.spc      1 <1>        0.000
     15 H          -6.6003   -1.9622   -1.3586 H.spc      1 <1>        0.000
     16 H          -6.1080   -0.7747   -3.8509 H.spc      1 <1>        0.000
     17 H          -5.2385   -3.5410   -4.7910 H.spc      1 <1>        0.000
     18 H          -7.0249   -3.0485   -6.5518 H.spc      1 <1>        0.000
     19 H          -5.9288   -0.2303   -6.1895 H.spc      1 <1>        0.000
     20 H          -7.7050    0.2106   -7.9869 H.spc      1 <1>        0.000
     21 H          -7.7703   -1.1500   -9.8791 H.spc      1 <1>        0.000
     22 H          -7.2024   -3.7195   -9.1754 H.spc      1 <1>        0.000
     23 H          -4.6064   -2.1364   -9.3849 H.spc      1 <1>        0.000
     24 H          -5.2206   -5.2188   -9.3635 H.spc      1 <1>        0.000
     25 H          -2.6844   -3.6280   -9.9955 H.spc      1 <1>        0.000
     26 H          -2.9128   -5.5011   -9.9355 H.spc      1 <1>        0.000
@<TRIPOS>BOND
     1    4    5 2  
     2   10   11 2  
     3    1    2 am 
     4   12   13 2  
     5    8    9 2  
     6    9   10 1  
     7   11   12 1  
     8    7    8 1  
     9    2    4 1  
    10    6    7 2  
    11    2    3 2  
    12    5    6 1  
    13    1   14 1  
    14    1   15 1  
    15    4   16 1  
    16    5   17 1  
    17    6   18 1  
    18    7   19 1  
    19    8   20 1  
    20    9   21 1  
    21   10   22 1  
    22   11   23 1  
    23   12   24 1  
    24   13   25 1  
    25   13   26 1  
# Name:          frag3-176-9/31924 -- energy: -3.123962
# Creation time: Sat Jun  5 12:52:09 2010


@<TRIPOS>MOLECULE
frag3-176-9/31924 -- energy: -3.123962
   26    25     1     1     1
SMALL
USER_CHARGES


@<TRIPOS>ATOM
      1 N1         -3.9569   -1.5271   -1.8867 N.am       1 <1>        0.000
      2 C4         -4.7011   -2.2666   -2.7368 C.2        1 <1>        0.000
      3 O2         -5.1060   -3.3769   -2.4270 O.2        1 <1>        0.000
      4 C5         -5.0411   -1.7277   -4.0689 C.2        1 <1>        0.000
      5 C6         -6.0597   -2.1621   -4.8326 C.2        1 <1>        0.000
      6 C7         -6.4164   -1.6171   -6.1428 C.2        1 <1>        0.000
      7 C8         -7.4702   -1.9934   -6.8846 C.2        1 <1>        0.000
      8 C9         -7.8366   -1.4057   -8.1817 C.2        1 <1>        0.000
      9 C10        -7.1197   -1.4884   -9.3203 C.2        1 <1>        0.000
     10 C11        -5.8505   -2.1984   -9.5106 C.2        1 <1>        0.000
     11 C12        -5.5791   -3.4149   -9.0042 C.2        1 <1>        0.000
     12 C13        -4.3107   -4.1188   -9.1959 C.2        1 <1>        0.000
     13 C14        -3.1824   -3.7892   -8.5572 C.2        1 <1>        0.000
     14 H          -3.7218   -1.8930   -0.9641 H.spc      1 <1>        0.000
     15 H          -3.6298   -0.6026   -2.1672 H.spc      1 <1>        0.000
     16 H          -4.4227   -0.9204   -4.4613 H.spc      1 <1>        0.000
     17 H          -6.6651   -2.9820   -4.4462 H.spc      1 <1>        0.000
     18 H          -5.7715   -0.8392   -6.5515 H.spc      1 <1>        0.000
     19 H          -8.1006   -2.7935   -6.4968 H.spc      1 <1>        0.000
     20 H          -8.7745   -0.8521   -8.2267 H.spc      1 <1>        0.000
     21 H          -7.5259   -0.9736  -10.1910 H.spc      1 <1>        0.000
     22 H          -5.0764   -1.7083  -10.1010 H.spc      1 <1>        0.000
     23 H          -6.3524   -3.9069   -8.4142 H.spc      1 <1>        0.000
     24 H          -4.2838   -4.9546   -9.8950 H.spc      1 <1>        0.000
     25 H          -3.1782   -2.9580   -7.8521 H.spc      1 <1>        0.000
     26 H          -2.2673   -4.3518   -8.7419 H.spc      1 <1>        0.000
@<TRIPOS>BOND
     1    4    5 2  
     2   10   11 2  
     3    1    2 am 
     4   12   13 2  
     5    8    9 2  
     6    9   10 1  
     7   11   12 1  
     8    7    8 1  
     9    2    4 1  
    10    6    7 2  
    11    2    3 2  
    12    5    6 1  
    13    1   14 1  
    14    1   15 1  
    15    4   16 1  
    16    5   17 1  
    17    6   18 1  
    18    7   19 1  
    19    8   20 1  
    20    9   21 1  
    21   10   22 1  
    22   11   23 1  
    23   12   24 1  
    24   13   25 1  
    25   13   26 1  
# Name:          frag3-176-9/31924 -- energy: -2.574395
# Creation time: Sat Jun  5 12:52:09 2010


@<TRIPOS>MOLECULE
frag3-176-9/31924 -- energy: -2.574395
   26    25     1     1     1
SMALL
USER_CHARGES


@<TRIPOS>ATOM
      1 N1         -4.1275   -1.4661   -2.2109 N.am       1 <1>        0.000
      2 C4         -4.7875   -2.5072   -2.7577 C.2        1 <1>        0.000
      3 O2         -4.7232   -3.6285   -2.2698 O.2        1 <1>        0.000
      4 C5         -5.6111   -2.3069   -3.9662 C.2        1 <1>        0.000
      5 C6         -5.9679   -1.1076   -4.4596 C.2        1 <1>        0.000
      6 C7         -6.7668   -0.9118   -5.6729 C.2        1 <1>        0.000
      7 C8         -6.8585   -1.7911   -6.6855 C.2        1 <1>        0.000
      8 C9         -7.6965   -1.6057   -7.8806 C.2        1 <1>        0.000
      9 C10        -7.3156   -1.7883   -9.1578 C.2        1 <1>        0.000
     10 C11        -5.9969   -2.2320   -9.6288 C.2        1 <1>        0.000
     11 C12        -5.4303   -3.4028   -9.2934 C.2        1 <1>        0.000
     12 C13        -4.1136   -3.8419   -9.7654 C.2        1 <1>        0.000
     13 C14        -3.2351   -4.4965   -9.0008 C.2        1 <1>        0.000
     14 H          -3.5606   -1.6043   -1.3743 H.spc      1 <1>        0.000
     15 H          -4.1952   -0.5404   -2.6339 H.spc      1 <1>        0.000
     16 H          -5.9548   -3.1948   -4.4969 H.spc      1 <1>        0.000
     17 H          -5.6401   -0.2193   -3.9196 H.spc      1 <1>        0.000
     18 H          -7.3294    0.0177   -5.7607 H.spc      1 <1>        0.000
     19 H          -6.2704   -2.7062   -6.6164 H.spc      1 <1>        0.000
     20 H          -8.7264   -1.2896   -7.7149 H.spc      1 <1>        0.000
     21 H          -8.0642   -1.5857   -9.9237 H.spc      1 <1>        0.000
     22 H          -5.4427   -1.5688  -10.2929 H.spc      1 <1>        0.000
     23 H          -5.9834   -4.0672   -8.6295 H.spc      1 <1>        0.000
     24 H          -3.8362   -3.6223  -10.7964 H.spc      1 <1>        0.000
     25 H          -3.4823   -4.7312   -7.9655 H.spc      1 <1>        0.000
     26 H          -2.2712   -4.7959   -9.4123 H.spc      1 <1>        0.000
@<TRIPOS>BOND
     1    4    5 2  
     2   10   11 2  
     3    1    2 am 
     4   12   13 2  
     5    8    9 2  
     6    9   10 1  
     7   11   12 1  
     8    7    8 1  
     9    2    4 1  
    10    6    7 2  
    11    2    3 2  
    12    5    6 1  
    13    1   14 1  
    14    1   15 1  
    15    4   16 1  
    16    5   17 1  
    17    6   18 1  
    18    7   19 1  
    19    8   20 1  
    20    9   21 1  
    21   10   22 1  
    22   11   23 1  
    23   12   24 1  
    24   13   25 1  
    25   13   26 1  
# Name:          frag3-176-9/31924 -- energy: -3.272375
# Creation time: Sat Jun  5 12:52:09 2010


@<TRIPOS>MOLECULE
frag3-176-9/31924 -- energy: -3.272375
   26    25     1     1     1
SMALL
USER_CHARGES


@<TRIPOS>ATOM
      1 N1         -3.5482   -3.2071   -2.6635 N.am       1 <1>        0.000
      2 C4         -4.6403   -2.4831   -2.9910 C.2        1 <1>        0.000
      3 O2         -5.1677   -1.7290   -2.1872 O.2        1 <1>        0.000
      4 C5         -5.2135   -2.5962   -4.3475 C.2        1 <1>        0.000
      5 C6         -6.2222   -1.8387   -4.8160 C.2        1 <1>        0.000
      6 C7         -6.7759   -1.9275   -6.1686 C.2        1 <1>        0.000
      7 C8         -7.2713   -0.8996   -6.8763 C.2        1 <1>        0.000
      8 C9         -7.7816   -0.9989   -8.2526 C.2        1 <1>        0.000
      9 C10        -7.1101   -1.4953   -9.3108 C.2        1 <1>        0.000
     10 C11        -5.7498   -2.0479   -9.3144 C.2        1 <1>        0.000
     11 C12        -5.4329   -3.2830   -8.8932 C.2        1 <1>        0.000
     12 C13        -4.0735   -3.8292   -8.8970 C.2        1 <1>        0.000
     13 C14        -3.6435   -4.7509   -8.0312 C.2        1 <1>        0.000
     14 H          -3.1471   -3.1306   -1.7288 H.spc      1 <1>        0.000
     15 H          -3.1246   -3.8304   -3.3509 H.spc      1 <1>        0.000
     16 H          -4.7898   -3.3457   -5.0159 H.spc      1 <1>        0.000
     17 H          -6.6593   -1.1050   -4.1387 H.spc      1 <1>        0.000
     18 H          -6.7868   -2.9101   -6.6404 H.spc      1 <1>        0.000
     19 H          -7.2973    0.0788   -6.3966 H.spc      1 <1>        0.000
     20 H          -8.7943   -0.6384   -8.4329 H.spc      1 <1>        0.000
     21 H          -7.6334   -1.4854  -10.2669 H.spc      1 <1>        0.000
     22 H          -4.9438   -1.4136   -9.6834 H.spc      1 <1>        0.000
     23 H          -6.2378   -3.9193   -8.5253 H.spc      1 <1>        0.000
     24 H          -3.3739   -3.4629   -9.6484 H.spc      1 <1>        0.000
     25 H          -4.3180   -5.1380   -7.2675 H.spc      1 <1>        0.000
     26 H          -2.6181   -5.1160   -8.0884 H.spc      1 <1>        0.000
@<TRIPOS>BOND
     1    4    5 2  
     2   10   11 2  
     3    1    2 am 
     4   12   13 2  
     5    8    9 2  
     6    9   10 1  
     7   11   12 1  
     8    7    8 1  
     9    2    4 1  
    10    6    7 2  
    11    2    3 2  
    12    5    6 1  
    13    1   14 1  
    14    1   15 1  
    15    4   16 1  
    16    5   17 1  
    17    6   18 1  
    18    7   19 1  
    19    8   20 1  
    20    9   21 1  
    21   10   22 1  
    22   11   23 1  
    23   12   24 1  
    24   13   25 1  
    25   13   26 1  
# Name:          frag3-176-9/31924 -- energy: -2.658400
# Creation time: Sat Jun  5 12:52:09 2010


@<TRIPOS>MOLECULE
frag3-176-9/31924 -- energy: -2.658400
   26    25     1     1     1
SMALL
USER_CHARGES


@<TRIPOS>ATOM
      1 N1         -4.1457   -1.4700   -2.2880 N.am       1 <1>        0.000
      2 C4         -4.9214   -2.4652   -2.7613 C.2        1 <1>        0.000
      3 O2         -5.1302   -3.4777   -2.1050 O.2        1 <1>        0.000
      4 C5         -5.5430   -2.3452   -4.0945 C.2        1 <1>        0.000
      5 C6         -5.4362   -1.2715   -4.8976 C.2        1 <1>        0.000
      6 C7         -6.0361   -1.1619   -6.2266 C.2        1 <1>        0.000
      7 C8         -7.2382   -1.6557   -6.5771 C.2        1 <1>        0.000
      8 C9         -7.8504   -1.5082   -7.9045 C.2        1 <1>        0.000
      9 C10        -7.2734   -1.8242   -9.0808 C.2        1 <1>        0.000
     10 C11        -5.9428   -2.4043   -9.2830 C.2        1 <1>        0.000
     11 C12        -5.6345   -3.6955   -9.0653 C.2        1 <1>        0.000
     12 C13        -4.3018   -4.2651   -9.2694 C.2        1 <1>        0.000
     13 C14        -3.1766   -3.5418   -9.1962 C.2        1 <1>        0.000
     14 H          -3.7186   -1.5511   -1.3653 H.spc      1 <1>        0.000
     15 H          -3.9857   -0.6356   -2.8525 H.spc      1 <1>        0.000
     16 H          -6.1319   -3.1887   -4.4548 H.spc      1 <1>        0.000
     17 H          -4.8607   -0.4214   -4.5311 H.spc      1 <1>        0.000
     18 H          -5.4649   -0.6392   -6.9938 H.spc      1 <1>        0.000
     19 H          -7.7985   -2.2053   -5.8207 H.spc      1 <1>        0.000
     20 H          -8.8631   -1.1068   -7.9413 H.spc      1 <1>        0.000
     21 H          -7.8595   -1.6271   -9.9784 H.spc      1 <1>        0.000
     22 H          -5.1490   -1.7447   -9.6336 H.spc      1 <1>        0.000
     23 H          -6.4259   -4.3583   -8.7154 H.spc      1 <1>        0.000
     24 H          -4.2209   -5.3291   -9.4917 H.spc      1 <1>        0.000
     25 H          -3.2275   -2.4756   -8.9755 H.spc      1 <1>        0.000
     26 H          -2.2102   -4.0195   -9.3574 H.spc      1 <1>        0.000
@<TRIPOS>BOND
     1    4    5 2  
     2   10   11 2  
     3    1    2 am 
     4   12   13 2  
     5    8    9 2  
     6    9   10 1  
     7   11   12 1  
     8    7    8 1  
     9    2    4 1  
    10    6    7 2  
    11    2    3 2  
    12    5    6 1  
    13    1   14 1  
    14    1   15 1  
    15    4   16 1  
    16    5   17 1  
    17    6   18 1  
    18    7   19 1  
    19    8   20 1  
    20    9   21 1  
    21   10   22 1  
    22   11   23 1  
    23   12   24 1  
    24   13   25 1  
    25   13   26 1  
# Name:          frag3-176-9/31924 -- energy: -2.619308
# Creation time: Sat Jun  5 12:52:09 2010


@<TRIPOS>MOLECULE
frag3-176-9/31924 -- energy: -2.619308
   26    25     1     1     1
SMALL
USER_CHARGES


@<TRIPOS>ATOM
      1 N1         -3.6446   -1.8375   -1.8804 N.am       1 <1>        0.000
      2 C4         -4.7825   -2.2571   -2.4746 C.2        1 <1>        0.000
      3 O2         -5.6197   -2.9018   -1.8603 O.2        1 <1>        0.000
      4 C5         -5.0315   -1.9331   -3.8940 C.2        1 <1>        0.000
      5 C6         -6.2218   -1.5578   -4.3938 C.2        1 <1>        0.000
      6 C7         -6.4682   -1.2157   -5.7984 C.2        1 <1>        0.000
      7 C8         -7.4339   -1.7440   -6.5665 C.2        1 <1>        0.000
      8 C9         -7.6927   -1.3630   -7.9648 C.2        1 <1>        0.000
      9 C10        -7.0687   -1.8558   -9.0494 C.2        1 <1>        0.000
     10 C11        -6.0214   -2.8854   -9.0795 C.2        1 <1>        0.000
     11 C12        -5.2878   -3.1903  -10.1613 C.2        1 <1>        0.000
     12 C13        -4.2389   -4.2154  -10.1765 C.2        1 <1>        0.000
     13 C14        -3.1186   -4.1295   -9.4496 C.2        1 <1>        0.000
     14 H          -3.4703   -2.0575   -0.8998 H.spc      1 <1>        0.000
     15 H          -2.9595   -1.3006   -2.4123 H.spc      1 <1>        0.000
     16 H          -4.1912   -2.0032   -4.5847 H.spc      1 <1>        0.000
     17 H          -7.0649   -1.5039   -3.7050 H.spc      1 <1>        0.000
     18 H          -5.8146   -0.4727   -6.2554 H.spc      1 <1>        0.000
     19 H          -8.0715   -2.5091   -6.1237 H.spc      1 <1>        0.000
     20 H          -8.4624   -0.6108   -8.1372 H.spc      1 <1>        0.000
     21 H          -7.3737   -1.4461  -10.0123 H.spc      1 <1>        0.000
     22 H          -5.8269   -3.4393   -8.1611 H.spc      1 <1>        0.000
     23 H          -5.4832   -2.6434  -11.0837 H.spc      1 <1>        0.000
     24 H          -4.3788   -5.0904  -10.8112 H.spc      1 <1>        0.000
     25 H          -2.9515   -3.2660   -8.8058 H.spc      1 <1>        0.000
     26 H          -2.3732   -4.9231   -9.5013 H.spc      1 <1>        0.000
@<TRIPOS>BOND
     1    4    5 2  
     2   10   11 2  
     3    1    2 am 
     4   12   13 2  
     5    8    9 2  
     6    9   10 1  
     7   11   12 1  
     8    7    8 1  
     9    2    4 1  
    10    6    7 2  
    11    2    3 2  
    12    5    6 1  
    13    1   14 1  
    14    1   15 1  
    15    4   16 1  
    16    5   17 1  
    17    6   18 1  
    18    7   19 1  
    19    8   20 1  
    20    9   21 1  
    21   10   22 1  
    22   11   23 1  
    23   12   24 1  
    24   13   25 1  
    25   13   26 1  
# Name:          frag3-176-9/31924 -- energy: -2.781169
# Creation time: Sat Jun  5 12:52:09 2010


@<TRIPOS>MOLECULE
frag3-176-9/31924 -- energy: -2.781169
   26    25     1     1     1
SMALL
USER_CHARGES


@<TRIPOS>ATOM
      1 N1         -4.9524   -1.6825   -1.7037 N.am       1 <1>        0.000
      2 C4         -4.8760   -2.5248   -2.7535 C.2        1 <1>        0.000
      3 O2         -4.2177   -3.5551   -2.6976 O.2        1 <1>        0.000
      4 C5         -5.6061   -2.2165   -3.9983 C.2        1 <1>        0.000
      5 C6         -5.5735   -1.0294   -4.6318 C.2        1 <1>        0.000
      6 C7         -6.2794   -0.7334   -5.8803 C.2        1 <1>        0.000
      7 C8         -6.8631   -1.6490   -6.6739 C.2        1 <1>        0.000
      8 C9         -7.6057   -1.3403   -7.9039 C.2        1 <1>        0.000
      9 C10        -7.4678   -1.9520   -9.0944 C.2        1 <1>        0.000
     10 C11        -6.5600   -3.0590   -9.4152 C.2        1 <1>        0.000
     11 C12        -5.2239   -3.0052   -9.2869 C.2        1 <1>        0.000
     12 C13        -4.3218   -4.1158   -9.5983 C.2        1 <1>        0.000
     13 C14        -3.0828   -4.2232   -9.1117 C.2        1 <1>        0.000
     14 H          -4.4553   -1.8982   -0.8396 H.spc      1 <1>        0.000
     15 H          -5.5073   -0.8295   -1.7735 H.spc      1 <1>        0.000
     16 H          -6.2156   -3.0070   -4.4362 H.spc      1 <1>        0.000
     17 H          -4.9800   -0.2323   -4.1841 H.spc      1 <1>        0.000
     18 H          -6.3361    0.3100   -6.1905 H.spc      1 <1>        0.000
     19 H          -6.7793   -2.6963   -6.3836 H.spc      1 <1>        0.000
     20 H          -8.3402   -0.5370   -7.8461 H.spc      1 <1>        0.000
     21 H          -8.0969   -1.5865   -9.9061 H.spc      1 <1>        0.000
     22 H          -6.9989   -3.9868   -9.7821 H.spc      1 <1>        0.000
     23 H          -4.7830   -2.0752   -8.9280 H.spc      1 <1>        0.000
     24 H          -4.6820   -4.8993  -10.2651 H.spc      1 <1>        0.000
     25 H          -2.6919   -3.4570   -8.4423 H.spc      1 <1>        0.000
     26 H          -2.4625   -5.0771   -9.3840 H.spc      1 <1>        0.000
@<TRIPOS>BOND
     1    4    5 2  
     2   10   11 2  
     3    1    2 am 
     4   12   13 2  
     5    8    9 2  
     6    9   10 1  
     7   11   12 1  
     8    7    8 1  
     9    2    4 1  
    10    6    7 2  
    11    2    3 2  
    12    5    6 1  
    13    1   14 1  
    14    1   15 1  
    15    4   16 1  
    16    5   17 1  
    17    6   18 1  
    18    7   19 1  
    19    8   20 1  
    20    9   21 1  
    21   10   22 1  
    22   11   23 1  
    23   12   24 1  
    24   13   25 1  
    25   13   26 1  
# Name:          frag3-176-9/31924 -- energy: -2.517299
# Creation time: Sat Jun  5 12:52:09 2010


@<TRIPOS>MOLECULE
frag3-176-9/31924 -- energy: -2.517299
   26    25     1     1     1
SMALL
USER_CHARGES


@<TRIPOS>ATOM
      1 N1         -5.1188   -3.2358   -1.5302 N.am       1 <1>        0.000
      2 C4         -4.9119   -2.3708   -2.5459 C.2        1 <1>        0.000
      3 O2         -4.0321   -1.5249   -2.4917 O.2        1 <1>        0.000
      4 C5         -5.7586   -2.4464   -3.7528 C.2        1 <1>        0.000
      5 C6         -5.7130   -1.5732   -4.7758 C.2        1 <1>        0.000
      6 C7         -6.5295   -1.6541   -5.9853 C.2        1 <1>        0.000
      7 C8         -6.5434   -0.7566   -6.9833 C.2        1 <1>        0.000
      8 C9         -7.3396   -0.8757   -8.2115 C.2        1 <1>        0.000
      9 C10        -7.0339   -1.6344   -9.2829 C.2        1 <1>        0.000
     10 C11        -5.8635   -2.4981   -9.4461 C.2        1 <1>        0.000
     11 C12        -5.7109   -3.6967   -8.8532 C.2        1 <1>        0.000
     12 C13        -4.5374   -4.5524   -9.0225 C.2        1 <1>        0.000
     13 C14        -3.5378   -4.2671   -9.8680 C.2        1 <1>        0.000
     14 H          -4.5344   -3.1913   -0.6954 H.spc      1 <1>        0.000
     15 H          -5.8595   -3.9338   -1.5976 H.spc      1 <1>        0.000
     16 H          -6.4716   -3.2681   -3.8202 H.spc      1 <1>        0.000
     17 H          -5.0131   -0.7414   -4.6962 H.spc      1 <1>        0.000
     18 H          -7.1848   -2.5193   -6.0857 H.spc      1 <1>        0.000
     19 H          -5.9160    0.1279   -6.8738 H.spc      1 <1>        0.000
     20 H          -8.2623   -0.2976   -8.2613 H.spc      1 <1>        0.000
     21 H          -7.7338   -1.6011  -10.1178 H.spc      1 <1>        0.000
     22 H          -5.0597   -2.1461  -10.0927 H.spc      1 <1>        0.000
     23 H          -6.5128   -4.0519   -8.2059 H.spc      1 <1>        0.000
     24 H          -4.4726   -5.4666   -8.4324 H.spc      1 <1>        0.000
     25 H          -3.5760   -3.3597  -10.4707 H.spc      1 <1>        0.000
     26 H          -2.6865   -4.9424   -9.9531 H.spc      1 <1>        0.000
@<TRIPOS>BOND
     1    4    5 2  
     2   10   11 2  
     3    1    2 am 
     4   12   13 2  
     5    8    9 2  
     6    9   10 1  
     7   11   12 1  
     8    7    8 1  
     9    2    4 1  
    10    6    7 2  
    11    2    3 2  
    12    5    6 1  
    13    1   14 1  
    14    1   15 1  
    15    4   16 1  
    16    5   17 1  
    17    6   18 1  
    18    7   19 1  
    19    8   20 1  
    20    9   21 1  
    21   10   22 1  
    22   11   23 1  
    23   12   24 1  
    24   13   25 1  
    25   13   26 1  
# Name:          frag3-176-9/31924 -- energy: -2.442117
# Creation time: Sat Jun  5 12:52:09 2010


@<TRIPOS>MOLECULE
frag3-176-9/31924 -- energy: -2.442117
   26    25     1     1     1
SMALL
USER_CHARGES


@<TRIPOS>ATOM
      1 N1         -4.7733   -1.2963   -1.8350 N.am       1 <1>        0.000
      2 C4         -4.8469   -2.4135   -2.5877 C.2        1 <1>        0.000
      3 O2         -4.5519   -3.5097   -2.1296 O.2        1 <1>        0.000
      4 C5         -5.2943   -2.3297   -3.9931 C.2        1 <1>        0.000
      5 C6         -5.8641   -1.2480   -4.5500 C.2        1 <1>        0.000
      6 C7         -6.2912   -1.1575   -5.9503 C.2        1 <1>        0.000
      7 C8         -7.4497   -1.6337   -6.4363 C.2        1 <1>        0.000
      8 C9         -7.8827   -1.5018   -7.8382 C.2        1 <1>        0.000
      9 C10        -7.1307   -1.7578   -8.9249 C.2        1 <1>        0.000
     10 C11        -5.7413   -2.2392   -8.9485 C.2        1 <1>        0.000
     11 C12        -5.3211   -3.2997   -9.6532 C.2        1 <1>        0.000
     12 C13        -3.9316   -3.7733   -9.6721 C.2        1 <1>        0.000
     13 C14        -3.5517   -4.9259  -10.2305 C.2        1 <1>        0.000
     14 H          -4.4670   -1.3549   -0.8638 H.spc      1 <1>        0.000
     15 H          -5.0239   -0.3930   -2.2371 H.spc      1 <1>        0.000
     16 H          -5.1520   -3.2078   -4.6230 H.spc      1 <1>        0.000
     17 H          -6.0202   -0.3753   -3.9159 H.spc      1 <1>        0.000
     18 H          -5.6164   -0.6658   -6.6509 H.spc      1 <1>        0.000
     19 H          -8.1146   -2.1531   -5.7462 H.spc      1 <1>        0.000
     20 H          -8.9052   -1.1663   -8.0113 H.spc      1 <1>        0.000
     21 H          -7.6030   -1.5900   -9.8928 H.spc      1 <1>        0.000
     22 H          -5.0048   -1.6984   -8.3542 H.spc      1 <1>        0.000
     23 H          -6.0554   -3.8430  -10.2479 H.spc      1 <1>        0.000
     24 H          -3.1685   -3.1506   -9.2051 H.spc      1 <1>        0.000
     25 H          -4.2908   -5.5710  -10.7055 H.spc      1 <1>        0.000
     26 H          -2.5026   -5.2212  -10.2111 H.spc      1 <1>        0.000
@<TRIPOS>BOND
     1    4    5 2  
     2   10   11 2  
     3    1    2 am 
     4   12   13 2  
     5    8    9 2  
     6    9   10 1  
     7   11   12 1  
     8    7    8 1  
     9    2    4 1  
    10    6    7 2  
    11    2    3 2  
    12    5    6 1  
    13    1   14 1  
    14    1   15 1  
    15    4   16 1  
    16    5   17 1  
    17    6   18 1  
    18    7   19 1  
    19    8   20 1  
    20    9   21 1  
    21   10   22 1  
    22   11   23 1  
    23   12   24 1  
    24   13   25 1  
    25   13   26 1  
# Name:          frag3-176-9/31924 -- energy: -2.162145
# Creation time: Sat Jun  5 12:52:09 2010


@<TRIPOS>MOLECULE
frag3-176-9/31924 -- energy: -2.162145
   26    25     1     1     1
SMALL
USER_CHARGES


@<TRIPOS>ATOM
      1 N1         -3.7957   -1.7531   -2.1523 N.am       1 <1>        0.000
      2 C4         -5.0690   -2.1990   -2.1530 C.2        1 <1>        0.000
      3 O2         -5.5295   -2.8100   -1.1974 O.2        1 <1>        0.000
      4 C5         -5.9393   -1.9484   -3.3203 C.2        1 <1>        0.000
      5 C6         -5.5586   -1.2933   -4.4303 C.2        1 <1>        0.000
      6 C7         -6.4159   -1.0680   -5.5999 C.2        1 <1>        0.000
      7 C8         -6.5008   -1.8837   -6.6626 C.2        1 <1>        0.000
      8 C9         -7.4000   -1.6693   -7.8098 C.2        1 <1>        0.000
      9 C10        -7.2780   -2.2159   -9.0316 C.2        1 <1>        0.000
     10 C11        -6.2329   -3.1456   -9.4837 C.2        1 <1>        0.000
     11 C12        -5.2150   -2.8033  -10.2903 C.2        1 <1>        0.000
     12 C13        -4.1709   -3.7383  -10.7280 C.2        1 <1>        0.000
     13 C14        -3.5247   -4.5585   -9.8901 C.2        1 <1>        0.000
     14 H          -3.1963   -1.9230   -1.3447 H.spc      1 <1>        0.000
     15 H          -3.4324   -1.2461   -2.9594 H.spc      1 <1>        0.000
     16 H          -6.9627   -2.3213   -3.2783 H.spc      1 <1>        0.000
     17 H          -4.5419   -0.9019   -4.4642 H.spc      1 <1>        0.000
     18 H          -7.0315   -0.1685   -5.6062 H.spc      1 <1>        0.000
     19 H          -5.8603   -2.7655   -6.6778 H.spc      1 <1>        0.000
     20 H          -8.2473   -1.0019   -7.6522 H.spc      1 <1>        0.000
     21 H          -8.0350   -1.9403   -9.7658 H.spc      1 <1>        0.000
     22 H          -6.2876   -4.1793   -9.1423 H.spc      1 <1>        0.000
     23 H          -5.1609   -1.7723  -10.6400 H.spc      1 <1>        0.000
     24 H          -3.9094   -3.7659  -11.7858 H.spc      1 <1>        0.000
     25 H          -3.7658   -4.5521   -8.8271 H.spc      1 <1>        0.000
     26 H          -2.7575   -5.2327  -10.2709 H.spc      1 <1>        0.000
@<TRIPOS>BOND
     1    4    5 2  
     2   10   11 2  
     3    1    2 am 
     4   12   13 2  
     5    8    9 2  
     6    9   10 1  
     7   11   12 1  
     8    7    8 1  
     9    2    4 1  
    10    6    7 2  
    11    2    3 2  
    12    5    6 1  
    13    1   14 1  
    14    1   15 1  
    15    4   16 1  
    16    5   17 1  
    17    6   18 1  
    18    7   19 1  
    19    8   20 1  
    20    9   21 1  
    21   10   22 1  
    22   11   23 1  
    23   12   24 1  
    24   13   25 1  
    25   13   26 1  
# Name:          frag3-176-9/31924 -- energy: -2.586833
# Creation time: Sat Jun  5 12:52:09 2010


@<TRIPOS>MOLECULE
frag3-176-9/31924 -- energy: -2.586833
   26    25     1     1     1
SMALL
USER_CHARGES


@<TRIPOS>ATOM
      1 N1         -4.1456   -3.3674   -2.2296 N.am       1 <1>        0.000
      2 C4         -4.9885   -2.3165   -2.3203 C.2        1 <1>        0.000
      3 O2         -5.0852   -1.4986   -1.4174 O.2        1 <1>        0.000
      4 C5         -5.8143   -2.1415   -3.5325 C.2        1 <1>        0.000
      5 C6         -5.8524   -1.0200   -4.2750 C.2        1 <1>        0.000
      6 C7         -6.6522   -0.8549   -5.4928 C.2        1 <1>        0.000
      7 C8         -6.3792   -1.4216   -6.6794 C.2        1 <1>        0.000
      8 C9         -7.2156   -1.2872   -7.8830 C.2        1 <1>        0.000
      9 C10        -7.1294   -2.0284   -9.0008 C.2        1 <1>        0.000
     10 C11        -6.1935   -3.1296   -9.2625 C.2        1 <1>        0.000
     11 C12        -5.3662   -3.1863  -10.3185 C.2        1 <1>        0.000
     12 C13        -4.4274   -4.2859  -10.5646 C.2        1 <1>        0.000
     13 C14        -3.3810   -4.5486   -9.7729 C.2        1 <1>        0.000
     14 H          -3.5728   -3.4912   -1.3947 H.spc      1 <1>        0.000
     15 H          -4.0816   -4.0375   -2.9959 H.spc      1 <1>        0.000
     16 H          -6.4362   -2.9794   -3.8475 H.spc      1 <1>        0.000
     17 H          -5.2462   -0.1750   -3.9483 H.spc      1 <1>        0.000
     18 H          -7.5378   -0.2226   -5.4301 H.spc      1 <1>        0.000
     19 H          -5.4740   -2.0238   -6.7566 H.spc      1 <1>        0.000
     20 H          -7.9799   -0.5103   -7.8661 H.spc      1 <1>        0.000
     21 H          -7.8301   -1.7860   -9.7998 H.spc      1 <1>        0.000
     22 H          -6.1689   -3.9559   -8.5521 H.spc      1 <1>        0.000
     23 H          -5.3940   -2.3660  -11.0358 H.spc      1 <1>        0.000
     24 H          -4.5901   -4.9207  -11.4356 H.spc      1 <1>        0.000
     25 H          -3.1933   -3.9308   -8.8948 H.spc      1 <1>        0.000
     26 H          -2.7164   -5.3804  -10.0062 H.spc      1 <1>        0.000
@<TRIPOS>BOND
     1    4    5 2  
     2   10   11 2  
     3    1    2 am 
     4   12   13 2  
     5    8    9 2  
     6    9   10 1  
     7   11   12 1  
     8    7    8 1  
     9    2    4 1  
    10    6    7 2  
    11    2    3 2  
    12    5    6 1  
    13    1   14 1  
    14    1   15 1  
    15    4   16 1  
    16    5   17 1  
    17    6   18 1  
    18    7   19 1  
    19    8   20 1  
    20    9   21 1  
    21   10   22 1  
    22   11   23 1  
    23   12   24 1  
    24   13   25 1  
    25   13   26 1  
# Name:          frag3-176-9/31924 -- energy: -2.467486
# Creation time: Sat Jun  5 12:52:09 2010


@<TRIPOS>MOLECULE
frag3-176-9/31924 -- energy: -2.467486
   26    25     1     1     1
SMALL
USER_CHARGES


@<TRIPOS>ATOM
      1 N1         -3.8622   -2.5648   -2.3008 N.am       1 <1>        0.000
      2 C4         -5.0735   -1.9731   -2.2941 C.2        1 <1>        0.000
      3 O2         -5.5497   -1.5092   -1.2655 O.2        1 <1>        0.000
      4 C5         -5.8513   -1.8683   -3.5446 C.2        1 <1>        0.000
      5 C6         -5.5115   -2.4477   -4.7089 C.2        1 <1>        0.000
      6 C7         -6.2932   -2.3592   -5.9439 C.2        1 <1>        0.000
      7 C8         -6.6445   -1.2148   -6.5564 C.2        1 <1>        0.000
      8 C9         -7.3966   -1.1374   -7.8181 C.2        1 <1>        0.000
      9 C10        -7.0130   -1.6587   -8.9992 C.2        1 <1>        0.000
     10 C11        -5.7851   -2.4107   -9.2806 C.2        1 <1>        0.000
     11 C12        -5.7077   -3.4535  -10.1238 C.2        1 <1>        0.000
     12 C13        -4.4739   -4.1960  -10.3963 C.2        1 <1>        0.000
     13 C14        -3.4680   -4.2931   -9.5172 C.2        1 <1>        0.000
     14 H          -3.3231   -2.6329   -1.4376 H.spc      1 <1>        0.000
     15 H          -3.4848   -2.9444   -3.1691 H.spc      1 <1>        0.000
     16 H          -6.7675   -1.2783   -3.5220 H.spc      1 <1>        0.000
     17 H          -4.5874   -3.0251   -4.7357 H.spc      1 <1>        0.000
     18 H          -6.6155   -3.2940   -6.4026 H.spc      1 <1>        0.000
     19 H          -6.3509   -0.2774   -6.0841 H.spc      1 <1>        0.000
     20 H          -8.3505   -0.6106   -7.7951 H.spc      1 <1>        0.000
     21 H          -7.6901   -1.5048   -9.8394 H.spc      1 <1>        0.000
     22 H          -4.8728   -2.1020   -8.7703 H.spc      1 <1>        0.000
     23 H          -6.6174   -3.7663  -10.6363 H.spc      1 <1>        0.000
     24 H          -4.3698   -4.6931  -11.3607 H.spc      1 <1>        0.000
     25 H          -3.5448   -3.8061   -8.5451 H.spc      1 <1>        0.000
     26 H          -2.5726   -4.8592   -9.7739 H.spc      1 <1>        0.000
@<TRIPOS>BOND
     1    4    5 2  
     2   10   11 2  
     3    1    2 am 
     4   12   13 2  
     5    8    9 2  
     6    9   10 1  
     7   11   12 1  
     8    7    8 1  
     9    2    4 1  
    10    6    7 2  
    11    2    3 2  
    12    5    6 1  
    13    1   14 1  
    14    1   15 1  
    15    4   16 1  
    16    5   17 1  
    17    6   18 1  
    18    7   19 1  
    19    8   20 1  
    20    9   21 1  
    21   10   22 1  
    22   11   23 1  
    23   12   24 1  
    24   13   25 1  
    25   13   26 1  
# Name:          frag3-176-9/31924 -- energy: -2.562701
# Creation time: Sat Jun  5 12:52:09 2010


@<TRIPOS>MOLECULE
frag3-176-9/31924 -- energy: -2.562701
   26    25     1     1     1
SMALL
USER_CHARGES


@<TRIPOS>ATOM
      1 N1         -5.5801   -3.2099   -1.7495 N.am       1 <1>        0.000
      2 C4         -4.8398   -2.3644   -2.4949 C.2        1 <1>        0.000
      3 O2         -3.8074   -1.8708   -2.0627 O.2        1 <1>        0.000
      4 C5         -5.2673   -2.0288   -3.8675 C.2        1 <1>        0.000
      5 C6         -6.1842   -1.0949   -4.1771 C.2        1 <1>        0.000
      6 C7         -6.5927   -0.7474   -5.5400 C.2        1 <1>        0.000
      7 C8         -6.9065   -1.6319   -6.5025 C.2        1 <1>        0.000
      8 C9         -7.3513   -1.2735   -7.8569 C.2        1 <1>        0.000
      9 C10        -6.8390   -1.7335   -9.0110 C.2        1 <1>        0.000
     10 C11        -5.7474   -2.6982   -9.1747 C.2        1 <1>        0.000
     11 C12        -5.3910   -3.2571  -10.3431 C.2        1 <1>        0.000
     12 C13        -4.2960   -4.2182  -10.4917 C.2        1 <1>        0.000
     13 C14        -3.8276   -4.9577   -9.4777 C.2        1 <1>        0.000
     14 H          -5.2826   -3.4501   -0.8039 H.spc      1 <1>        0.000
     15 H          -6.4375   -3.6092   -2.1313 H.spc      1 <1>        0.000
     16 H          -4.8067   -2.5774   -4.6891 H.spc      1 <1>        0.000
     17 H          -6.6572   -0.5581   -3.3548 H.spc      1 <1>        0.000
     18 H          -6.6465    0.3113   -5.7938 H.spc      1 <1>        0.000
     19 H          -6.8252   -2.6917   -6.2611 H.spc      1 <1>        0.000
     20 H          -8.1769   -0.5659   -7.9325 H.spc      1 <1>        0.000
     21 H          -7.2847   -1.3462   -9.9272 H.spc      1 <1>        0.000
     22 H          -5.1850   -2.9822   -8.2852 H.spc      1 <1>        0.000
     23 H          -5.9513   -2.9781  -11.2355 H.spc      1 <1>        0.000
     24 H          -3.8402   -4.3375  -11.4746 H.spc      1 <1>        0.000
     25 H          -4.2645   -4.8590   -8.4840 H.spc      1 <1>        0.000
     26 H          -3.0096   -5.6581   -9.6464 H.spc      1 <1>        0.000
@<TRIPOS>BOND
     1    4    5 2  
     2   10   11 2  
     3    1    2 am 
     4   12   13 2  
     5    8    9 2  
     6    9   10 1  
     7   11   12 1  
     8    7    8 1  
     9    2    4 1  
    10    6    7 2  
    11    2    3 2  
    12    5    6 1  
    13    1   14 1  
    14    1   15 1  
    15    4   16 1  
    16    5   17 1  
    17    6   18 1  
    18    7   19 1  
    19    8   20 1  
    20    9   21 1  
    21   10   22 1  
    22   11   23 1  
    23   12   24 1  
    24   13   25 1  
    25   13   26 1  
# Name:          frag3-176-9/31924 -- energy: -3.446051
# Creation time: Sat Jun  5 12:52:09 2010


@<TRIPOS>MOLECULE
frag3-176-9/31924 -- energy: -3.446051
   26    25     1     1     1
SMALL
USER_CHARGES


@<TRIPOS>ATOM
      1 N1         -5.5707   -2.6161   -2.0653 N.am       1 <1>        0.000
      2 C4         -4.6549   -2.6146   -3.0554 C.2        1 <1>        0.000
      3 O2         -3.4743   -2.8466   -2.8316 O.2        1 <1>        0.000
      4 C5         -5.0727   -2.3389   -4.4454 C.2        1 <1>        0.000
      5 C6         -5.9550   -1.3920   -4.8050 C.2        1 <1>        0.000
      6 C7         -6.3549   -1.1032   -6.1852 C.2        1 <1>        0.000
      7 C8         -7.4580   -1.5786   -6.7870 C.2        1 <1>        0.000
      8 C9         -7.8665   -1.2505   -8.1631 C.2        1 <1>        0.000
      9 C10        -7.1324   -1.4487   -9.2759 C.2        1 <1>        0.000
     10 C11        -5.7941   -2.0502   -9.3520 C.2        1 <1>        0.000
     11 C12        -5.4081   -3.1242   -8.6428 C.2        1 <1>        0.000
     12 C13        -4.0731   -3.7241   -8.7235 C.2        1 <1>        0.000
     13 C14        -3.8157   -4.9986   -8.4172 C.2        1 <1>        0.000
     14 H          -5.2847   -2.8134   -1.1063 H.spc      1 <1>        0.000
     15 H          -6.5493   -2.4199   -2.2755 H.spc      1 <1>        0.000
     16 H          -4.6335   -2.9475   -5.2358 H.spc      1 <1>        0.000
     17 H          -6.4064   -0.7949   -4.0127 H.spc      1 <1>        0.000
     18 H          -5.7059   -0.4511   -6.7697 H.spc      1 <1>        0.000
     19 H          -8.0952   -2.2545   -6.2167 H.spc      1 <1>        0.000
     20 H          -8.8533   -0.8065   -8.2938 H.spc      1 <1>        0.000
     21 H          -7.5782   -1.1294  -10.2179 H.spc      1 <1>        0.000
     22 H          -5.0682   -1.5963  -10.0267 H.spc      1 <1>        0.000
     23 H          -6.1323   -3.5773   -7.9658 H.spc      1 <1>        0.000
     24 H          -3.2450   -3.0958   -9.0514 H.spc      1 <1>        0.000
     25 H          -4.6220   -5.6531   -8.0861 H.spc      1 <1>        0.000
     26 H          -2.7994   -5.3841   -8.4984 H.spc      1 <1>        0.000
@<TRIPOS>BOND
     1    4    5 2  
     2   10   11 2  
     3    1    2 am 
     4   12   13 2  
     5    8    9 2  
     6    9   10 1  
     7   11   12 1  
     8    7    8 1  
     9    2    4 1  
    10    6    7 2  
    11    2    3 2  
    12    5    6 1  
    13    1   14 1  
    14    1   15 1  
    15    4   16 1  
    16    5   17 1  
    17    6   18 1  
    18    7   19 1  
    19    8   20 1  
    20    9   21 1  
    21   10   22 1  
    22   11   23 1  
    23   12   24 1  
    24   13   25 1  
    25   13   26 1  
# Name:          frag3-176-9/31924 -- energy: -2.839408
# Creation time: Sat Jun  5 12:52:09 2010


@<TRIPOS>MOLECULE
frag3-176-9/31924 -- energy: -2.839408
   26    25     1     1     1
SMALL
USER_CHARGES


@<TRIPOS>ATOM
      1 N1         -5.2433   -1.5934   -1.1483 N.am       1 <1>        0.000
      2 C4         -4.9715   -2.2358   -2.3040 C.2        1 <1>        0.000
      3 O2         -3.9334   -2.8640   -2.4533 O.2        1 <1>        0.000
      4 C5         -5.9451   -2.1937   -3.4135 C.2        1 <1>        0.000
      5 C6         -5.6700   -1.7606   -4.6558 C.2        1 <1>        0.000
      6 C7         -6.6262   -1.7399   -5.7665 C.2        1 <1>        0.000
      7 C8         -6.4137   -1.1769   -6.9653 C.2        1 <1>        0.000
      8 C9         -7.3688   -1.2028   -8.0848 C.2        1 <1>        0.000
      9 C10        -7.1718   -1.7783   -9.2864 C.2        1 <1>        0.000
     10 C11        -5.9744   -2.5026   -9.7286 C.2        1 <1>        0.000
     11 C12        -5.2637   -3.3367   -8.9476 C.2        1 <1>        0.000
     12 C13        -4.0711   -4.0597   -9.3965 C.2        1 <1>        0.000
     13 C14        -3.9771   -4.6419  -10.5987 C.2        1 <1>        0.000
     14 H          -4.5761   -1.6262   -0.3775 H.spc      1 <1>        0.000
     15 H          -6.1159   -1.0752   -1.0459 H.spc      1 <1>        0.000
     16 H          -6.9590   -2.5384   -3.2105 H.spc      1 <1>        0.000
     17 H          -4.6610   -1.3979   -4.8518 H.spc      1 <1>        0.000
     18 H          -7.5902   -2.2222   -5.6049 H.spc      1 <1>        0.000
     19 H          -5.4652   -0.6631   -7.1216 H.spc      1 <1>        0.000
     20 H          -8.3274   -0.7089   -7.9262 H.spc      1 <1>        0.000
     21 H          -7.9868   -1.6977  -10.0056 H.spc      1 <1>        0.000
     22 H          -5.6393   -2.3555  -10.7553 H.spc      1 <1>        0.000
     23 H          -5.5951   -3.4832   -7.9196 H.spc      1 <1>        0.000
     24 H          -3.2195   -4.1269   -8.7194 H.spc      1 <1>        0.000
     25 H          -4.8133   -4.5905  -11.2960 H.spc      1 <1>        0.000
     26 H          -3.0644   -5.1672  -10.8800 H.spc      1 <1>        0.000
@<TRIPOS>BOND
     1    4    5 2  
     2   10   11 2  
     3    1    2 am 
     4   12   13 2  
     5    8    9 2  
     6    9   10 1  
     7   11   12 1  
     8    7    8 1  
     9    2    4 1  
    10    6    7 2  
    11    2    3 2  
    12    5    6 1  
    13    1   14 1  
    14    1   15 1  
    15    4   16 1  
    16    5   17 1  
    17    6   18 1  
    18    7   19 1  
    19    8   20 1  
    20    9   21 1  
    21   10   22 1  
    22   11   23 1  
    23   12   24 1  
    24   13   25 1  
    25   13   26 1  
# Name:          frag3-176-9/31924 -- energy: -2.441105
# Creation time: Sat Jun  5 12:52:09 2010


@<TRIPOS>MOLECULE
frag3-176-9/31924 -- energy: -2.441105
   26    25     1     1     1
SMALL
USER_CHARGES


@<TRIPOS>ATOM
      1 N1         -6.1032   -1.9114   -0.7886 N.am       1 <1>        0.000
      2 C4         -5.2407   -1.8625   -1.8269 C.2        1 <1>        0.000
      3 O2         -4.0825   -2.2336   -1.7097 O.2        1 <1>        0.000
      4 C5         -5.6978   -1.3539   -3.1369 C.2        1 <1>        0.000
      5 C6         -5.4001   -1.9189   -4.3205 C.2        1 <1>        0.000
      6 C7         -5.8745   -1.4304   -5.6203 C.2        1 <1>        0.000
      7 C8         -6.7409   -2.0736   -6.4187 C.2        1 <1>        0.000
      8 C9         -7.2432   -1.5492   -7.7002 C.2        1 <1>        0.000
      9 C10        -6.7652   -1.8462   -8.9211 C.2        1 <1>        0.000
     10 C11        -5.6641   -2.7650   -9.2438 C.2        1 <1>        0.000
     11 C12        -5.3240   -3.1319  -10.4880 C.2        1 <1>        0.000
     12 C13        -4.2210   -4.0484  -10.8001 C.2        1 <1>        0.000
     13 C14        -4.2731   -4.9611  -11.7747 C.2        1 <1>        0.000
     14 H          -5.7921   -2.2636    0.1167 H.spc      1 <1>        0.000
     15 H          -7.0657   -1.5961   -0.9098 H.spc      1 <1>        0.000
     16 H          -6.3195   -0.4586   -3.1444 H.spc      1 <1>        0.000
     17 H          -4.7613   -2.8021   -4.3138 H.spc      1 <1>        0.000
     18 H          -5.4932   -0.4691   -5.9648 H.spc      1 <1>        0.000
     19 H          -7.0975   -3.0519   -6.0963 H.spc      1 <1>        0.000
     20 H          -8.0819   -0.8545   -7.6543 H.spc      1 <1>        0.000
     21 H          -7.2471   -1.3513   -9.7643 H.spc      1 <1>        0.000
     22 H          -5.0853   -3.1756   -8.4164 H.spc      1 <1>        0.000
     23 H          -5.9018   -2.7248  -11.3178 H.spc      1 <1>        0.000
     24 H          -3.3104   -3.9809  -10.2049 H.spc      1 <1>        0.000
     25 H          -5.1698   -5.0534  -12.3876 H.spc      1 <1>        0.000
     26 H          -3.4189   -5.6133  -11.9568 H.spc      1 <1>        0.000
@<TRIPOS>BOND
     1    4    5 2  
     2   10   11 2  
     3    1    2 am 
     4   12   13 2  
     5    8    9 2  
     6    9   10 1  
     7   11   12 1  
     8    7    8 1  
     9    2    4 1  
    10    6    7 2  
    11    2    3 2  
    12    5    6 1  
    13    1   14 1  
    14    1   15 1  
    15    4   16 1  
    16    5   17 1  
    17    6   18 1  
    18    7   19 1  
    19    8   20 1  
    20    9   21 1  
    21   10   22 1  
    22   11   23 1  
    23   12   24 1  
    24   13   25 1  
    25   13   26 1  
