#      Rotatable Fragment
#      Build by yxyuan
#
# Name:          frag2-038-834/319335
# Creation time: Sat Jun  5 12:53:34 2010


@<TRIPOS>MOLECULE
frag2-038-834/319335
    4     3     1     1     1
SMALL
USER_CHARGES


@<TRIPOS>ATOM
      1 S1          0.0951    0.0181   -0.0030 S.o        1 <1>        0.000
      2 O1         -1.3736   -0.2631    0.0323 O.2        1 <1>        0.000
      3 H           0.2912    1.3214   -0.1815 H.spc      1 <1>        0.000
      4 H           0.6453   -0.3612    1.1469 H.spc      1 <1>        0.000
@<TRIPOS>BOND
     1    1    2 2  
     2    1    3 1  
     3    1    4 1  
# Name:          frag2-038-834/319335 -- energy: 0.000000
# Creation time: Sat Jun  5 12:53:34 2010


@<TRIPOS>MOLECULE
frag2-038-834/319335 -- energy: 0.000000
    4     3     1     1     1
SMALL
USER_CHARGES


@<TRIPOS>ATOM
      1 S1          0.0951    0.0181   -0.0030 S.o        1 <1>        0.000
      2 O1         -1.3736   -0.2631    0.0323 O.2        1 <1>        0.000
      3 H           0.2912    1.3214   -0.1815 H.spc      1 <1>        0.000
      4 H           0.6453   -0.3612    1.1469 H.spc      1 <1>        0.000
@<TRIPOS>BOND
     1    1    2 2  
     2    1    3 1  
     3    1    4 1  
