#      Rotatable Fragment
#      Build by yxyuan
#
# Name:          frag5-545-67/41815
# Creation time: Sat Jun  5 12:52:52 2010


@<TRIPOS>MOLECULE
frag5-545-67/41815
   27    28     1     1     1
SMALL
USER_CHARGES


@<TRIPOS>ATOM
      1 C19        -0.9444   -0.1635    3.0504 C.ar       1 <1>        0.000
      2 C20        -1.6174   -0.4423    4.2419 C.ar       1 <1>        0.000
      3 C21        -2.9753   -0.1674    4.3431 C.ar       1 <1>        0.000
      4 C22        -3.6846    0.3900    3.2668 C.ar       1 <1>        0.000
      5 C23        -2.9907    0.6695    2.0785 C.ar       1 <1>        0.000
      6 C24        -1.6329    0.3887    1.9663 C.ar       1 <1>        0.000
      7 N3         -4.9973    0.6441    3.3906 N.pl3      1 <1>        0.000
      8 C25        -5.9440    0.2524    2.3610 C.3        1 <1>        0.000
      9 C26        -6.9918   -0.6818    2.9926 C.3        1 <1>        0.000
     10 N4         -7.5800   -0.0713    4.2115 N.4        1 <1>        0.000
     11 C27        -6.5435    0.3175    5.2031 C.3        1 <1>        0.000
     12 C28        -5.5193    1.2862    4.5845 C.3        1 <1>        0.000
     13 H           0.1211   -0.3771    2.9655 H.spc      1 <1>        0.000
     14 H          -1.0805   -0.8729    5.0872 H.spc      1 <1>        0.000
     15 H          -3.4989   -0.3880    5.2733 H.spc      1 <1>        0.000
     16 H          -3.5216    1.1111    1.2351 H.spc      1 <1>        0.000
     17 H          -1.1069    0.5988    1.0350 H.spc      1 <1>        0.000
     18 H          -5.4240   -0.2629    1.5534 H.spc      1 <1>        0.000
     19 H          -6.4324    1.1353    1.9487 H.spc      1 <1>        0.000
     20 H          -6.5058   -1.6175    3.2689 H.spc      1 <1>        0.000
     21 H          -7.7879   -0.8558    2.2687 H.spc      1 <1>        0.000
     22 H          -8.1923   -0.7610    4.6472 H.spc      1 <1>        0.000
     23 H          -8.0832    0.7710    3.9326 H.spc      1 <1>        0.000
     24 H          -7.0319    0.8151    6.0409 H.spc      1 <1>        0.000
     25 H          -6.0200   -0.5808    5.5305 H.spc      1 <1>        0.000
     26 H          -5.9886    2.2384    4.3372 H.spc      1 <1>        0.000
     27 H          -4.7165    1.5017    5.2896 H.spc      1 <1>        0.000
@<TRIPOS>BOND
     1    5    6 ar 
     2    7    8 1  
     3    3    4 ar 
     4    7   12 1  
     5    2    3 ar 
     6    1    6 ar 
     7    4    7 1  
     8   11   12 1  
     9    8    9 1  
    10    1    2 ar 
    11    9   10 1  
    12   10   11 1  
    13    4    5 ar 
    14    1   13 1  
    15    2   14 1  
    16    3   15 1  
    17    5   16 1  
    18    6   17 1  
    19    8   18 1  
    20    8   19 1  
    21    9   20 1  
    22    9   21 1  
    23   10   22 1  
    24   10   23 1  
    25   11   24 1  
    26   11   25 1  
    27   12   26 1  
    28   12   27 1  
# Name:          frag5-545-67/41815
# Creation time: Sat Jun  5 12:52:52 2010


@<TRIPOS>MOLECULE
frag5-545-67/41815
   27    28     1     1     1
SMALL
USER_CHARGES


@<TRIPOS>ATOM
      1 C19        -0.9410   -0.0907    3.1631 C.ar       1 <1>        0.000
      2 C20        -1.7938   -1.1295    3.5420 C.ar       1 <1>        0.000
      3 C21        -3.1671   -0.9230    3.5433 C.ar       1 <1>        0.000
      4 C22        -3.7160    0.3158    3.1735 C.ar       1 <1>        0.000
      5 C23        -2.8420    1.3511    2.8028 C.ar       1 <1>        0.000
      6 C24        -1.4663    1.1493    2.7884 C.ar       1 <1>        0.000
      7 N3         -5.0469    0.4871    3.1741 N.pl3      1 <1>        0.000
      8 C25        -5.9346   -0.4962    2.5788 C.3        1 <1>        0.000
      9 C26        -6.8364   -1.0293    3.7053 C.3        1 <1>        0.000
     10 N4         -7.4998    0.0626    4.4605 N.4        1 <1>        0.000
     11 C27        -6.5310    1.0822    4.9438 C.3        1 <1>        0.000
     12 C28        -5.6463    1.6427    3.8147 C.3        1 <1>        0.000
     13 H           0.1377   -0.2473    3.1595 H.spc      1 <1>        0.000
     14 H          -1.3842   -2.0962    3.8349 H.spc      1 <1>        0.000
     15 H          -3.8306   -1.7366    3.8364 H.spc      1 <1>        0.000
     16 H          -3.2468    2.3238    2.5232 H.spc      1 <1>        0.000
     17 H          -0.7990    1.9562    2.4856 H.spc      1 <1>        0.000
     18 H          -5.3636   -1.3068    2.1259 H.spc      1 <1>        0.000
     19 H          -6.5328   -0.0459    1.7867 H.spc      1 <1>        0.000
     20 H          -6.2125   -1.5907    4.4007 H.spc      1 <1>        0.000
     21 H          -7.6121   -1.6475    3.2534 H.spc      1 <1>        0.000
     22 H          -7.9596   -0.3480    5.2732 H.spc      1 <1>        0.000
     23 H          -8.1604    0.5243    3.8354 H.spc      1 <1>        0.000
     24 H          -7.0996    1.9106    5.3664 H.spc      1 <1>        0.000
     25 H          -5.8786    0.6044    5.6746 H.spc      1 <1>        0.000
     26 H          -6.2306    2.2307    3.1069 H.spc      1 <1>        0.000
     27 H          -4.8861    2.3196    4.2046 H.spc      1 <1>        0.000
@<TRIPOS>BOND
     1    5    6 ar 
     2    7    8 1  
     3    3    4 ar 
     4    7   12 1  
     5    2    3 ar 
     6    1    6 ar 
     7    4    7 1  
     8   11   12 1  
     9    8    9 1  
    10    1    2 ar 
    11    9   10 1  
    12   10   11 1  
    13    4    5 ar 
    14    1   13 1  
    15    2   14 1  
    16    3   15 1  
    17    5   16 1  
    18    6   17 1  
    19    8   18 1  
    20    8   19 1  
    21    9   20 1  
    22    9   21 1  
    23   10   22 1  
    24   10   23 1  
    25   11   24 1  
    26   11   25 1  
    27   12   26 1  
    28   12   27 1  
# Name:          frag5-545-67/41815 -- energy: -2.845034
# Creation time: Sat Jun  5 12:52:52 2010


@<TRIPOS>MOLECULE
frag5-545-67/41815 -- energy: -2.845034
   27    28     1     1     1
SMALL
USER_CHARGES


@<TRIPOS>ATOM
      1 C19        -0.9444   -0.1635    3.0504 C.ar       1 <1>        0.000
      2 C20        -1.6174   -0.4423    4.2419 C.ar       1 <1>        0.000
      3 C21        -2.9753   -0.1674    4.3431 C.ar       1 <1>        0.000
      4 C22        -3.6846    0.3900    3.2668 C.ar       1 <1>        0.000
      5 C23        -2.9907    0.6695    2.0785 C.ar       1 <1>        0.000
      6 C24        -1.6329    0.3887    1.9663 C.ar       1 <1>        0.000
      7 N3         -4.9973    0.6441    3.3906 N.pl3      1 <1>        0.000
      8 C25        -5.9440    0.2524    2.3610 C.3        1 <1>        0.000
      9 C26        -6.9918   -0.6818    2.9926 C.3        1 <1>        0.000
     10 N4         -7.5800   -0.0713    4.2115 N.4        1 <1>        0.000
     11 C27        -6.5435    0.3175    5.2031 C.3        1 <1>        0.000
     12 C28        -5.5193    1.2862    4.5845 C.3        1 <1>        0.000
     13 H           0.1211   -0.3771    2.9655 H.spc      1 <1>        0.000
     14 H          -1.0805   -0.8729    5.0872 H.spc      1 <1>        0.000
     15 H          -3.4989   -0.3880    5.2733 H.spc      1 <1>        0.000
     16 H          -3.5216    1.1111    1.2351 H.spc      1 <1>        0.000
     17 H          -1.1069    0.5988    1.0350 H.spc      1 <1>        0.000
     18 H          -5.4240   -0.2629    1.5534 H.spc      1 <1>        0.000
     19 H          -6.4324    1.1353    1.9487 H.spc      1 <1>        0.000
     20 H          -6.5058   -1.6175    3.2689 H.spc      1 <1>        0.000
     21 H          -7.7879   -0.8558    2.2687 H.spc      1 <1>        0.000
     22 H          -8.1923   -0.7610    4.6472 H.spc      1 <1>        0.000
     23 H          -8.0832    0.7710    3.9326 H.spc      1 <1>        0.000
     24 H          -7.0319    0.8151    6.0409 H.spc      1 <1>        0.000
     25 H          -6.0200   -0.5808    5.5305 H.spc      1 <1>        0.000
     26 H          -5.9886    2.2384    4.3372 H.spc      1 <1>        0.000
     27 H          -4.7165    1.5017    5.2896 H.spc      1 <1>        0.000
@<TRIPOS>BOND
     1    5    6 ar 
     2    7    8 1  
     3    3    4 ar 
     4    7   12 1  
     5    2    3 ar 
     6    1    6 ar 
     7    4    7 1  
     8   11   12 1  
     9    8    9 1  
    10    1    2 ar 
    11    9   10 1  
    12   10   11 1  
    13    4    5 ar 
    14    1   13 1  
    15    2   14 1  
    16    3   15 1  
    17    5   16 1  
    18    6   17 1  
    19    8   18 1  
    20    8   19 1  
    21    9   20 1  
    22    9   21 1  
    23   10   22 1  
    24   10   23 1  
    25   11   24 1  
    26   11   25 1  
    27   12   26 1  
    28   12   27 1  
# Name:          frag5-545-67/41815 -- energy: -2.952799
# Creation time: Sat Jun  5 12:52:52 2010


@<TRIPOS>MOLECULE
frag5-545-67/41815 -- energy: -2.952799
   27    28     1     1     1
SMALL
USER_CHARGES


@<TRIPOS>ATOM
      1 C19        -0.9410   -0.0907    3.1631 C.ar       1 <1>        0.000
      2 C20        -1.7938   -1.1295    3.5420 C.ar       1 <1>        0.000
      3 C21        -3.1671   -0.9230    3.5433 C.ar       1 <1>        0.000
      4 C22        -3.7160    0.3158    3.1735 C.ar       1 <1>        0.000
      5 C23        -2.8420    1.3511    2.8028 C.ar       1 <1>        0.000
      6 C24        -1.4663    1.1493    2.7884 C.ar       1 <1>        0.000
      7 N3         -5.0469    0.4871    3.1741 N.pl3      1 <1>        0.000
      8 C25        -5.9346   -0.4962    2.5788 C.3        1 <1>        0.000
      9 C26        -6.8364   -1.0293    3.7053 C.3        1 <1>        0.000
     10 N4         -7.4998    0.0626    4.4605 N.4        1 <1>        0.000
     11 C27        -6.5310    1.0822    4.9438 C.3        1 <1>        0.000
     12 C28        -5.6463    1.6427    3.8147 C.3        1 <1>        0.000
     13 H           0.1377   -0.2473    3.1595 H.spc      1 <1>        0.000
     14 H          -1.3842   -2.0962    3.8349 H.spc      1 <1>        0.000
     15 H          -3.8306   -1.7366    3.8364 H.spc      1 <1>        0.000
     16 H          -3.2468    2.3238    2.5232 H.spc      1 <1>        0.000
     17 H          -0.7990    1.9562    2.4856 H.spc      1 <1>        0.000
     18 H          -5.3636   -1.3068    2.1259 H.spc      1 <1>        0.000
     19 H          -6.5328   -0.0459    1.7867 H.spc      1 <1>        0.000
     20 H          -6.2125   -1.5907    4.4007 H.spc      1 <1>        0.000
     21 H          -7.6121   -1.6475    3.2534 H.spc      1 <1>        0.000
     22 H          -7.9596   -0.3480    5.2732 H.spc      1 <1>        0.000
     23 H          -8.1604    0.5243    3.8354 H.spc      1 <1>        0.000
     24 H          -7.0996    1.9106    5.3664 H.spc      1 <1>        0.000
     25 H          -5.8786    0.6044    5.6746 H.spc      1 <1>        0.000
     26 H          -6.2306    2.2307    3.1069 H.spc      1 <1>        0.000
     27 H          -4.8861    2.3196    4.2046 H.spc      1 <1>        0.000
@<TRIPOS>BOND
     1    5    6 ar 
     2    7    8 1  
     3    3    4 ar 
     4    7   12 1  
     5    2    3 ar 
     6    1    6 ar 
     7    4    7 1  
     8   11   12 1  
     9    8    9 1  
    10    1    2 ar 
    11    9   10 1  
    12   10   11 1  
    13    4    5 ar 
    14    1   13 1  
    15    2   14 1  
    16    3   15 1  
    17    5   16 1  
    18    6   17 1  
    19    8   18 1  
    20    8   19 1  
    21    9   20 1  
    22    9   21 1  
    23   10   22 1  
    24   10   23 1  
    25   11   24 1  
    26   11   25 1  
    27   12   26 1  
    28   12   27 1  
