#      Rotatable Fragment
#      Build by yxyuan
#
# Name:          frag5-522-314/138278
# Creation time: Sat Jun  5 12:53:41 2010


@<TRIPOS>MOLECULE
frag5-522-314/138278
   14    14     1     1     1
SMALL
USER_CHARGES


@<TRIPOS>ATOM
      1 C13         0.4939    1.1287   -0.0204 C.ar       1 <1>        0.000
      2 C15        -0.7803    0.5640   -0.0349 C.ar       1 <1>        0.000
      3 C16         0.6401    2.5163   -0.0375 C.ar       1 <1>        0.000
      4 C19        -1.9233    1.3802   -0.0372 C.ar       1 <1>        0.000
      5 C20        -0.4796    3.3600   -0.0576 C.ar       1 <1>        0.000
      6 C24        -1.7516    2.7680   -0.0471 C.ar       1 <1>        0.000
      7 O5         -3.2001    0.8421   -0.0298 O.3        1 <1>        0.000
      8 O6         -0.3127    4.7376   -0.0851 O.3        1 <1>        0.000
      9 H           1.3749    0.4873    0.0043 H.spc      1 <1>        0.000
     10 H          -0.8907   -0.5204   -0.0445 H.spc      1 <1>        0.000
     11 H           1.6397    2.9508   -0.0352 H.spc      1 <1>        0.000
     12 H          -2.6329    3.4094   -0.0466 H.spc      1 <1>        0.000
     13 H          -3.8456    1.5527   -0.0328 H.spc      1 <1>        0.000
     14 H          -1.1733    5.1629   -0.0960 H.spc      1 <1>        0.000
@<TRIPOS>BOND
     1    1    2 ar 
     2    1    3 ar 
     3    2    4 ar 
     4    3    5 ar 
     5    4    6 ar 
     6    4    7 1  
     7    5    8 1  
     8    5    6 ar 
     9    1    9 1  
    10    2   10 1  
    11    3   11 1  
    12    6   12 1  
    13    7   13 1  
    14    8   14 1  
# Name:          frag5-522-314/138278 -- energy: -0.145289
# Creation time: Sat Jun  5 12:53:41 2010


@<TRIPOS>MOLECULE
frag5-522-314/138278 -- energy: -0.145289
   14    14     1     1     1
SMALL
USER_CHARGES


@<TRIPOS>ATOM
      1 C13         0.4939    1.1287   -0.0204 C.ar       1 <1>        0.000
      2 C15        -0.7803    0.5640   -0.0349 C.ar       1 <1>        0.000
      3 C16         0.6401    2.5163   -0.0375 C.ar       1 <1>        0.000
      4 C19        -1.9233    1.3802   -0.0372 C.ar       1 <1>        0.000
      5 C20        -0.4796    3.3600   -0.0576 C.ar       1 <1>        0.000
      6 C24        -1.7516    2.7680   -0.0471 C.ar       1 <1>        0.000
      7 O5         -3.2001    0.8421   -0.0298 O.3        1 <1>        0.000
      8 O6         -0.3127    4.7376   -0.0851 O.3        1 <1>        0.000
      9 H           1.3749    0.4873    0.0043 H.spc      1 <1>        0.000
     10 H          -0.8907   -0.5204   -0.0445 H.spc      1 <1>        0.000
     11 H           1.6397    2.9508   -0.0352 H.spc      1 <1>        0.000
     12 H          -2.6329    3.4094   -0.0466 H.spc      1 <1>        0.000
     13 H          -3.8456    1.5527   -0.0328 H.spc      1 <1>        0.000
     14 H          -1.1733    5.1629   -0.0960 H.spc      1 <1>        0.000
@<TRIPOS>BOND
     1    1    2 ar 
     2    1    3 ar 
     3    2    4 ar 
     4    3    5 ar 
     5    4    6 ar 
     6    4    7 1  
     7    5    8 1  
     8    5    6 ar 
     9    1    9 1  
    10    2   10 1  
    11    3   11 1  
    12    6   12 1  
    13    7   13 1  
    14    8   14 1  
