#      Rotatable Fragment
#      Build by yxyuan
#
# Name:          frag5-673-64/138278
# Creation time: Sat Jun  5 12:51:52 2010


@<TRIPOS>MOLECULE
frag5-673-64/138278
   17    18     1     1     1
SMALL
USER_CHARGES


@<TRIPOS>ATOM
      1 C1          0.1264   -0.1566    1.1000 C.2        1 <1>        0.000
      2 C2          0.4024   -1.4389    0.4088 C.2        1 <1>        0.000
      3 N1          1.1385    0.5930    0.9104 N.2        1 <1>        0.000
      4 C3         -1.1121   -0.0252    1.8241 C.2        1 <1>        0.000
      5 O1          1.3543   -1.1967   -0.3963 O.3        1 <1>        0.000
      6 C4         -0.2737   -2.6295    0.7916 C.2        1 <1>        0.000
      7 C5          2.0096   -0.1576    0.1105 C.3        1 <1>        0.000
      8 C6         -1.7909   -1.1675    2.0633 C.2        1 <1>        0.000
      9 C7         -1.3360   -2.4502    1.5904 C.2        1 <1>        0.000
     10 N2          3.3093    0.0714   -0.1575 N.3        1 <1>        0.000
     11 H          -1.4811    0.9437    2.1605 H.spc      1 <1>        0.000
     12 H           0.0480   -3.6167    0.4599 H.spc      1 <1>        0.000
     13 H           2.9802    0.3347    0.1709 H.spc      1 <1>        0.000
     14 H          -2.7174   -1.1175    2.6354 H.spc      1 <1>        0.000
     15 H          -1.8924   -3.3339    1.9027 H.spc      1 <1>        0.000
     16 H           3.6121    0.9150    0.3293 H.spc      1 <1>        0.000
     17 H           3.8655   -0.7231    0.1585 H.spc      1 <1>        0.000
@<TRIPOS>BOND
     1    8    9 1  
     2    7   10 1  
     3    1    2 1  
     4    1    3 2  
     5    2    5 2  
     6    1    4 1  
     7    2    6 1  
     8    3    7 1  
     9    4    8 2  
    10    5    7 1  
    11    6    9 2  
    12    4   11 1  
    13    6   12 1  
    14    7   13 1  
    15    8   14 1  
    16    9   15 1  
    17   10   16 1  
    18   10   17 1  
