#      Rotatable Fragment
#      Build by yxyuan
#
# Name:          frag3-242-3/31924
# Creation time: Sat Jun  5 12:52:36 2010


@<TRIPOS>MOLECULE
frag3-242-3/31924
   22    21     1     1     1
SMALL
USER_CHARGES


@<TRIPOS>ATOM
      1 C38         6.7208   -2.6345    1.1239 C.2        1 <1>        0.000
      2 C39         7.6244   -2.2705    0.2091 C.2        1 <1>        0.000
      3 C41         8.4815   -1.0880    0.3407 C.2        1 <1>        0.000
      4 C42         9.4305   -0.7486   -0.5419 C.2        1 <1>        0.000
      5 C43        10.2855    0.4363   -0.4193 C.2        1 <1>        0.000
      6 C44        11.4216    0.6192   -1.1087 C.2        1 <1>        0.000
      7 C45        12.2699    1.8123   -0.9796 C.2        1 <1>        0.000
      8 C46        11.9509    3.0904   -1.2591 C.2        1 <1>        0.000
      9 C47        10.6550    3.6172   -1.7503 C.2        1 <1>        0.000
     10 O14        10.2283    4.6746   -1.3078 O.2        1 <1>        0.000
     11 N4          9.9629    2.9396   -2.6877 N.am       1 <1>        0.000
     12 H           6.5906   -2.0398    2.0281 H.spc      1 <1>        0.000
     13 H           6.1140   -3.5261    0.9659 H.spc      1 <1>        0.000
     14 H           7.7301   -2.8864   -0.6840 H.spc      1 <1>        0.000
     15 H           8.3377   -0.4459    1.2097 H.spc      1 <1>        0.000
     16 H           9.5765   -1.3952   -1.4072 H.spc      1 <1>        0.000
     17 H           9.9786    1.2178    0.2758 H.spc      1 <1>        0.000
     18 H          11.7330   -0.1608   -1.8035 H.spc      1 <1>        0.000
     19 H          13.2819    1.6417   -0.6124 H.spc      1 <1>        0.000
     20 H          12.7404    3.8261   -1.1058 H.spc      1 <1>        0.000
     21 H           9.0766    3.3080   -3.0330 H.spc      1 <1>        0.000
     22 H          10.3254    2.0584   -3.0517 H.spc      1 <1>        0.000
@<TRIPOS>BOND
     1    6    7 1  
     2    3    4 2  
     3    2    3 1  
     4    9   11 am 
     5    5    6 2  
     6    9   10 2  
     7    4    5 1  
     8    7    8 2  
     9    8    9 1  
    10    1    2 2  
    11    1   12 1  
    12    1   13 1  
    13    2   14 1  
    14    3   15 1  
    15    4   16 1  
    16    5   17 1  
    17    6   18 1  
    18    7   19 1  
    19    8   20 1  
    20   11   21 1  
    21   11   22 1  
# Name:          frag3-242-3/31924
# Creation time: Sat Jun  5 12:52:36 2010


@<TRIPOS>MOLECULE
frag3-242-3/31924
   22    21     1     1     1
SMALL
USER_CHARGES


@<TRIPOS>ATOM
      1 C38         7.0269   -3.4289    1.3613 C.2        1 <1>        0.000
      2 C39         7.3256   -2.4217    0.5358 C.2        1 <1>        0.000
      3 C41         8.6175   -1.7310    0.5311 C.2        1 <1>        0.000
      4 C42         8.9043   -0.6788   -0.2470 C.2        1 <1>        0.000
      5 C43        10.1911    0.0213   -0.2499 C.2        1 <1>        0.000
      6 C44        10.4815    1.0639   -1.0416 C.2        1 <1>        0.000
      7 C45        11.7738    1.7612   -1.0351 C.2        1 <1>        0.000
      8 C46        12.0586    2.9992   -1.4770 C.2        1 <1>        0.000
      9 C47        11.1245    3.9904   -2.0618 C.2        1 <1>        0.000
     10 O14        10.0089    4.1306   -1.5848 O.2        1 <1>        0.000
     11 N4         11.5185    4.7419   -3.1115 N.am       1 <1>        0.000
     12 H           7.7648   -3.7791    2.0831 H.spc      1 <1>        0.000
     13 H           6.0453   -3.9004    1.3130 H.spc      1 <1>        0.000
     14 H           6.5654   -2.0956   -0.1740 H.spc      1 <1>        0.000
     15 H           9.3943   -2.0961    1.2030 H.spc      1 <1>        0.000
     16 H           8.1284   -0.3197   -0.9231 H.spc      1 <1>        0.000
     17 H          10.9627   -0.3280    0.4361 H.spc      1 <1>        0.000
     18 H           9.7130    1.4144   -1.7306 H.spc      1 <1>        0.000
     19 H          12.6116    1.2026   -0.6177 H.spc      1 <1>        0.000
     20 H          13.1000    3.3106   -1.3954 H.spc      1 <1>        0.000
     21 H          10.8831    5.4323   -3.5115 H.spc      1 <1>        0.000
     22 H          12.4516    4.6194   -3.5047 H.spc      1 <1>        0.000
@<TRIPOS>BOND
     1    6    7 1  
     2    3    4 2  
     3    2    3 1  
     4    9   11 am 
     5    5    6 2  
     6    9   10 2  
     7    4    5 1  
     8    7    8 2  
     9    8    9 1  
    10    1    2 2  
    11    1   12 1  
    12    1   13 1  
    13    2   14 1  
    14    3   15 1  
    15    4   16 1  
    16    5   17 1  
    17    6   18 1  
    18    7   19 1  
    19    8   20 1  
    20   11   21 1  
    21   11   22 1  
# Name:          frag3-242-3/31924
# Creation time: Sat Jun  5 12:52:36 2010


@<TRIPOS>MOLECULE
frag3-242-3/31924
   22    21     1     1     1
SMALL
USER_CHARGES


@<TRIPOS>ATOM
      1 C38         6.4699   -2.4212    0.4774 C.2        1 <1>        0.000
      2 C39         7.7524   -2.0833    0.6384 C.2        1 <1>        0.000
      3 C41         8.4445   -1.0992   -0.1976 C.2        1 <1>        0.000
      4 C42         9.7041   -0.6919    0.0077 C.2        1 <1>        0.000
      5 C43        10.4039    0.2854   -0.8292 C.2        1 <1>        0.000
      6 C44        11.6346    0.7548   -0.5738 C.2        1 <1>        0.000
      7 C45        12.3256    1.7346   -1.4213 C.2        1 <1>        0.000
      8 C46        11.8516    2.9055   -1.8892 C.2        1 <1>        0.000
      9 C47        10.5229    3.5137   -1.6374 C.2        1 <1>        0.000
     10 O14         9.7858    3.7643   -2.5803 O.2        1 <1>        0.000
     11 N4         10.1358    3.7855   -0.3752 N.am       1 <1>        0.000
     12 H           5.8787   -1.9561   -0.3114 H.spc      1 <1>        0.000
     13 H           6.0148   -3.1619    1.1349 H.spc      1 <1>        0.000
     14 H           8.3155   -2.5670    1.4366 H.spc      1 <1>        0.000
     15 H           7.9003   -0.6715   -1.0396 H.spc      1 <1>        0.000
     16 H          10.2443   -1.1161    0.8541 H.spc      1 <1>        0.000
     17 H           9.8915    0.6554   -1.7173 H.spc      1 <1>        0.000
     18 H          12.1508    0.3879    0.3133 H.spc      1 <1>        0.000
     19 H          13.3472    1.4838   -1.7068 H.spc      1 <1>        0.000
     20 H          12.5257    3.4741   -2.5298 H.spc      1 <1>        0.000
     21 H           9.2218    4.2034   -0.2009 H.spc      1 <1>        0.000
     22 H          10.7569    3.5733    0.4056 H.spc      1 <1>        0.000
@<TRIPOS>BOND
     1    6    7 1  
     2    3    4 2  
     3    2    3 1  
     4    9   11 am 
     5    5    6 2  
     6    9   10 2  
     7    4    5 1  
     8    7    8 2  
     9    8    9 1  
    10    1    2 2  
    11    1   12 1  
    12    1   13 1  
    13    2   14 1  
    14    3   15 1  
    15    4   16 1  
    16    5   17 1  
    17    6   18 1  
    18    7   19 1  
    19    8   20 1  
    20   11   21 1  
    21   11   22 1  
# Name:          frag3-242-3/31924
# Creation time: Sat Jun  5 12:52:36 2010


@<TRIPOS>MOLECULE
frag3-242-3/31924
   22    21     1     1     1
SMALL
USER_CHARGES


@<TRIPOS>ATOM
      1 C38         6.7252   -3.1404    0.3960 C.2        1 <1>        0.000
      2 C39         7.5833   -2.1869    0.7718 C.2        1 <1>        0.000
      3 C41         8.5089   -1.5197   -0.1517 C.2        1 <1>        0.000
      4 C42         9.3737   -0.5655    0.2174 C.2        1 <1>        0.000
      5 C43        10.3077    0.0989   -0.6999 C.2        1 <1>        0.000
      6 C44        11.1756    1.0509   -0.3270 C.2        1 <1>        0.000
      7 C45        12.1072    1.7109   -1.2548 C.2        1 <1>        0.000
      8 C46        11.9395    2.8711   -1.9147 C.2        1 <1>        0.000
      9 C47        10.7841    3.7971   -1.8475 C.2        1 <1>        0.000
     10 O14        10.7566    4.7797   -2.5757 O.2        1 <1>        0.000
     11 N4          9.7693    3.5519   -0.9944 N.am       1 <1>        0.000
     12 H           6.6879   -3.4605   -0.6453 H.spc      1 <1>        0.000
     13 H           6.0627   -3.5978    1.1308 H.spc      1 <1>        0.000
     14 H           7.5964   -1.8888    1.8202 H.spc      1 <1>        0.000
     15 H           8.4915   -1.8183   -1.1998 H.spc      1 <1>        0.000
     16 H           9.3846   -0.2634    1.2646 H.spc      1 <1>        0.000
     17 H          10.2950   -0.1998   -1.7481 H.spc      1 <1>        0.000
     18 H          11.1916    1.3520    0.7205 H.spc      1 <1>        0.000
     19 H          13.0515    1.1953   -1.4294 H.spc      1 <1>        0.000
     20 H          12.7516    3.1659   -2.5793 H.spc      1 <1>        0.000
     21 H           8.9725    4.1874   -0.9535 H.spc      1 <1>        0.000
     22 H           9.7983    2.7309   -0.3899 H.spc      1 <1>        0.000
@<TRIPOS>BOND
     1    6    7 1  
     2    3    4 2  
     3    2    3 1  
     4    9   11 am 
     5    5    6 2  
     6    9   10 2  
     7    4    5 1  
     8    7    8 2  
     9    8    9 1  
    10    1    2 2  
    11    1   12 1  
    12    1   13 1  
    13    2   14 1  
    14    3   15 1  
    15    4   16 1  
    16    5   17 1  
    17    6   18 1  
    18    7   19 1  
    19    8   20 1  
    20   11   21 1  
    21   11   22 1  
# Name:          frag3-242-3/31924
# Creation time: Sat Jun  5 12:52:36 2010


@<TRIPOS>MOLECULE
frag3-242-3/31924
   22    21     1     1     1
SMALL
USER_CHARGES


@<TRIPOS>ATOM
      1 C38         6.3977   -1.9259    0.3261 C.2        1 <1>        0.000
      2 C39         7.7083   -2.0982    0.5174 C.2        1 <1>        0.000
      3 C41         8.7350   -1.2257   -0.0491 C.2        1 <1>        0.000
      4 C42        10.0482   -1.3409    0.2016 C.2        1 <1>        0.000
      5 C43        11.0743   -0.4708   -0.3711 C.2        1 <1>        0.000
      6 C44        10.8598    0.8084   -0.7272 C.2        1 <1>        0.000
      7 C45        11.8856    1.6817   -1.3028 C.2        1 <1>        0.000
      8 C46        11.7571    2.9404   -1.7590 C.2        1 <1>        0.000
      9 C47        10.5334    3.7776   -1.7698 C.2        1 <1>        0.000
     10 O14         9.8741    3.8720   -2.7948 O.2        1 <1>        0.000
     11 N4         10.1576    4.4295   -0.6516 N.am       1 <1>        0.000
     12 H           6.0403   -1.0956   -0.2830 H.spc      1 <1>        0.000
     13 H           5.6855   -2.6156    0.7791 H.spc      1 <1>        0.000
     14 H           8.0311   -2.9386    1.1319 H.spc      1 <1>        0.000
     15 H           8.4127   -0.4289   -0.7194 H.spc      1 <1>        0.000
     16 H          10.3708   -2.1344    0.8757 H.spc      1 <1>        0.000
     17 H          12.0724   -0.8833   -0.5182 H.spc      1 <1>        0.000
     18 H           9.8617    1.2205   -0.5784 H.spc      1 <1>        0.000
     19 H          12.8861    1.2545   -1.3703 H.spc      1 <1>        0.000
     20 H          12.6575    3.3984   -2.1685 H.spc      1 <1>        0.000
     21 H           9.3171    5.0073   -0.6562 H.spc      1 <1>        0.000
     22 H          10.7137    4.3450    0.1993 H.spc      1 <1>        0.000
@<TRIPOS>BOND
     1    6    7 1  
     2    3    4 2  
     3    2    3 1  
     4    9   11 am 
     5    5    6 2  
     6    9   10 2  
     7    4    5 1  
     8    7    8 2  
     9    8    9 1  
    10    1    2 2  
    11    1   12 1  
    12    1   13 1  
    13    2   14 1  
    14    3   15 1  
    15    4   16 1  
    16    5   17 1  
    17    6   18 1  
    18    7   19 1  
    19    8   20 1  
    20   11   21 1  
    21   11   22 1  
# Name:          frag3-242-3/31924
# Creation time: Sat Jun  5 12:52:36 2010


@<TRIPOS>MOLECULE
frag3-242-3/31924
   22    21     1     1     1
SMALL
USER_CHARGES


@<TRIPOS>ATOM
      1 C38         7.1526   -3.6430    0.9879 C.2        1 <1>        0.000
      2 C39         7.4042   -2.5427    0.2721 C.2        1 <1>        0.000
      3 C41         8.6892   -1.8348    0.2983 C.2        1 <1>        0.000
      4 C42         8.8468   -0.5576   -0.0742 C.2        1 <1>        0.000
      5 C43        10.1278    0.1577   -0.0422 C.2        1 <1>        0.000
      6 C44        10.4565    1.1465   -0.8863 C.2        1 <1>        0.000
      7 C45        11.7428    1.8579   -0.8471 C.2        1 <1>        0.000
      8 C46        12.0429    3.0658   -1.3542 C.2        1 <1>        0.000
      9 C47        11.1404    4.0031   -2.0641 C.2        1 <1>        0.000
     10 O14        11.5278    4.5587   -3.0822 O.2        1 <1>        0.000
     11 N4          9.9002    4.2363   -1.5885 N.am       1 <1>        0.000
     12 H           7.9240   -4.0604    1.6351 H.spc      1 <1>        0.000
     13 H           6.1760   -4.1230    0.9245 H.spc      1 <1>        0.000
     14 H           6.6121   -2.1501   -0.3655 H.spc      1 <1>        0.000
     15 H           9.5681   -2.3807    0.6413 H.spc      1 <1>        0.000
     16 H           7.9679   -0.0154   -0.4231 H.spc      1 <1>        0.000
     17 H          10.8569   -0.1326    0.7142 H.spc      1 <1>        0.000
     18 H           9.7295    1.4393   -1.6438 H.spc      1 <1>        0.000
     19 H          12.5575    1.3390   -0.3419 H.spc      1 <1>        0.000
     20 H          13.0741    3.3959   -1.2283 H.spc      1 <1>        0.000
     21 H           9.2787    4.8796   -2.0786 H.spc      1 <1>        0.000
     22 H           9.5837    3.7693   -0.7387 H.spc      1 <1>        0.000
@<TRIPOS>BOND
     1    6    7 1  
     2    3    4 2  
     3    2    3 1  
     4    9   11 am 
     5    5    6 2  
     6    9   10 2  
     7    4    5 1  
     8    7    8 2  
     9    8    9 1  
    10    1    2 2  
    11    1   12 1  
    12    1   13 1  
    13    2   14 1  
    14    3   15 1  
    15    4   16 1  
    16    5   17 1  
    17    6   18 1  
    18    7   19 1  
    19    8   20 1  
    20   11   21 1  
    21   11   22 1  
# Name:          frag3-242-3/31924
# Creation time: Sat Jun  5 12:52:36 2010


@<TRIPOS>MOLECULE
frag3-242-3/31924
   22    21     1     1     1
SMALL
USER_CHARGES


@<TRIPOS>ATOM
      1 C38         7.2409   -3.1836   -0.1576 C.2        1 <1>        0.000
      2 C39         7.4229   -2.2978    0.8282 C.2        1 <1>        0.000
      3 C41         8.5903   -1.4158    0.9140 C.2        1 <1>        0.000
      4 C42         9.1474   -0.8125   -0.1482 C.2        1 <1>        0.000
      5 C43        10.3097    0.0765   -0.0763 C.2        1 <1>        0.000
      6 C44        10.7164    0.8681   -1.0794 C.2        1 <1>        0.000
      7 C45        11.8803    1.7602   -0.9955 C.2        1 <1>        0.000
      8 C46        11.9740    3.0481   -1.3722 C.2        1 <1>        0.000
      9 C47        10.9108    3.9027   -1.9532 C.2        1 <1>        0.000
     10 O14        11.1777    4.6439   -2.8888 O.2        1 <1>        0.000
     11 N4          9.6607    3.8582   -1.4514 N.am       1 <1>        0.000
     12 H           7.9824   -3.2759   -0.9511 H.spc      1 <1>        0.000
     13 H           6.3511   -3.8130   -0.1673 H.spc      1 <1>        0.000
     14 H           6.6641   -2.2284    1.6076 H.spc      1 <1>        0.000
     15 H           9.0310   -1.2398    1.8953 H.spc      1 <1>        0.000
     16 H           8.7062   -0.9961   -1.1279 H.spc      1 <1>        0.000
     17 H          10.8805    0.0957    0.8521 H.spc      1 <1>        0.000
     18 H          10.1506    0.8484   -2.0108 H.spc      1 <1>        0.000
     19 H          12.7848    1.3220   -0.5735 H.spc      1 <1>        0.000
     20 H          12.9471    3.5194   -1.2339 H.spc      1 <1>        0.000
     21 H           8.9291    4.4453   -1.8520 H.spc      1 <1>        0.000
     22 H           9.4462    3.2374   -0.6710 H.spc      1 <1>        0.000
@<TRIPOS>BOND
     1    6    7 1  
     2    3    4 2  
     3    2    3 1  
     4    9   11 am 
     5    5    6 2  
     6    9   10 2  
     7    4    5 1  
     8    7    8 2  
     9    8    9 1  
    10    1    2 2  
    11    1   12 1  
    12    1   13 1  
    13    2   14 1  
    14    3   15 1  
    15    4   16 1  
    16    5   17 1  
    17    6   18 1  
    18    7   19 1  
    19    8   20 1  
    20   11   21 1  
    21   11   22 1  
# Name:          frag3-242-3/31924
# Creation time: Sat Jun  5 12:52:36 2010


@<TRIPOS>MOLECULE
frag3-242-3/31924
   22    21     1     1     1
SMALL
USER_CHARGES


@<TRIPOS>ATOM
      1 C38         7.0198   -3.4065    1.2661 C.2        1 <1>        0.000
      2 C39         7.4275   -2.5529    0.3220 C.2        1 <1>        0.000
      3 C41         8.6895   -1.8089    0.3920 C.2        1 <1>        0.000
      4 C42         8.8869   -0.6146   -0.1823 C.2        1 <1>        0.000
      5 C43        10.1436    0.1383   -0.1081 C.2        1 <1>        0.000
      6 C44        10.5136    1.0728   -0.9962 C.2        1 <1>        0.000
      7 C45        11.7751    1.8225   -0.9140 C.2        1 <1>        0.000
      8 C46        12.0402    3.0610   -1.3648 C.2        1 <1>        0.000
      9 C47        11.1132    3.9985   -2.0429 C.2        1 <1>        0.000
     10 O14        10.9192    5.1067   -1.5645 O.2        1 <1>        0.000
     11 N4         10.5026    3.6312   -3.1877 N.am       1 <1>        0.000
     12 H           7.6372   -3.5799    2.1475 H.spc      1 <1>        0.000
     13 H           6.0699   -3.9293    1.1547 H.spc      1 <1>        0.000
     14 H           6.7874   -2.4014   -0.5471 H.spc      1 <1>        0.000
     15 H           9.5167   -2.2544    0.9446 H.spc      1 <1>        0.000
     16 H           8.0607   -0.1742   -0.7404 H.spc      1 <1>        0.000
     17 H          10.8189   -0.0750    0.7205 H.spc      1 <1>        0.000
     18 H           9.8405    1.2885   -1.8260 H.spc      1 <1>        0.000
     19 H          12.6021    1.3082   -0.4246 H.spc      1 <1>        0.000
     20 H          13.0587    3.4187   -1.2137 H.spc      1 <1>        0.000
     21 H           9.8736    4.2798   -3.6610 H.spc      1 <1>        0.000
     22 H          10.6698    2.7048   -3.5803 H.spc      1 <1>        0.000
@<TRIPOS>BOND
     1    6    7 1  
     2    3    4 2  
     3    2    3 1  
     4    9   11 am 
     5    5    6 2  
     6    9   10 2  
     7    4    5 1  
     8    7    8 2  
     9    8    9 1  
    10    1    2 2  
    11    1   12 1  
    12    1   13 1  
    13    2   14 1  
    14    3   15 1  
    15    4   16 1  
    16    5   17 1  
    17    6   18 1  
    18    7   19 1  
    19    8   20 1  
    20   11   21 1  
    21   11   22 1  
# Name:          frag3-242-3/31924
# Creation time: Sat Jun  5 12:52:36 2010


@<TRIPOS>MOLECULE
frag3-242-3/31924
   22    21     1     1     1
SMALL
USER_CHARGES


@<TRIPOS>ATOM
      1 C38         7.5808   -3.4376    0.8348 C.2        1 <1>        0.000
      2 C39         7.5647   -2.2511    0.2207 C.2        1 <1>        0.000
      3 C41         8.7159   -1.3478    0.1688 C.2        1 <1>        0.000
      4 C42         8.6292   -0.0323   -0.0779 C.2        1 <1>        0.000
      5 C43         9.7794    0.8728   -0.1220 C.2        1 <1>        0.000
      6 C44        10.8685    0.6627   -0.8813 C.2        1 <1>        0.000
      7 C45        12.0202    1.5716   -0.9241 C.2        1 <1>        0.000
      8 C46        12.0579    2.8434   -1.3658 C.2        1 <1>        0.000
      9 C47        10.9382    3.6509   -1.9067 C.2        1 <1>        0.000
     10 O14        10.9338    4.8626   -1.7374 O.2        1 <1>        0.000
     11 N4          9.9427    3.0529   -2.5896 N.am       1 <1>        0.000
     12 H           8.4869   -3.7805    1.3343 H.spc      1 <1>        0.000
     13 H           6.6878   -4.0627    0.8363 H.spc      1 <1>        0.000
     14 H           6.6427   -1.9380   -0.2692 H.spc      1 <1>        0.000
     15 H           9.7054   -1.7710    0.3415 H.spc      1 <1>        0.000
     16 H           7.6402    0.3896   -0.2568 H.spc      1 <1>        0.000
     17 H           9.7508    1.7694    0.4971 H.spc      1 <1>        0.000
     18 H          10.8981   -0.2338   -1.5006 H.spc      1 <1>        0.000
     19 H          12.9617    1.1672   -0.5523 H.spc      1 <1>        0.000
     20 H          13.0279    3.3384   -1.3201 H.spc      1 <1>        0.000
     21 H           9.1781    3.6109   -2.9697 H.spc      1 <1>        0.000
     22 H           9.9536    2.0422   -2.7265 H.spc      1 <1>        0.000
@<TRIPOS>BOND
     1    6    7 1  
     2    3    4 2  
     3    2    3 1  
     4    9   11 am 
     5    5    6 2  
     6    9   10 2  
     7    4    5 1  
     8    7    8 2  
     9    8    9 1  
    10    1    2 2  
    11    1   12 1  
    12    1   13 1  
    13    2   14 1  
    14    3   15 1  
    15    4   16 1  
    16    5   17 1  
    17    6   18 1  
    18    7   19 1  
    19    8   20 1  
    20   11   21 1  
    21   11   22 1  
# Name:          frag3-242-3/31924
# Creation time: Sat Jun  5 12:52:36 2010


@<TRIPOS>MOLECULE
frag3-242-3/31924
   22    21     1     1     1
SMALL
USER_CHARGES


@<TRIPOS>ATOM
      1 C38         6.6761   -2.1717    1.2602 C.2        1 <1>        0.000
      2 C39         7.6867   -2.7436    0.5969 C.2        1 <1>        0.000
      3 C41         8.9637   -2.0773    0.3391 C.2        1 <1>        0.000
      4 C42         9.0829   -0.9267   -0.3427 C.2        1 <1>        0.000
      5 C43        10.3509   -0.2419   -0.5934 C.2        1 <1>        0.000
      6 C44        10.4784    1.0849   -0.7407 C.2        1 <1>        0.000
      7 C45        11.7551    1.7637   -0.9882 C.2        1 <1>        0.000
      8 C46        11.9688    2.9780   -1.5279 C.2        1 <1>        0.000
      9 C47        10.9531    3.9552   -1.9868 C.2        1 <1>        0.000
     10 O14         9.7649    3.7162   -1.8382 O.2        1 <1>        0.000
     11 N4         11.3507    5.1114   -2.5587 N.am       1 <1>        0.000
     12 H           6.7799   -1.1557    1.6411 H.spc      1 <1>        0.000
     13 H           5.7486   -2.7215    1.4199 H.spc      1 <1>        0.000
     14 H           7.5519   -3.7606    0.2286 H.spc      1 <1>        0.000
     15 H           9.8716   -2.5424    0.7231 H.spc      1 <1>        0.000
     16 H           8.1735   -0.4723   -0.7359 H.spc      1 <1>        0.000
     17 H          11.2522   -0.8506   -0.6653 H.spc      1 <1>        0.000
     18 H           9.5786    1.6962   -0.6724 H.spc      1 <1>        0.000
     19 H          12.6486    1.2118   -0.6965 H.spc      1 <1>        0.000
     20 H          13.0106    3.2779   -1.6407 H.spc      1 <1>        0.000
     21 H          10.6571    5.7915   -2.8696 H.spc      1 <1>        0.000
     22 H          12.3448    5.3050   -2.6799 H.spc      1 <1>        0.000
@<TRIPOS>BOND
     1    6    7 1  
     2    3    4 2  
     3    2    3 1  
     4    9   11 am 
     5    5    6 2  
     6    9   10 2  
     7    4    5 1  
     8    7    8 2  
     9    8    9 1  
    10    1    2 2  
    11    1   12 1  
    12    1   13 1  
    13    2   14 1  
    14    3   15 1  
    15    4   16 1  
    16    5   17 1  
    17    6   18 1  
    18    7   19 1  
    19    8   20 1  
    20   11   21 1  
    21   11   22 1  
# Name:          frag3-242-3/31924
# Creation time: Sat Jun  5 12:52:36 2010


@<TRIPOS>MOLECULE
frag3-242-3/31924
   22    21     1     1     1
SMALL
USER_CHARGES


@<TRIPOS>ATOM
      1 C38         6.5308   -2.5981    0.8465 C.2        1 <1>        0.000
      2 C39         7.6934   -2.4463    0.2050 C.2        1 <1>        0.000
      3 C41         8.6003   -1.3146    0.4273 C.2        1 <1>        0.000
      4 C42         9.4988   -0.8888   -0.4707 C.2        1 <1>        0.000
      5 C43        10.4008    0.2487   -0.2586 C.2        1 <1>        0.000
      6 C44        11.2596    0.7087   -1.1804 C.2        1 <1>        0.000
      7 C45        12.1567    1.8525   -0.9590 C.2        1 <1>        0.000
      8 C46        11.9239    3.1528   -1.2157 C.2        1 <1>        0.000
      9 C47        10.6939    3.7627   -1.7743 C.2        1 <1>        0.000
     10 O14        10.7633    4.8401   -2.3495 O.2        1 <1>        0.000
     11 N4          9.5097    3.1304   -1.6509 N.am       1 <1>        0.000
     12 H           6.2124   -1.8575    1.5801 H.spc      1 <1>        0.000
     13 H           5.9011   -3.4625    0.6361 H.spc      1 <1>        0.000
     14 H           7.9835   -3.2042   -0.5227 H.spc      1 <1>        0.000
     15 H           8.5394   -0.7887    1.3801 H.spc      1 <1>        0.000
     16 H           9.5638   -1.4215   -1.4194 H.spc      1 <1>        0.000
     17 H          10.3711    0.7512    0.7082 H.spc      1 <1>        0.000
     18 H          11.2945    0.2068   -2.1473 H.spc      1 <1>        0.000
     19 H          13.1325    1.6178   -0.5337 H.spc      1 <1>        0.000
     20 H          12.7378    3.8402   -0.9851 H.spc      1 <1>        0.000
     21 H           8.6646    3.5501   -2.0383 H.spc      1 <1>        0.000
     22 H           9.4588    2.2323   -1.1701 H.spc      1 <1>        0.000
@<TRIPOS>BOND
     1    6    7 1  
     2    3    4 2  
     3    2    3 1  
     4    9   11 am 
     5    5    6 2  
     6    9   10 2  
     7    4    5 1  
     8    7    8 2  
     9    8    9 1  
    10    1    2 2  
    11    1   12 1  
    12    1   13 1  
    13    2   14 1  
    14    3   15 1  
    15    4   16 1  
    16    5   17 1  
    17    6   18 1  
    18    7   19 1  
    19    8   20 1  
    20   11   21 1  
    21   11   22 1  
# Name:          frag3-242-3/31924
# Creation time: Sat Jun  5 12:52:36 2010


@<TRIPOS>MOLECULE
frag3-242-3/31924
   22    21     1     1     1
SMALL
USER_CHARGES


@<TRIPOS>ATOM
      1 C38         6.4091   -1.8928    0.3814 C.2        1 <1>        0.000
      2 C39         7.7202   -2.0725    0.5624 C.2        1 <1>        0.000
      3 C41         8.7461   -1.1880    0.0122 C.2        1 <1>        0.000
      4 C42        10.0623   -1.3284    0.2323 C.2        1 <1>        0.000
      5 C43        11.0878   -0.4461   -0.3240 C.2        1 <1>        0.000
      6 C44        10.8921    0.8582   -0.5874 C.2        1 <1>        0.000
      7 C45        11.9173    1.7429   -1.1475 C.2        1 <1>        0.000
      8 C46        11.7649    2.9599   -1.7006 C.2        1 <1>        0.000
      9 C47        10.5079    3.7303   -1.8582 C.2        1 <1>        0.000
     10 O14        10.1992    4.5612   -1.0161 O.2        1 <1>        0.000
     11 N4          9.7243    3.5234   -2.9350 N.am       1 <1>        0.000
     12 H           6.0508   -1.0471   -0.2056 H.spc      1 <1>        0.000
     13 H           5.6974   -2.5918    0.8207 H.spc      1 <1>        0.000
     14 H           8.0441   -2.9283    1.1547 H.spc      1 <1>        0.000
     15 H           8.4205   -0.3604   -0.6180 H.spc      1 <1>        0.000
     16 H          10.3882   -2.1529    0.8664 H.spc      1 <1>        0.000
     17 H          12.0686   -0.8708   -0.5377 H.spc      1 <1>        0.000
     18 H           9.9118    1.2828   -0.3712 H.spc      1 <1>        0.000
     19 H          12.9390    1.3648   -1.1112 H.spc      1 <1>        0.000
     20 H          12.6711    3.4348   -2.0766 H.spc      1 <1>        0.000
     21 H           8.8661    4.0620   -3.0523 H.spc      1 <1>        0.000
     22 H           9.9895    2.8282   -3.6327 H.spc      1 <1>        0.000
@<TRIPOS>BOND
     1    6    7 1  
     2    3    4 2  
     3    2    3 1  
     4    9   11 am 
     5    5    6 2  
     6    9   10 2  
     7    4    5 1  
     8    7    8 2  
     9    8    9 1  
    10    1    2 2  
    11    1   12 1  
    12    1   13 1  
    13    2   14 1  
    14    3   15 1  
    15    4   16 1  
    16    5   17 1  
    17    6   18 1  
    18    7   19 1  
    19    8   20 1  
    20   11   21 1  
    21   11   22 1  
# Name:          frag3-242-3/31924
# Creation time: Sat Jun  5 12:52:36 2010


@<TRIPOS>MOLECULE
frag3-242-3/31924
   22    21     1     1     1
SMALL
USER_CHARGES


@<TRIPOS>ATOM
      1 C38         6.6081   -2.2907    0.7925 C.2        1 <1>        0.000
      2 C39         7.7670   -2.8637    0.4484 C.2        1 <1>        0.000
      3 C41         9.0288   -2.1286    0.3390 C.2        1 <1>        0.000
      4 C42         9.1356   -0.9075   -0.2095 C.2        1 <1>        0.000
      5 C43        10.3872   -0.1558   -0.3150 C.2        1 <1>        0.000
      6 C44        10.4871    1.0772   -0.8330 C.2        1 <1>        0.000
      7 C45        11.7468    1.8237   -0.9328 C.2        1 <1>        0.000
      8 C46        11.9506    3.0598   -1.4202 C.2        1 <1>        0.000
      9 C47        10.9394    3.9989   -1.9611 C.2        1 <1>        0.000
     10 O14        10.7988    4.1055   -3.1708 O.2        1 <1>        0.000
     11 N4         10.1817    4.7292   -1.1181 N.am       1 <1>        0.000
     12 H           6.5710   -1.2229    1.0084 H.spc      1 <1>        0.000
     13 H           5.7010   -2.8916    0.8570 H.spc      1 <1>        0.000
     14 H           7.7723   -3.9333    0.2386 H.spc      1 <1>        0.000
     15 H           9.9330   -2.5995    0.7248 H.spc      1 <1>        0.000
     16 H           8.2300   -0.4453   -0.6023 H.spc      1 <1>        0.000
     17 H          11.2980   -0.6294    0.0516 H.spc      1 <1>        0.000
     18 H           9.5786    1.5533   -1.2019 H.spc      1 <1>        0.000
     19 H          12.6333    1.3082   -0.5633 H.spc      1 <1>        0.000
     20 H          12.9816    3.4134   -1.4173 H.spc      1 <1>        0.000
     21 H           9.4854    5.3760   -1.4885 H.spc      1 <1>        0.000
     22 H          10.3048    4.6348   -0.1100 H.spc      1 <1>        0.000
@<TRIPOS>BOND
     1    6    7 1  
     2    3    4 2  
     3    2    3 1  
     4    9   11 am 
     5    5    6 2  
     6    9   10 2  
     7    4    5 1  
     8    7    8 2  
     9    8    9 1  
    10    1    2 2  
    11    1   12 1  
    12    1   13 1  
    13    2   14 1  
    14    3   15 1  
    15    4   16 1  
    16    5   17 1  
    17    6   18 1  
    18    7   19 1  
    19    8   20 1  
    20   11   21 1  
    21   11   22 1  
# Name:          frag3-242-3/31924
# Creation time: Sat Jun  5 12:52:36 2010


@<TRIPOS>MOLECULE
frag3-242-3/31924
   22    21     1     1     1
SMALL
USER_CHARGES


@<TRIPOS>ATOM
      1 C38         6.8470   -2.3509    1.3886 C.2        1 <1>        0.000
      2 C39         7.5874   -2.2118    0.2852 C.2        1 <1>        0.000
      3 C41         8.7317   -1.3036    0.1840 C.2        1 <1>        0.000
      4 C42         9.5503   -1.2404   -0.8768 C.2        1 <1>        0.000
      5 C43        10.6890   -0.3246   -0.9813 C.2        1 <1>        0.000
      6 C44        10.6782    0.9371   -0.5175 C.2        1 <1>        0.000
      7 C45        11.8205    1.8530   -0.6206 C.2        1 <1>        0.000
      8 C46        11.8625    3.0736   -1.1841 C.2        1 <1>        0.000
      9 C47        10.7494    3.8190   -1.8192 C.2        1 <1>        0.000
     10 O14        10.6451    5.0229   -1.6282 O.2        1 <1>        0.000
     11 N4          9.8702    3.1738   -2.6105 N.am       1 <1>        0.000
     12 H           7.0827   -1.7696    2.2800 H.spc      1 <1>        0.000
     13 H           6.0072   -3.0457    1.3974 H.spc      1 <1>        0.000
     14 H           7.3249   -2.8078   -0.5888 H.spc      1 <1>        0.000
     15 H           8.9307   -0.6372    1.0233 H.spc      1 <1>        0.000
     16 H           9.3562   -1.9121   -1.7130 H.spc      1 <1>        0.000
     17 H          11.5972   -0.6871   -1.4628 H.spc      1 <1>        0.000
     18 H           9.7695    1.3006   -0.0376 H.spc      1 <1>        0.000
     19 H          12.7545    1.4986   -0.1846 H.spc      1 <1>        0.000
     20 H          12.8305    3.5745   -1.1724 H.spc      1 <1>        0.000
     21 H           9.1107    3.6893   -3.0554 H.spc      1 <1>        0.000
     22 H           9.9641    2.1699   -2.7647 H.spc      1 <1>        0.000
@<TRIPOS>BOND
     1    6    7 1  
     2    3    4 2  
     3    2    3 1  
     4    9   11 am 
     5    5    6 2  
     6    9   10 2  
     7    4    5 1  
     8    7    8 2  
     9    8    9 1  
    10    1    2 2  
    11    1   12 1  
    12    1   13 1  
    13    2   14 1  
    14    3   15 1  
    15    4   16 1  
    16    5   17 1  
    17    6   18 1  
    18    7   19 1  
    19    8   20 1  
    20   11   21 1  
    21   11   22 1  
# Name:          frag3-242-3/31924
# Creation time: Sat Jun  5 12:52:36 2010


@<TRIPOS>MOLECULE
frag3-242-3/31924
   22    21     1     1     1
SMALL
USER_CHARGES


@<TRIPOS>ATOM
      1 C38         7.6796   -2.9450    0.7878 C.2        1 <1>        0.000
      2 C39         7.3711   -1.6835    0.4688 C.2        1 <1>        0.000
      3 C41         8.3680   -0.6722    0.1199 C.2        1 <1>        0.000
      4 C42         9.2814   -0.8259   -0.8545 C.2        1 <1>        0.000
      5 C43        10.2807    0.1798   -1.2099 C.2        1 <1>        0.000
      6 C44        11.1522    0.7145   -0.3362 C.2        1 <1>        0.000
      7 C45        12.1497    1.7270   -0.6947 C.2        1 <1>        0.000
      8 C46        11.9457    2.9190   -1.2902 C.2        1 <1>        0.000
      9 C47        10.6527    3.5178   -1.7009 C.2        1 <1>        0.000
     10 O14        10.5800    4.1245   -2.7610 O.2        1 <1>        0.000
     11 N4          9.5701    3.3921   -0.9095 N.am       1 <1>        0.000
     12 H           8.7213   -3.2657    0.7968 H.spc      1 <1>        0.000
     13 H           6.8893   -3.6525    1.0388 H.spc      1 <1>        0.000
     14 H           6.3204   -1.3936    0.4689 H.spc      1 <1>        0.000
     15 H           8.3707    0.2611    0.6829 H.spc      1 <1>        0.000
     16 H           9.2764   -1.7605   -1.4155 H.spc      1 <1>        0.000
     17 H          10.3221    0.5168   -2.2457 H.spc      1 <1>        0.000
     18 H          11.1146    0.3751    0.6989 H.spc      1 <1>        0.000
     19 H          13.1841    1.4863   -0.4495 H.spc      1 <1>        0.000
     20 H          12.8366    3.5130   -1.4940 H.spc      1 <1>        0.000
     21 H           8.6810    3.8043   -1.1923 H.spc      1 <1>        0.000
     22 H           9.6394    2.8847   -0.0274 H.spc      1 <1>        0.000
@<TRIPOS>BOND
     1    6    7 1  
     2    3    4 2  
     3    2    3 1  
     4    9   11 am 
     5    5    6 2  
     6    9   10 2  
     7    4    5 1  
     8    7    8 2  
     9    8    9 1  
    10    1    2 2  
    11    1   12 1  
    12    1   13 1  
    13    2   14 1  
    14    3   15 1  
    15    4   16 1  
    16    5   17 1  
    17    6   18 1  
    18    7   19 1  
    19    8   20 1  
    20   11   21 1  
    21   11   22 1  
# Name:          frag3-242-3/31924
# Creation time: Sat Jun  5 12:52:36 2010


@<TRIPOS>MOLECULE
frag3-242-3/31924
   22    21     1     1     1
SMALL
USER_CHARGES


@<TRIPOS>ATOM
      1 C38         6.4186   -1.8656    0.7521 C.2        1 <1>        0.000
      2 C39         7.6707   -2.1209    0.3637 C.2        1 <1>        0.000
      3 C41         8.6939   -1.0922    0.1875 C.2        1 <1>        0.000
      4 C42        10.0086   -1.3418    0.0893 C.2        1 <1>        0.000
      5 C43        11.0304   -0.3131   -0.0971 C.2        1 <1>        0.000
      6 C44        10.9354    0.6861   -0.9915 C.2        1 <1>        0.000
      7 C45        11.9548    1.7227   -1.1739 C.2        1 <1>        0.000
      8 C46        11.7921    3.0027   -1.5586 C.2        1 <1>        0.000
      9 C47        10.5208    3.6958   -1.8756 C.2        1 <1>        0.000
     10 O14         9.4640    3.2605   -1.4451 O.2        1 <1>        0.000
     11 N4         10.5418    4.8138   -2.6313 N.am       1 <1>        0.000
     12 H           6.1100   -0.8406    0.9576 H.spc      1 <1>        0.000
     13 H           5.7053   -2.6822    0.8636 H.spc      1 <1>        0.000
     14 H           7.9456   -3.1571    0.1666 H.spc      1 <1>        0.000
     15 H           8.3674   -0.0537    0.1322 H.spc      1 <1>        0.000
     16 H          10.3362   -2.3795    0.1527 H.spc      1 <1>        0.000
     17 H          11.9231   -0.3590    0.5267 H.spc      1 <1>        0.000
     18 H          10.0455    0.7277   -1.6195 H.spc      1 <1>        0.000
     19 H          12.9812    1.4170   -0.9712 H.spc      1 <1>        0.000
     20 H          12.7007    3.5983   -1.6472 H.spc      1 <1>        0.000
     21 H           9.6716    5.3006   -2.8461 H.spc      1 <1>        0.000
     22 H          11.4279    5.1719   -2.9876 H.spc      1 <1>        0.000
@<TRIPOS>BOND
     1    6    7 1  
     2    3    4 2  
     3    2    3 1  
     4    9   11 am 
     5    5    6 2  
     6    9   10 2  
     7    4    5 1  
     8    7    8 2  
     9    8    9 1  
    10    1    2 2  
    11    1   12 1  
    12    1   13 1  
    13    2   14 1  
    14    3   15 1  
    15    4   16 1  
    16    5   17 1  
    17    6   18 1  
    18    7   19 1  
    19    8   20 1  
    20   11   21 1  
    21   11   22 1  
# Name:          frag3-242-3/31924
# Creation time: Sat Jun  5 12:52:36 2010


@<TRIPOS>MOLECULE
frag3-242-3/31924
   22    21     1     1     1
SMALL
USER_CHARGES


@<TRIPOS>ATOM
      1 C38         6.9877   -2.5509   -0.3323 C.2        1 <1>        0.000
      2 C39         7.5650   -2.0174    0.7499 C.2        1 <1>        0.000
      3 C41         8.4778   -0.8718    0.6955 C.2        1 <1>        0.000
      4 C42         9.5874   -0.8386   -0.0591 C.2        1 <1>        0.000
      5 C43        10.5001    0.3052   -0.1327 C.2        1 <1>        0.000
      6 C44        11.3081    0.5583   -1.1735 C.2        1 <1>        0.000
      7 C45        12.2140    1.7130   -1.2408 C.2        1 <1>        0.000
      8 C46        11.9030    3.0003   -1.4829 C.2        1 <1>        0.000
      9 C47        10.5610    3.5803   -1.7273 C.2        1 <1>        0.000
     10 O14        10.4340    4.7957   -1.7953 O.2        1 <1>        0.000
     11 N4          9.4928    2.7739   -1.8820 N.am       1 <1>        0.000
     12 H           7.1880   -2.1328   -1.3188 H.spc      1 <1>        0.000
     13 H           6.3170   -3.4037   -0.2277 H.spc      1 <1>        0.000
     14 H           7.3453   -2.4573    1.7227 H.spc      1 <1>        0.000
     15 H           8.2422    0.0026    1.3021 H.spc      1 <1>        0.000
     16 H           9.8248   -1.7194   -0.6556 H.spc      1 <1>        0.000
     17 H          10.5242    0.9942    0.7116 H.spc      1 <1>        0.000
     18 H          11.2915   -0.1319   -2.0170 H.spc      1 <1>        0.000
     19 H          13.2700    1.5009   -1.0738 H.spc      1 <1>        0.000
     20 H          12.7385    3.7001   -1.5014 H.spc      1 <1>        0.000
     21 H           8.5717    3.1755   -2.0569 H.spc      1 <1>        0.000
     22 H           9.6052    1.7618   -1.8242 H.spc      1 <1>        0.000
@<TRIPOS>BOND
     1    6    7 1  
     2    3    4 2  
     3    2    3 1  
     4    9   11 am 
     5    5    6 2  
     6    9   10 2  
     7    4    5 1  
     8    7    8 2  
     9    8    9 1  
    10    1    2 2  
    11    1   12 1  
    12    1   13 1  
    13    2   14 1  
    14    3   15 1  
    15    4   16 1  
    16    5   17 1  
    17    6   18 1  
    18    7   19 1  
    19    8   20 1  
    20   11   21 1  
    21   11   22 1  
# Name:          frag3-242-3/31924
# Creation time: Sat Jun  5 12:52:36 2010


@<TRIPOS>MOLECULE
frag3-242-3/31924
   22    21     1     1     1
SMALL
USER_CHARGES


@<TRIPOS>ATOM
      1 C38         7.1017   -3.6313    0.7432 C.2        1 <1>        0.000
      2 C39         7.3327   -2.3163    0.7875 C.2        1 <1>        0.000
      3 C41         8.6522   -1.7154    0.5880 C.2        1 <1>        0.000
      4 C42         8.8536   -0.4905    0.0835 C.2        1 <1>        0.000
      5 C43        10.1701    0.1167   -0.1157 C.2        1 <1>        0.000
      6 C44        10.4415    1.0490   -1.0405 C.2        1 <1>        0.000
      7 C45        11.7649    1.6525   -1.2330 C.2        1 <1>        0.000
      8 C46        12.0671    2.8867   -1.6776 C.2        1 <1>        0.000
      9 C47        11.1249    3.9634   -2.0668 C.2        1 <1>        0.000
     10 O14         9.9712    3.6892   -2.3564 O.2        1 <1>        0.000
     11 N4         11.5513    5.2440   -2.0928 N.am       1 <1>        0.000
     12 H           7.9219   -4.3225    0.5495 H.spc      1 <1>        0.000
     13 H           6.0930   -4.0131    0.9008 H.spc      1 <1>        0.000
     14 H           6.4903   -1.6529    0.9834 H.spc      1 <1>        0.000
     15 H           9.5273   -2.3020    0.8678 H.spc      1 <1>        0.000
     16 H           7.9772    0.0934   -0.1977 H.spc      1 <1>        0.000
     17 H          10.9843   -0.2107    0.5308 H.spc      1 <1>        0.000
     18 H           9.6295    1.3786   -1.6887 H.spc      1 <1>        0.000
     19 H          12.6153    1.0180   -0.9831 H.spc      1 <1>        0.000
     20 H          13.1281    3.1219   -1.7612 H.spc      1 <1>        0.000
     21 H          10.9079    5.9905   -2.3558 H.spc      1 <1>        0.000
     22 H          12.5169    5.4651   -1.8495 H.spc      1 <1>        0.000
@<TRIPOS>BOND
     1    6    7 1  
     2    3    4 2  
     3    2    3 1  
     4    9   11 am 
     5    5    6 2  
     6    9   10 2  
     7    4    5 1  
     8    7    8 2  
     9    8    9 1  
    10    1    2 2  
    11    1   12 1  
    12    1   13 1  
    13    2   14 1  
    14    3   15 1  
    15    4   16 1  
    16    5   17 1  
    17    6   18 1  
    18    7   19 1  
    19    8   20 1  
    20   11   21 1  
    21   11   22 1  
# Name:          frag3-242-3/31924
# Creation time: Sat Jun  5 12:52:36 2010


@<TRIPOS>MOLECULE
frag3-242-3/31924
   22    21     1     1     1
SMALL
USER_CHARGES


@<TRIPOS>ATOM
      1 C38         6.4346   -2.3535    0.1628 C.2        1 <1>        0.000
      2 C39         7.6863   -2.2228    0.6119 C.2        1 <1>        0.000
      3 C41         8.7291   -1.4755   -0.0976 C.2        1 <1>        0.000
      4 C42         9.8725   -1.0634    0.4679 C.2        1 <1>        0.000
      5 C43        10.9184   -0.3192   -0.2402 C.2        1 <1>        0.000
      6 C44        10.8469    0.9925   -0.5177 C.2        1 <1>        0.000
      7 C45        11.8952    1.7335   -1.2322 C.2        1 <1>        0.000
      8 C46        11.8111    2.9375   -1.8250 C.2        1 <1>        0.000
      9 C47        10.6366    3.8407   -1.8816 C.2        1 <1>        0.000
     10 O14        10.8075    5.0517   -1.8714 O.2        1 <1>        0.000
     11 N4          9.3930    3.3266   -1.9573 N.am       1 <1>        0.000
     12 H           6.1426   -1.8904   -0.7798 H.spc      1 <1>        0.000
     13 H           5.7055   -2.9232    0.7390 H.spc      1 <1>        0.000
     14 H           7.9463   -2.6979    1.5578 H.spc      1 <1>        0.000
     15 H           8.5646   -1.2406   -1.1492 H.spc      1 <1>        0.000
     16 H          10.0348   -1.2963    1.5203 H.spc      1 <1>        0.000
     17 H          11.8070   -0.8632   -0.5605 H.spc      1 <1>        0.000
     18 H           9.9607    1.5387   -0.1945 H.spc      1 <1>        0.000
     19 H          12.8673    1.2437   -1.2891 H.spc      1 <1>        0.000
     20 H          12.7136    3.2916   -2.3231 H.spc      1 <1>        0.000
     21 H           8.5861    3.9486   -2.0066 H.spc      1 <1>        0.000
     22 H           9.2587    2.3155   -1.9653 H.spc      1 <1>        0.000
@<TRIPOS>BOND
     1    6    7 1  
     2    3    4 2  
     3    2    3 1  
     4    9   11 am 
     5    5    6 2  
     6    9   10 2  
     7    4    5 1  
     8    7    8 2  
     9    8    9 1  
    10    1    2 2  
    11    1   12 1  
    12    1   13 1  
    13    2   14 1  
    14    3   15 1  
    15    4   16 1  
    16    5   17 1  
    17    6   18 1  
    18    7   19 1  
    19    8   20 1  
    20   11   21 1  
    21   11   22 1  
# Name:          frag3-242-3/31924
# Creation time: Sat Jun  5 12:52:36 2010


@<TRIPOS>MOLECULE
frag3-242-3/31924
   22    21     1     1     1
SMALL
USER_CHARGES


@<TRIPOS>ATOM
      1 C38         7.3896   -3.2040    1.3182 C.2        1 <1>        0.000
      2 C39         7.5025   -2.2839    0.3557 C.2        1 <1>        0.000
      3 C41         8.7483   -1.5697    0.0582 C.2        1 <1>        0.000
      4 C42         8.8334   -0.5317   -0.7858 C.2        1 <1>        0.000
      5 C43        10.0756    0.1921   -1.0750 C.2        1 <1>        0.000
      6 C44        10.6223    1.0993   -0.2492 C.2        1 <1>        0.000
      7 C45        11.8699    1.8189   -0.5425 C.2        1 <1>        0.000
      8 C46        12.0294    2.9498   -1.2543 C.2        1 <1>        0.000
      9 C47        10.9789    3.7759   -1.8954 C.2        1 <1>        0.000
     10 O14        11.3026    4.7432   -2.5714 O.2        1 <1>        0.000
     11 N4          9.6785    3.4581   -1.7390 N.am       1 <1>        0.000
     12 H           8.2532   -3.4590    1.9324 H.spc      1 <1>        0.000
     13 H           6.4339   -3.6995    1.4891 H.spc      1 <1>        0.000
     14 H           6.6204   -2.0515   -0.2409 H.spc      1 <1>        0.000
     15 H           9.6603   -1.9031    0.5533 H.spc      1 <1>        0.000
     16 H           7.9228   -0.2054   -1.2883 H.spc      1 <1>        0.000
     17 H          10.5851   -0.0185   -2.0153 H.spc      1 <1>        0.000
     18 H          10.1127    1.3137    0.6902 H.spc      1 <1>        0.000
     19 H          12.7801    1.3817   -0.1320 H.spc      1 <1>        0.000
     20 H          13.0545    3.3005   -1.3738 H.spc      1 <1>        0.000
     21 H           8.9577    4.0251   -2.1854 H.spc      1 <1>        0.000
     22 H           9.4152    2.6505   -1.1743 H.spc      1 <1>        0.000
@<TRIPOS>BOND
     1    6    7 1  
     2    3    4 2  
     3    2    3 1  
     4    9   11 am 
     5    5    6 2  
     6    9   10 2  
     7    4    5 1  
     8    7    8 2  
     9    8    9 1  
    10    1    2 2  
    11    1   12 1  
    12    1   13 1  
    13    2   14 1  
    14    3   15 1  
    15    4   16 1  
    16    5   17 1  
    17    6   18 1  
    18    7   19 1  
    19    8   20 1  
    20   11   21 1  
    21   11   22 1  
# Name:          frag3-242-3/31924
# Creation time: Sat Jun  5 12:52:36 2010


@<TRIPOS>MOLECULE
frag3-242-3/31924
   22    21     1     1     1
SMALL
USER_CHARGES


@<TRIPOS>ATOM
      1 C38         7.1831   -3.3028    0.4554 C.2        1 <1>        0.000
      2 C39         7.5808   -2.0517    0.7035 C.2        1 <1>        0.000
      3 C41         8.4909   -1.3011   -0.1653 C.2        1 <1>        0.000
      4 C42         9.0375   -0.1213    0.1595 C.2        1 <1>        0.000
      5 C43         9.9582    0.6252   -0.7006 C.2        1 <1>        0.000
      6 C44        11.2665    0.7846   -0.4434 C.2        1 <1>        0.000
      7 C45        12.1831    1.5298   -1.3155 C.2        1 <1>        0.000
      8 C46        11.9796    2.7255   -1.9036 C.2        1 <1>        0.000
      9 C47        10.7886    3.6010   -1.7903 C.2        1 <1>        0.000
     10 O14        10.1812    3.9271   -2.8006 O.2        1 <1>        0.000
     11 N4         10.3816    4.0319   -0.5797 N.am       1 <1>        0.000
     12 H           7.5383   -3.8211   -0.4353 H.spc      1 <1>        0.000
     13 H           6.5035   -3.8052    1.1437 H.spc      1 <1>        0.000
     14 H           7.2072   -1.5619    1.6028 H.spc      1 <1>        0.000
     15 H           8.7390   -1.7290   -1.1366 H.spc      1 <1>        0.000
     16 H           8.7801    0.3107    1.1266 H.spc      1 <1>        0.000
     17 H           9.5564    1.0798   -1.6061 H.spc      1 <1>        0.000
     18 H          11.6708    0.3355    0.4638 H.spc      1 <1>        0.000
     19 H          13.1461    1.0583   -1.5113 H.spc      1 <1>        0.000
     20 H          12.7866    3.0923   -2.5378 H.spc      1 <1>        0.000
     21 H           9.5620    4.6341   -0.5017 H.spc      1 <1>        0.000
     22 H          10.8932    3.7558    0.2584 H.spc      1 <1>        0.000
@<TRIPOS>BOND
     1    6    7 1  
     2    3    4 2  
     3    2    3 1  
     4    9   11 am 
     5    5    6 2  
     6    9   10 2  
     7    4    5 1  
     8    7    8 2  
     9    8    9 1  
    10    1    2 2  
    11    1   12 1  
    12    1   13 1  
    13    2   14 1  
    14    3   15 1  
    15    4   16 1  
    16    5   17 1  
    17    6   18 1  
    18    7   19 1  
    19    8   20 1  
    20   11   21 1  
    21   11   22 1  
# Name:          frag3-242-3/31924
# Creation time: Sat Jun  5 12:52:36 2010


@<TRIPOS>MOLECULE
frag3-242-3/31924
   22    21     1     1     1
SMALL
USER_CHARGES


@<TRIPOS>ATOM
      1 C38         7.2453   -2.3584    1.4128 C.2        1 <1>        0.000
      2 C39         7.2979   -1.8751    0.1667 C.2        1 <1>        0.000
      3 C41         8.3954   -1.0524   -0.3340 C.2        1 <1>        0.000
      4 C42         9.6874   -1.2466   -0.0105 C.2        1 <1>        0.000
      5 C43        10.7915   -0.4309   -0.5060 C.2        1 <1>        0.000
      6 C44        10.8212    0.9122   -0.4468 C.2        1 <1>        0.000
      7 C45        11.9252    1.7317   -0.9495 C.2        1 <1>        0.000
      8 C46        11.8701    2.9155   -1.5888 C.2        1 <1>        0.000
      9 C47        10.6612    3.7092   -1.9162 C.2        1 <1>        0.000
     10 O14         9.7355    3.7653   -1.1216 O.2        1 <1>        0.000
     11 N4         10.6006    4.3774   -3.0865 N.am       1 <1>        0.000
     12 H           8.0506   -2.1433    2.1152 H.spc      1 <1>        0.000
     13 H           6.3972   -2.9673    1.7258 H.spc      1 <1>        0.000
     14 H           6.4771   -2.1080   -0.5117 H.spc      1 <1>        0.000
     15 H           8.1540   -0.2321   -1.0100 H.spc      1 <1>        0.000
     16 H           9.9248   -2.0674    0.6663 H.spc      1 <1>        0.000
     17 H          11.6449   -0.9420   -0.9517 H.spc      1 <1>        0.000
     18 H           9.9700    1.4227    0.0037 H.spc      1 <1>        0.000
     19 H          12.9250    1.3301   -0.7843 H.spc      1 <1>        0.000
     20 H          12.8244    3.3392   -1.9018 H.spc      1 <1>        0.000
     21 H           9.7771    4.9349   -3.3134 H.spc      1 <1>        0.000
     22 H          11.3782    4.3251   -3.7445 H.spc      1 <1>        0.000
@<TRIPOS>BOND
     1    6    7 1  
     2    3    4 2  
     3    2    3 1  
     4    9   11 am 
     5    5    6 2  
     6    9   10 2  
     7    4    5 1  
     8    7    8 2  
     9    8    9 1  
    10    1    2 2  
    11    1   12 1  
    12    1   13 1  
    13    2   14 1  
    14    3   15 1  
    15    4   16 1  
    16    5   17 1  
    17    6   18 1  
    18    7   19 1  
    19    8   20 1  
    20   11   21 1  
    21   11   22 1  
# Name:          frag3-242-3/31924
# Creation time: Sat Jun  5 12:52:36 2010


@<TRIPOS>MOLECULE
frag3-242-3/31924
   22    21     1     1     1
SMALL
USER_CHARGES


@<TRIPOS>ATOM
      1 C38         6.6809   -2.5495   -0.2388 C.2        1 <1>        0.000
      2 C39         7.7669   -2.2663    0.4863 C.2        1 <1>        0.000
      3 C41         8.8707   -1.4344    0.0035 C.2        1 <1>        0.000
      4 C42         9.5696   -0.5896    0.7771 C.2        1 <1>        0.000
      5 C43        10.6765    0.2397    0.2948 C.2        1 <1>        0.000
      6 C44        10.7665    0.7094   -0.9614 C.2        1 <1>        0.000
      7 C45        11.8749    1.5414   -1.4441 C.2        1 <1>        0.000
      8 C46        11.8443    2.8309   -1.8270 C.2        1 <1>        0.000
      9 C47        10.6777    3.7452   -1.8418 C.2        1 <1>        0.000
     10 O14        10.6795    4.7115   -2.5929 O.2        1 <1>        0.000
     11 N4          9.6238    3.5099   -1.0362 N.am       1 <1>        0.000
     12 H           6.5821   -2.1538   -1.2496 H.spc      1 <1>        0.000
     13 H           5.8938   -3.1762    0.1805 H.spc      1 <1>        0.000
     14 H           7.8348   -2.6776    1.4934 H.spc      1 <1>        0.000
     15 H           9.1416   -1.5057   -1.0499 H.spc      1 <1>        0.000
     16 H           9.2967   -0.5159    1.8298 H.spc      1 <1>        0.000
     17 H          11.4733    0.4904    0.9951 H.spc      1 <1>        0.000
     18 H           9.9703    0.4578   -1.6620 H.spc      1 <1>        0.000
     19 H          12.8473    1.0521   -1.4995 H.spc      1 <1>        0.000
     20 H          12.7899    3.2535   -2.1667 H.spc      1 <1>        0.000
     21 H           8.8210    4.1389   -1.0499 H.spc      1 <1>        0.000
     22 H           9.6287    2.7027   -0.4126 H.spc      1 <1>        0.000
@<TRIPOS>BOND
     1    6    7 1  
     2    3    4 2  
     3    2    3 1  
     4    9   11 am 
     5    5    6 2  
     6    9   10 2  
     7    4    5 1  
     8    7    8 2  
     9    8    9 1  
    10    1    2 2  
    11    1   12 1  
    12    1   13 1  
    13    2   14 1  
    14    3   15 1  
    15    4   16 1  
    16    5   17 1  
    17    6   18 1  
    18    7   19 1  
    19    8   20 1  
    20   11   21 1  
    21   11   22 1  
# Name:          frag3-242-3/31924
# Creation time: Sat Jun  5 12:52:36 2010


@<TRIPOS>MOLECULE
frag3-242-3/31924
   22    21     1     1     1
SMALL
USER_CHARGES


@<TRIPOS>ATOM
      1 C38         6.8808   -2.1002    1.0378 C.2        1 <1>        0.000
      2 C39         7.9875   -2.4901    0.3975 C.2        1 <1>        0.000
      3 C41         9.0854   -1.5891    0.0579 C.2        1 <1>        0.000
      4 C42         9.0134   -0.6397   -0.8914 C.2        1 <1>        0.000
      5 C43        10.1021    0.2753   -1.2231 C.2        1 <1>        0.000
      6 C44        10.9243    0.8274   -0.3119 C.2        1 <1>        0.000
      7 C45        12.0180    1.7416   -0.6452 C.2        1 <1>        0.000
      8 C46        11.9434    2.9361   -1.2672 C.2        1 <1>        0.000
      9 C47        10.7238    3.6356   -1.7387 C.2        1 <1>        0.000
     10 O14        10.7253    4.1737   -2.8378 O.2        1 <1>        0.000
     11 N4          9.6272    3.6775   -0.9585 N.am       1 <1>        0.000
     12 H           6.7621   -1.0585    1.3360 H.spc      1 <1>        0.000
     13 H           6.0971   -2.8239    1.2617 H.spc      1 <1>        0.000
     14 H           8.0753   -3.5387    0.1131 H.spc      1 <1>        0.000
     15 H          10.0208   -1.6926    0.6078 H.spc      1 <1>        0.000
     16 H           8.0818   -0.5470   -1.4497 H.spc      1 <1>        0.000
     17 H          10.2582    0.5263   -2.2723 H.spc      1 <1>        0.000
     18 H          10.7664    0.5789    0.7376 H.spc      1 <1>        0.000
     19 H          13.0170    1.4165   -0.3545 H.spc      1 <1>        0.000
     20 H          12.8900    3.4468   -1.4439 H.spc      1 <1>        0.000
     21 H           8.7891    4.1604   -1.2822 H.spc      1 <1>        0.000
     22 H           9.6346    3.2263   -0.0437 H.spc      1 <1>        0.000
@<TRIPOS>BOND
     1    6    7 1  
     2    3    4 2  
     3    2    3 1  
     4    9   11 am 
     5    5    6 2  
     6    9   10 2  
     7    4    5 1  
     8    7    8 2  
     9    8    9 1  
    10    1    2 2  
    11    1   12 1  
    12    1   13 1  
    13    2   14 1  
    14    3   15 1  
    15    4   16 1  
    16    5   17 1  
    17    6   18 1  
    18    7   19 1  
    19    8   20 1  
    20   11   21 1  
    21   11   22 1  
# Name:          frag3-242-3/31924
# Creation time: Sat Jun  5 12:52:36 2010


@<TRIPOS>MOLECULE
frag3-242-3/31924
   22    21     1     1     1
SMALL
USER_CHARGES


@<TRIPOS>ATOM
      1 C38         6.4820   -2.2224    0.5486 C.2        1 <1>        0.000
      2 C39         7.7476   -2.6385    0.6624 C.2        1 <1>        0.000
      3 C41         8.8938   -1.7287    0.7400 C.2        1 <1>        0.000
      4 C42         9.4027   -1.0774   -0.3168 C.2        1 <1>        0.000
      5 C43        10.5385   -0.1540   -0.2482 C.2        1 <1>        0.000
      6 C44        10.7126    0.8889   -1.0735 C.2        1 <1>        0.000
      7 C45        11.8510    1.8132   -0.9937 C.2        1 <1>        0.000
      8 C46        11.9054    3.1053   -1.3612 C.2        1 <1>        0.000
      9 C47        10.8132    3.9359   -1.9229 C.2        1 <1>        0.000
     10 O14        10.4982    4.9766   -1.3634 O.2        1 <1>        0.000
     11 N4         10.1861    3.5492   -3.0517 N.am       1 <1>        0.000
     12 H           6.2604   -1.1559    0.5090 H.spc      1 <1>        0.000
     13 H           5.6719   -2.9497    0.4954 H.spc      1 <1>        0.000
     14 H           7.9368   -3.7113    0.6994 H.spc      1 <1>        0.000
     15 H           9.3599   -1.5720    1.7128 H.spc      1 <1>        0.000
     16 H           8.9413   -1.2461   -1.2898 H.spc      1 <1>        0.000
     17 H          11.2898   -0.3256    0.5227 H.spc      1 <1>        0.000
     18 H           9.9656    1.0604   -1.8486 H.spc      1 <1>        0.000
     19 H          12.7713    1.3977   -0.5832 H.spc      1 <1>        0.000
     20 H          12.8671    3.6014   -1.2306 H.spc      1 <1>        0.000
     21 H           9.4427    4.1261   -3.4454 H.spc      1 <1>        0.000
     22 H          10.4549    2.6797   -3.5122 H.spc      1 <1>        0.000
@<TRIPOS>BOND
     1    6    7 1  
     2    3    4 2  
     3    2    3 1  
     4    9   11 am 
     5    5    6 2  
     6    9   10 2  
     7    4    5 1  
     8    7    8 2  
     9    8    9 1  
    10    1    2 2  
    11    1   12 1  
    12    1   13 1  
    13    2   14 1  
    14    3   15 1  
    15    4   16 1  
    16    5   17 1  
    17    6   18 1  
    18    7   19 1  
    19    8   20 1  
    20   11   21 1  
    21   11   22 1  
# Name:          frag3-242-3/31924
# Creation time: Sat Jun  5 12:52:36 2010


@<TRIPOS>MOLECULE
frag3-242-3/31924
   22    21     1     1     1
SMALL
USER_CHARGES


@<TRIPOS>ATOM
      1 C38         6.9831   -3.4472    0.6040 C.2        1 <1>        0.000
      2 C39         7.3608   -2.1717    0.7270 C.2        1 <1>        0.000
      3 C41         8.5971   -1.6317    0.1582 C.2        1 <1>        0.000
      4 C42         9.2169   -0.5330    0.6113 C.2        1 <1>        0.000
      5 C43        10.4567    0.0058    0.0497 C.2        1 <1>        0.000
      6 C44        10.5192    1.0997   -0.7255 C.2        1 <1>        0.000
      7 C45        11.7644    1.6338   -1.2890 C.2        1 <1>        0.000
      8 C46        11.9723    2.8200   -1.8895 C.2        1 <1>        0.000
      9 C47        10.9883    3.9069   -2.1104 C.2        1 <1>        0.000
     10 O14        10.2906    4.2928   -1.1854 O.2        1 <1>        0.000
     11 N4         10.8817    4.4726   -3.3308 N.am       1 <1>        0.000
     12 H           7.6092   -4.1505    0.0549 H.spc      1 <1>        0.000
     13 H           6.0488   -3.7846    1.0527 H.spc      1 <1>        0.000
     14 H           6.7117   -1.4946    1.2823 H.spc      1 <1>        0.000
     15 H           9.0417   -2.1565   -0.6874 H.spc      1 <1>        0.000
     16 H           8.7682   -0.0060    1.4534 H.spc      1 <1>        0.000
     17 H          11.3878   -0.5141    0.2753 H.spc      1 <1>        0.000
     18 H           9.5895    1.6226   -0.9499 H.spc      1 <1>        0.000
     19 H          12.6360    0.9839   -1.2109 H.spc      1 <1>        0.000
     20 H          12.9822    3.0032   -2.2564 H.spc      1 <1>        0.000
     21 H          10.2146    5.2284   -3.4861 H.spc      1 <1>        0.000
     22 H          11.4682    4.1444   -4.0981 H.spc      1 <1>        0.000
@<TRIPOS>BOND
     1    6    7 1  
     2    3    4 2  
     3    2    3 1  
     4    9   11 am 
     5    5    6 2  
     6    9   10 2  
     7    4    5 1  
     8    7    8 2  
     9    8    9 1  
    10    1    2 2  
    11    1   12 1  
    12    1   13 1  
    13    2   14 1  
    14    3   15 1  
    15    4   16 1  
    16    5   17 1  
    17    6   18 1  
    18    7   19 1  
    19    8   20 1  
    20   11   21 1  
    21   11   22 1  
# Name:          frag3-242-3/31924
# Creation time: Sat Jun  5 12:52:36 2010


@<TRIPOS>MOLECULE
frag3-242-3/31924
   22    21     1     1     1
SMALL
USER_CHARGES


@<TRIPOS>ATOM
      1 C38         7.2428   -2.7339    1.1536 C.2        1 <1>        0.000
      2 C39         7.3005   -2.0225    0.0222 C.2        1 <1>        0.000
      3 C41         8.4722   -1.2620   -0.3936 C.2        1 <1>        0.000
      4 C42         9.5123   -0.9784    0.4147 C.2        1 <1>        0.000
      5 C43        10.6903   -0.2256    0.0076 C.2        1 <1>        0.000
      6 C44        10.6543    0.8648   -0.7798 C.2        1 <1>        0.000
      7 C45        11.8332    1.6223   -1.1937 C.2        1 <1>        0.000
      8 C46        11.9030    2.8714   -1.6917 C.2        1 <1>        0.000
      9 C47        10.7792    3.8096   -1.9280 C.2        1 <1>        0.000
     10 O14         9.8600    3.4855   -2.6643 O.2        1 <1>        0.000
     11 N4         10.7833    5.0167   -1.3274 N.am       1 <1>        0.000
     12 H           8.1034   -2.7659    1.8217 H.spc      1 <1>        0.000
     13 H           6.3352   -3.2815    1.4073 H.spc      1 <1>        0.000
     14 H           6.4230   -2.0110   -0.6243 H.spc      1 <1>        0.000
     15 H           8.5094   -0.9006   -1.4213 H.spc      1 <1>        0.000
     16 H           9.4689   -1.3369    1.4432 H.spc      1 <1>        0.000
     17 H          11.6625   -0.5669    0.3631 H.spc      1 <1>        0.000
     18 H           9.6809    1.2058   -1.1324 H.spc      1 <1>        0.000
     19 H          12.7867    1.1055   -1.0844 H.spc      1 <1>        0.000
     20 H          12.8979    3.2338   -1.9503 H.spc      1 <1>        0.000
     21 H          10.0145    5.6680   -1.4862 H.spc      1 <1>        0.000
     22 H          11.5552    5.2786   -0.7142 H.spc      1 <1>        0.000
@<TRIPOS>BOND
     1    6    7 1  
     2    3    4 2  
     3    2    3 1  
     4    9   11 am 
     5    5    6 2  
     6    9   10 2  
     7    4    5 1  
     8    7    8 2  
     9    8    9 1  
    10    1    2 2  
    11    1   12 1  
    12    1   13 1  
    13    2   14 1  
    14    3   15 1  
    15    4   16 1  
    16    5   17 1  
    17    6   18 1  
    18    7   19 1  
    19    8   20 1  
    20   11   21 1  
    21   11   22 1  
# Name:          frag3-242-3/31924
# Creation time: Sat Jun  5 12:52:36 2010


@<TRIPOS>MOLECULE
frag3-242-3/31924
   22    21     1     1     1
SMALL
USER_CHARGES


@<TRIPOS>ATOM
      1 C38         7.2027   -3.3000    0.7297 C.2        1 <1>        0.000
      2 C39         7.5130   -2.0036    0.8182 C.2        1 <1>        0.000
      3 C41         8.4752   -1.3362   -0.0607 C.2        1 <1>        0.000
      4 C42         9.0268   -0.1422    0.1960 C.2        1 <1>        0.000
      5 C43         9.9997    0.5220   -0.6726 C.2        1 <1>        0.000
      6 C44        11.2134    0.9325   -0.2712 C.2        1 <1>        0.000
      7 C45        12.1838    1.5932   -1.1521 C.2        1 <1>        0.000
      8 C46        12.0102    2.7076   -1.8912 C.2        1 <1>        0.000
      9 C47        10.8034    3.5649   -1.9691 C.2        1 <1>        0.000
     10 O14        10.0375    3.6275   -1.0200 O.2        1 <1>        0.000
     11 N4         10.5654    4.2823   -3.0875 N.am       1 <1>        0.000
     12 H           7.6756   -3.9230   -0.0295 H.spc      1 <1>        0.000
     13 H           6.4766   -3.7347    1.4166 H.spc      1 <1>        0.000
     14 H           7.0219   -1.4089    1.5885 H.spc      1 <1>        0.000
     15 H           8.7611   -1.8428   -0.9825 H.spc      1 <1>        0.000
     16 H           8.7313    0.3683    1.1126 H.spc      1 <1>        0.000
     17 H           9.7210    0.6945   -1.7122 H.spc      1 <1>        0.000
     18 H          11.4942    0.7655    0.7687 H.spc      1 <1>        0.000
     19 H          13.1661    1.1253   -1.2169 H.spc      1 <1>        0.000
     20 H          12.8578    3.0144   -2.5040 H.spc      1 <1>        0.000
     21 H           9.7417    4.8813   -3.1435 H.spc      1 <1>        0.000
     22 H          11.2092    4.2254   -3.8766 H.spc      1 <1>        0.000
@<TRIPOS>BOND
     1    6    7 1  
     2    3    4 2  
     3    2    3 1  
     4    9   11 am 
     5    5    6 2  
     6    9   10 2  
     7    4    5 1  
     8    7    8 2  
     9    8    9 1  
    10    1    2 2  
    11    1   12 1  
    12    1   13 1  
    13    2   14 1  
    14    3   15 1  
    15    4   16 1  
    16    5   17 1  
    17    6   18 1  
    18    7   19 1  
    19    8   20 1  
    20   11   21 1  
    21   11   22 1  
# Name:          frag3-242-3/31924
# Creation time: Sat Jun  5 12:52:36 2010


@<TRIPOS>MOLECULE
frag3-242-3/31924
   22    21     1     1     1
SMALL
USER_CHARGES


@<TRIPOS>ATOM
      1 C38         6.9328   -1.9323    1.3781 C.2        1 <1>        0.000
      2 C39         7.6095   -2.4897    0.3675 C.2        1 <1>        0.000
      3 C41         8.6094   -1.7756   -0.4247 C.2        1 <1>        0.000
      4 C42         9.3348   -0.7440    0.0395 C.2        1 <1>        0.000
      5 C43        10.3418   -0.0236   -0.7358 C.2        1 <1>        0.000
      6 C44        11.0683    1.0032   -0.2697 C.2        1 <1>        0.000
      7 C45        12.0758    1.7187   -1.0581 C.2        1 <1>        0.000
      8 C46        11.9274    2.8509   -1.7743 C.2        1 <1>        0.000
      9 C47        10.7064    3.6799   -1.9120 C.2        1 <1>        0.000
     10 O14         9.6417    3.2784   -1.4697 O.2        1 <1>        0.000
     11 N4         10.7831    4.8822   -2.5212 N.am       1 <1>        0.000
     12 H           7.1154   -0.8922    1.6482 H.spc      1 <1>        0.000
     13 H           6.1989   -2.5183    1.9314 H.spc      1 <1>        0.000
     14 H           7.4044   -3.5316    0.1217 H.spc      1 <1>        0.000
     15 H           8.7763   -2.0989   -1.4522 H.spc      1 <1>        0.000
     16 H           9.1596   -0.4223    1.0661 H.spc      1 <1>        0.000
     17 H          10.5147   -0.3424   -1.7637 H.spc      1 <1>        0.000
     18 H          10.8991    1.3251    0.7579 H.spc      1 <1>        0.000
     19 H          13.0730    1.2787   -1.0663 H.spc      1 <1>        0.000
     20 H          12.8080    3.1972   -2.3153 H.spc      1 <1>        0.000
     21 H           9.9484    5.4610   -2.6141 H.spc      1 <1>        0.000
     22 H          11.6758    5.2118   -2.8886 H.spc      1 <1>        0.000
@<TRIPOS>BOND
     1    6    7 1  
     2    3    4 2  
     3    2    3 1  
     4    9   11 am 
     5    5    6 2  
     6    9   10 2  
     7    4    5 1  
     8    7    8 2  
     9    8    9 1  
    10    1    2 2  
    11    1   12 1  
    12    1   13 1  
    13    2   14 1  
    14    3   15 1  
    15    4   16 1  
    16    5   17 1  
    17    6   18 1  
    18    7   19 1  
    19    8   20 1  
    20   11   21 1  
    21   11   22 1  
# Name:          frag3-242-3/31924
# Creation time: Sat Jun  5 12:52:36 2010


@<TRIPOS>MOLECULE
frag3-242-3/31924
   22    21     1     1     1
SMALL
USER_CHARGES


@<TRIPOS>ATOM
      1 C38         7.6536   -2.8424    1.0389 C.2        1 <1>        0.000
      2 C39         7.3569   -1.5933    0.6654 C.2        1 <1>        0.000
      3 C41         8.3563   -0.6166    0.2459 C.2        1 <1>        0.000
      4 C42         9.2477   -0.8273   -0.7397 C.2        1 <1>        0.000
      5 C43        10.2505    0.1419   -1.1647 C.2        1 <1>        0.000
      6 C44        11.1502    0.7088   -0.3397 C.2        1 <1>        0.000
      7 C45        12.1509    1.6867   -0.7671 C.2        1 <1>        0.000
      8 C46        11.9514    2.8531   -1.4177 C.2        1 <1>        0.000
      9 C47        10.6564    3.4490   -1.8268 C.2        1 <1>        0.000
     10 O14         9.6197    3.0824   -1.2970 O.2        1 <1>        0.000
     11 N4         10.6376    4.4057   -2.7780 N.am       1 <1>        0.000
     12 H           8.6903   -3.1790    1.0405 H.spc      1 <1>        0.000
     13 H           6.8588   -3.5240    1.3417 H.spc      1 <1>        0.000
     14 H           6.3106   -1.2878    0.6748 H.spc      1 <1>        0.000
     15 H           8.3824    0.3427    0.7627 H.spc      1 <1>        0.000
     16 H           9.2181   -1.7873   -1.2551 H.spc      1 <1>        0.000
     17 H          10.2730    0.4253   -2.2170 H.spc      1 <1>        0.000
     18 H          11.1322    0.4216    0.7116 H.spc      1 <1>        0.000
     19 H          13.1868    1.4434   -0.5309 H.spc      1 <1>        0.000
     20 H          12.8455    3.4225   -1.6715 H.spc      1 <1>        0.000
     21 H           9.7527    4.8281   -3.0591 H.spc      1 <1>        0.000
     22 H          11.5083    4.7066   -3.2160 H.spc      1 <1>        0.000
@<TRIPOS>BOND
     1    6    7 1  
     2    3    4 2  
     3    2    3 1  
     4    9   11 am 
     5    5    6 2  
     6    9   10 2  
     7    4    5 1  
     8    7    8 2  
     9    8    9 1  
    10    1    2 2  
    11    1   12 1  
    12    1   13 1  
    13    2   14 1  
    14    3   15 1  
    15    4   16 1  
    16    5   17 1  
    17    6   18 1  
    18    7   19 1  
    19    8   20 1  
    20   11   21 1  
    21   11   22 1  
# Name:          frag3-242-3/31924
# Creation time: Sat Jun  5 12:52:36 2010


@<TRIPOS>MOLECULE
frag3-242-3/31924
   22    21     1     1     1
SMALL
USER_CHARGES


@<TRIPOS>ATOM
      1 C38         6.9387   -2.7713   -0.2191 C.2        1 <1>        0.000
      2 C39         7.8277   -2.1017    0.5189 C.2        1 <1>        0.000
      3 C41         8.7817   -1.1414   -0.0288 C.2        1 <1>        0.000
      4 C42         9.3269   -0.1325    0.6684 C.2        1 <1>        0.000
      5 C43        10.2873    0.8212    0.1221 C.2        1 <1>        0.000
      6 C44        11.1712    0.5260   -0.8496 C.2        1 <1>        0.000
      7 C45        12.1283    1.4851   -1.4039 C.2        1 <1>        0.000
      8 C46        11.8953    2.7484   -1.8132 C.2        1 <1>        0.000
      9 C47        10.6095    3.4871   -1.7899 C.2        1 <1>        0.000
     10 O14        10.6172    4.7024   -1.6451 O.2        1 <1>        0.000
     11 N4          9.4473    2.8248   -1.9403 N.am       1 <1>        0.000
     12 H           6.8968   -2.6146   -1.2970 H.spc      1 <1>        0.000
     13 H           6.2550   -3.4745    0.2564 H.spc      1 <1>        0.000
     14 H           7.8421   -2.2827    1.5937 H.spc      1 <1>        0.000
     15 H           9.0704   -1.2514   -1.0741 H.spc      1 <1>        0.000
     16 H           9.0330   -0.0177    1.7117 H.spc      1 <1>        0.000
     17 H          10.2890    1.8339    0.5253 H.spc      1 <1>        0.000
     18 H          11.1744   -0.4887   -1.2477 H.spc      1 <1>        0.000
     19 H          13.1562    1.1346   -1.4972 H.spc      1 <1>        0.000
     20 H          12.7540    3.2913   -2.2082 H.spc      1 <1>        0.000
     21 H           8.5646    3.3358   -1.9341 H.spc      1 <1>        0.000
     22 H           9.4494    1.8119   -2.0605 H.spc      1 <1>        0.000
@<TRIPOS>BOND
     1    6    7 1  
     2    3    4 2  
     3    2    3 1  
     4    9   11 am 
     5    5    6 2  
     6    9   10 2  
     7    4    5 1  
     8    7    8 2  
     9    8    9 1  
    10    1    2 2  
    11    1   12 1  
    12    1   13 1  
    13    2   14 1  
    14    3   15 1  
    15    4   16 1  
    16    5   17 1  
    17    6   18 1  
    18    7   19 1  
    19    8   20 1  
    20   11   21 1  
    21   11   22 1  
# Name:          frag3-242-3/31924
# Creation time: Sat Jun  5 12:52:36 2010


@<TRIPOS>MOLECULE
frag3-242-3/31924
   22    21     1     1     1
SMALL
USER_CHARGES


@<TRIPOS>ATOM
      1 C38         7.5656   -3.0711    1.3418 C.2        1 <1>        0.000
      2 C39         7.5599   -2.1039    0.4217 C.2        1 <1>        0.000
      3 C41         8.7185   -1.2813    0.0954 C.2        1 <1>        0.000
      4 C42         8.7505   -0.3635   -0.8835 C.2        1 <1>        0.000
      5 C43         9.9081    0.4642   -1.2000 C.2        1 <1>        0.000
      6 C44        10.8380    0.8368   -0.3001 C.2        1 <1>        0.000
      7 C45        12.0006    1.6635   -0.6183 C.2        1 <1>        0.000
      8 C46        12.0303    2.8320   -1.2919 C.2        1 <1>        0.000
      9 C47        10.8800    3.5840   -1.8496 C.2        1 <1>        0.000
     10 O14        10.3528    3.2070   -2.8859 O.2        1 <1>        0.000
     11 N4         10.4271    4.6803   -1.2100 N.am       1 <1>        0.000
     12 H           8.4759   -3.2851    1.9019 H.spc      1 <1>        0.000
     13 H           6.6600   -3.6468    1.5330 H.spc      1 <1>        0.000
     14 H           6.6319   -1.9177   -0.1189 H.spc      1 <1>        0.000
     15 H           9.6224   -1.4215    0.6881 H.spc      1 <1>        0.000
     16 H           7.8499   -0.2278   -1.4824 H.spc      1 <1>        0.000
     17 H          10.0284    0.8025   -2.2292 H.spc      1 <1>        0.000
     18 H          10.7161    0.5010    0.7297 H.spc      1 <1>        0.000
     19 H          12.9627    1.2896   -0.2680 H.spc      1 <1>        0.000
     20 H          13.0145    3.2751   -1.4440 H.spc      1 <1>        0.000
     21 H           9.6380    5.2030   -1.5901 H.spc      1 <1>        0.000
     22 H          10.8734    4.9874   -0.3457 H.spc      1 <1>        0.000
@<TRIPOS>BOND
     1    6    7 1  
     2    3    4 2  
     3    2    3 1  
     4    9   11 am 
     5    5    6 2  
     6    9   10 2  
     7    4    5 1  
     8    7    8 2  
     9    8    9 1  
    10    1    2 2  
    11    1   12 1  
    12    1   13 1  
    13    2   14 1  
    14    3   15 1  
    15    4   16 1  
    16    5   17 1  
    17    6   18 1  
    18    7   19 1  
    19    8   20 1  
    20   11   21 1  
    21   11   22 1  
# Name:          frag3-242-3/31924
# Creation time: Sat Jun  5 12:52:36 2010


@<TRIPOS>MOLECULE
frag3-242-3/31924
   22    21     1     1     1
SMALL
USER_CHARGES


@<TRIPOS>ATOM
      1 C38         7.2851   -2.5208    1.1797 C.2        1 <1>        0.000
      2 C39         7.3155   -1.8814    0.0053 C.2        1 <1>        0.000
      3 C41         8.4090   -1.0038   -0.4073 C.2        1 <1>        0.000
      4 C42         9.7103   -1.2903   -0.2221 C.2        1 <1>        0.000
      5 C43        10.8099   -0.4198   -0.6326 C.2        1 <1>        0.000
      6 C44        10.8354    0.9079   -0.4220 C.2        1 <1>        0.000
      7 C45        11.9350    1.7821   -0.8381 C.2        1 <1>        0.000
      8 C46        11.8681    2.9859   -1.4349 C.2        1 <1>        0.000
      9 C47        10.6503    3.7504   -1.7964 C.2        1 <1>        0.000
     10 O14        10.5794    4.2880   -2.8932 O.2        1 <1>        0.000
     11 N4          9.6331    3.8501   -0.9189 N.am       1 <1>        0.000
     12 H           8.1054   -2.4003    1.8872 H.spc      1 <1>        0.000
     13 H           6.4400   -3.1624    1.4292 H.spc      1 <1>        0.000
     14 H           6.4802   -2.0223   -0.6806 H.spc      1 <1>        0.000
     15 H           8.1552   -0.0619   -0.8936 H.spc      1 <1>        0.000
     16 H           9.9606   -2.2324    0.2656 H.spc      1 <1>        0.000
     17 H          11.6608   -0.8742   -1.1401 H.spc      1 <1>        0.000
     18 H           9.9864    1.3614    0.0894 H.spc      1 <1>        0.000
     19 H          12.9390    1.4080   -0.6378 H.spc      1 <1>        0.000
     20 H          12.8210    3.4541   -1.6816 H.spc      1 <1>        0.000
     21 H           8.7955    4.3769   -1.1667 H.spc      1 <1>        0.000
     22 H           9.7004    3.3988   -0.0066 H.spc      1 <1>        0.000
@<TRIPOS>BOND
     1    6    7 1  
     2    3    4 2  
     3    2    3 1  
     4    9   11 am 
     5    5    6 2  
     6    9   10 2  
     7    4    5 1  
     8    7    8 2  
     9    8    9 1  
    10    1    2 2  
    11    1   12 1  
    12    1   13 1  
    13    2   14 1  
    14    3   15 1  
    15    4   16 1  
    16    5   17 1  
    17    6   18 1  
    18    7   19 1  
    19    8   20 1  
    20   11   21 1  
    21   11   22 1  
# Name:          frag3-242-3/31924
# Creation time: Sat Jun  5 12:52:36 2010


@<TRIPOS>MOLECULE
frag3-242-3/31924
   22    21     1     1     1
SMALL
USER_CHARGES


@<TRIPOS>ATOM
      1 C38         7.2603   -2.1246    1.4175 C.2        1 <1>        0.000
      2 C39         7.4703   -2.2205    0.0999 C.2        1 <1>        0.000
      3 C41         8.3515   -1.3244   -0.6441 C.2        1 <1>        0.000
      4 C42         9.4079   -0.6924   -0.1043 C.2        1 <1>        0.000
      5 C43        10.3022    0.2008   -0.8325 C.2        1 <1>        0.000
      6 C44        11.3585    0.8288   -0.2936 C.2        1 <1>        0.000
      7 C45        12.2479    1.7227   -1.0374 C.2        1 <1>        0.000
      8 C46        11.9319    2.8653   -1.6827 C.2        1 <1>        0.000
      9 C47        10.6023    3.5167   -1.7659 C.2        1 <1>        0.000
     10 O14         9.7230    3.0173   -2.4517 O.2        1 <1>        0.000
     11 N4         10.3754    4.6585   -1.0858 N.am       1 <1>        0.000
     12 H           7.7598   -1.3458    1.9937 H.spc      1 <1>        0.000
     13 H           6.5897   -2.8253    1.9149 H.spc      1 <1>        0.000
     14 H           6.9560   -3.0100   -0.4480 H.spc      1 <1>        0.000
     15 H           8.1398   -1.1582   -1.7003 H.spc      1 <1>        0.000
     16 H           9.6109   -0.8593    0.9535 H.spc      1 <1>        0.000
     17 H          10.0979    0.3702   -1.8897 H.spc      1 <1>        0.000
     18 H          11.5673    0.6631    0.7633 H.spc      1 <1>        0.000
     19 H          13.2968    1.4286   -1.0747 H.spc      1 <1>        0.000
     20 H          12.7481    3.3670   -2.2026 H.spc      1 <1>        0.000
     21 H           9.4637    5.1126   -1.1413 H.spc      1 <1>        0.000
     22 H          11.1154    5.0682   -0.5158 H.spc      1 <1>        0.000
@<TRIPOS>BOND
     1    6    7 1  
     2    3    4 2  
     3    2    3 1  
     4    9   11 am 
     5    5    6 2  
     6    9   10 2  
     7    4    5 1  
     8    7    8 2  
     9    8    9 1  
    10    1    2 2  
    11    1   12 1  
    12    1   13 1  
    13    2   14 1  
    14    3   15 1  
    15    4   16 1  
    16    5   17 1  
    17    6   18 1  
    18    7   19 1  
    19    8   20 1  
    20   11   21 1  
    21   11   22 1  
# Name:          frag3-242-3/31924
# Creation time: Sat Jun  5 12:52:36 2010


@<TRIPOS>MOLECULE
frag3-242-3/31924
   22    21     1     1     1
SMALL
USER_CHARGES


@<TRIPOS>ATOM
      1 C38         6.6917   -2.9565    0.5748 C.2        1 <1>        0.000
      2 C39         7.6269   -2.0624    0.9069 C.2        1 <1>        0.000
      3 C41         8.4504   -1.3461   -0.0678 C.2        1 <1>        0.000
      4 C42         9.4013   -0.4593    0.2550 C.2        1 <1>        0.000
      5 C43        10.2345    0.2522   -0.7144 C.2        1 <1>        0.000
      6 C44        11.3603    0.9135   -0.4050 C.2        1 <1>        0.000
      7 C45        12.1881    1.6216   -1.3872 C.2        1 <1>        0.000
      8 C46        11.9119    2.7720   -2.0345 C.2        1 <1>        0.000
      9 C47        10.7110    3.6281   -1.8844 C.2        1 <1>        0.000
     10 O14         9.5971    3.1327   -1.9560 O.2        1 <1>        0.000
     11 N4         10.8579    4.9521   -1.6680 N.am       1 <1>        0.000
     12 H           6.5071   -3.1881   -0.4742 H.spc      1 <1>        0.000
     13 H           6.1131   -3.4545    1.3528 H.spc      1 <1>        0.000
     14 H           7.7858   -1.8544    1.9650 H.spc      1 <1>        0.000
     15 H           8.2790   -1.5471   -1.1253 H.spc      1 <1>        0.000
     16 H           9.5655   -0.2538    1.3128 H.spc      1 <1>        0.000
     17 H           9.9197    0.2446   -1.7579 H.spc      1 <1>        0.000
     18 H          11.6783    0.9252    0.6375 H.spc      1 <1>        0.000
     19 H          13.1469    1.1601   -1.6236 H.spc      1 <1>        0.000
     20 H          12.6589    3.1120   -2.7518 H.spc      1 <1>        0.000
     21 H          10.0353    5.5461   -1.5631 H.spc      1 <1>        0.000
     22 H          11.7915    5.3588   -1.6094 H.spc      1 <1>        0.000
@<TRIPOS>BOND
     1    6    7 1  
     2    3    4 2  
     3    2    3 1  
     4    9   11 am 
     5    5    6 2  
     6    9   10 2  
     7    4    5 1  
     8    7    8 2  
     9    8    9 1  
    10    1    2 2  
    11    1   12 1  
    12    1   13 1  
    13    2   14 1  
    14    3   15 1  
    15    4   16 1  
    16    5   17 1  
    17    6   18 1  
    18    7   19 1  
    19    8   20 1  
    20   11   21 1  
    21   11   22 1  
# Name:          frag3-242-3/31924
# Creation time: Sat Jun  5 12:52:36 2010


@<TRIPOS>MOLECULE
frag3-242-3/31924
   22    21     1     1     1
SMALL
USER_CHARGES


@<TRIPOS>ATOM
      1 C38         7.1335   -2.6564   -0.1320 C.2        1 <1>        0.000
      2 C39         7.4860   -1.7987    0.8314 C.2        1 <1>        0.000
      3 C41         8.3447   -0.6378    0.6060 C.2        1 <1>        0.000
      4 C42         9.5979   -0.7129    0.1286 C.2        1 <1>        0.000
      5 C43        10.4615    0.4385   -0.1170 C.2        1 <1>        0.000
      6 C44        11.4188    0.4845   -1.0568 C.2        1 <1>        0.000
      7 C45        12.2731    1.6499   -1.3002 C.2        1 <1>        0.000
      8 C46        11.8986    2.9013   -1.6392 C.2        1 <1>        0.000
      9 C47        10.5206    3.4108   -1.8364 C.2        1 <1>        0.000
     10 O14         9.5632    2.6819   -1.6310 O.2        1 <1>        0.000
     11 N4         10.3333    4.6870   -2.2339 N.am       1 <1>        0.000
     12 H           7.4904   -2.5080   -1.1512 H.spc      1 <1>        0.000
     13 H           6.4893   -3.5040    0.1019 H.spc      1 <1>        0.000
     14 H           7.1124   -1.9750    1.8401 H.spc      1 <1>        0.000
     15 H           7.9439    0.3486    0.8394 H.spc      1 <1>        0.000
     16 H           9.9982   -1.7027   -0.0908 H.spc      1 <1>        0.000
     17 H          10.3190    1.3216    0.5058 H.spc      1 <1>        0.000
     18 H          11.5699   -0.3991   -1.6769 H.spc      1 <1>        0.000
     19 H          13.3454    1.4854   -1.1942 H.spc      1 <1>        0.000
     20 H          12.7035    3.6217   -1.7851 H.spc      1 <1>        0.000
     21 H           9.3879    5.0471   -2.3642 H.spc      1 <1>        0.000
     22 H          11.1372    5.2914   -2.4040 H.spc      1 <1>        0.000
@<TRIPOS>BOND
     1    6    7 1  
     2    3    4 2  
     3    2    3 1  
     4    9   11 am 
     5    5    6 2  
     6    9   10 2  
     7    4    5 1  
     8    7    8 2  
     9    8    9 1  
    10    1    2 2  
    11    1   12 1  
    12    1   13 1  
    13    2   14 1  
    14    3   15 1  
    15    4   16 1  
    16    5   17 1  
    17    6   18 1  
    18    7   19 1  
    19    8   20 1  
    20   11   21 1  
    21   11   22 1  
# Name:          frag3-242-3/31924
# Creation time: Sat Jun  5 12:52:36 2010


@<TRIPOS>MOLECULE
frag3-242-3/31924
   22    21     1     1     1
SMALL
USER_CHARGES


@<TRIPOS>ATOM
      1 C38         7.0752   -2.2575    1.5402 C.2        1 <1>        0.000
      2 C39         7.7398   -2.1133    0.3911 C.2        1 <1>        0.000
      3 C41         8.7333   -1.0723    0.1493 C.2        1 <1>        0.000
      4 C42         9.2003   -0.7339   -1.0627 C.2        1 <1>        0.000
      5 C43        10.1878    0.3134   -1.3021 C.2        1 <1>        0.000
      6 C44        11.1296    0.6781   -0.4118 C.2        1 <1>        0.000
      7 C45        12.1179    1.7296   -0.6515 C.2        1 <1>        0.000
      8 C46        11.9284    2.9318   -1.2364 C.2        1 <1>        0.000
      9 C47        10.6573    3.4960   -1.7505 C.2        1 <1>        0.000
     10 O14         9.8141    3.9056   -0.9660 O.2        1 <1>        0.000
     11 N4         10.4475    3.5705   -3.0801 N.am       1 <1>        0.000
     12 H           7.2624   -1.5731    2.3676 H.spc      1 <1>        0.000
     13 H           6.3455   -3.0596    1.6508 H.spc      1 <1>        0.000
     14 H           7.5274   -2.8156   -0.4150 H.spc      1 <1>        0.000
     15 H           9.1230   -0.5324    1.0123 H.spc      1 <1>        0.000
     16 H           8.8163   -1.2777   -1.9258 H.spc      1 <1>        0.000
     17 H          10.1613    0.8322   -2.2604 H.spc      1 <1>        0.000
     18 H          11.1574    0.1582    0.5458 H.spc      1 <1>        0.000
     19 H          13.1330    1.5162   -0.3165 H.spc      1 <1>        0.000
     20 H          12.8125    3.5604   -1.3430 H.spc      1 <1>        0.000
     21 H           9.5803    3.9708   -3.4379 H.spc      1 <1>        0.000
     22 H          11.1560    3.2265   -3.7283 H.spc      1 <1>        0.000
@<TRIPOS>BOND
     1    6    7 1  
     2    3    4 2  
     3    2    3 1  
     4    9   11 am 
     5    5    6 2  
     6    9   10 2  
     7    4    5 1  
     8    7    8 2  
     9    8    9 1  
    10    1    2 2  
    11    1   12 1  
    12    1   13 1  
    13    2   14 1  
    14    3   15 1  
    15    4   16 1  
    16    5   17 1  
    17    6   18 1  
    18    7   19 1  
    19    8   20 1  
    20   11   21 1  
    21   11   22 1  
# Name:          frag3-242-3/31924
# Creation time: Sat Jun  5 12:52:36 2010


@<TRIPOS>MOLECULE
frag3-242-3/31924
   22    21     1     1     1
SMALL
USER_CHARGES


@<TRIPOS>ATOM
      1 C38         7.1568   -2.6871    1.6642 C.2        1 <1>        0.000
      2 C39         7.4702   -2.1107    0.5009 C.2        1 <1>        0.000
      3 C41         8.6787   -1.3178    0.2849 C.2        1 <1>        0.000
      4 C42         9.1586   -0.9833   -0.9226 C.2        1 <1>        0.000
      5 C43        10.3622   -0.1819   -1.1371 C.2        1 <1>        0.000
      6 C44        10.6333    0.9573   -0.4759 C.2        1 <1>        0.000
      7 C45        11.8413    1.7590   -0.6880 C.2        1 <1>        0.000
      8 C46        11.9578    2.9485   -1.3104 C.2        1 <1>        0.000
      9 C47        10.8751    3.7654   -1.9082 C.2        1 <1>        0.000
     10 O14         9.7188    3.6021   -1.5511 O.2        1 <1>        0.000
     11 N4         11.1783    4.6965   -2.8372 N.am       1 <1>        0.000
     12 H           7.8202   -2.5789    2.5223 H.spc      1 <1>        0.000
     13 H           6.2376   -3.2658    1.7556 H.spc      1 <1>        0.000
     14 H           6.7844   -2.2392   -0.3365 H.spc      1 <1>        0.000
     15 H           9.2265   -0.9755    1.1629 H.spc      1 <1>        0.000
     16 H           8.6155   -1.3319   -1.8010 H.spc      1 <1>        0.000
     17 H          11.0832   -0.5285   -1.8774 H.spc      1 <1>        0.000
     18 H           9.9108    1.3053    0.2624 H.spc      1 <1>        0.000
     19 H          12.7653    1.3388   -0.2909 H.spc      1 <1>        0.000
     20 H          12.9656    3.3575   -1.3826 H.spc      1 <1>        0.000
     21 H          10.4395    5.2690   -3.2455 H.spc      1 <1>        0.000
     22 H          12.1463    4.8276   -3.1309 H.spc      1 <1>        0.000
@<TRIPOS>BOND
     1    6    7 1  
     2    3    4 2  
     3    2    3 1  
     4    9   11 am 
     5    5    6 2  
     6    9   10 2  
     7    4    5 1  
     8    7    8 2  
     9    8    9 1  
    10    1    2 2  
    11    1   12 1  
    12    1   13 1  
    13    2   14 1  
    14    3   15 1  
    15    4   16 1  
    16    5   17 1  
    17    6   18 1  
    18    7   19 1  
    19    8   20 1  
    20   11   21 1  
    21   11   22 1  
# Name:          frag3-242-3/31924
# Creation time: Sat Jun  5 12:52:36 2010


@<TRIPOS>MOLECULE
frag3-242-3/31924
   22    21     1     1     1
SMALL
USER_CHARGES


@<TRIPOS>ATOM
      1 C38         6.7660   -2.3234    0.1662 C.2        1 <1>        0.000
      2 C39         7.9946   -2.4603    0.6758 C.2        1 <1>        0.000
      3 C41         9.1019   -1.5627    0.3670 C.2        1 <1>        0.000
      4 C42         9.0152   -0.2200    0.4027 C.2        1 <1>        0.000
      5 C43        10.1161    0.6846    0.0954 C.2        1 <1>        0.000
      6 C44        10.9015    0.5761   -0.9916 C.2        1 <1>        0.000
      7 C45        12.0066    1.4829   -1.2994 C.2        1 <1>        0.000
      8 C46        11.9436    2.7668   -1.7085 C.2        1 <1>        0.000
      9 C47        10.7273    3.5847   -1.9335 C.2        1 <1>        0.000
     10 O14         9.8476    3.6146   -1.0867 O.2        1 <1>        0.000
     11 N4         10.6108    4.3049   -3.0678 N.am       1 <1>        0.000
     12 H           6.5490   -1.5055   -0.5209 H.spc      1 <1>        0.000
     13 H           5.9815   -3.0297    0.4379 H.spc      1 <1>        0.000
     14 H           8.1788   -3.2886    1.3599 H.spc      1 <1>        0.000
     15 H          10.0583   -2.0064    0.0903 H.spc      1 <1>        0.000
     16 H           8.0575    0.2205    0.6800 H.spc      1 <1>        0.000
     17 H          10.3156    1.5005    0.7901 H.spc      1 <1>        0.000
     18 H          10.7014   -0.2393   -1.6867 H.spc      1 <1>        0.000
     19 H          13.0083    1.0689   -1.1836 H.spc      1 <1>        0.000
     20 H          12.8974    3.2603   -1.8953 H.spc      1 <1>        0.000
     21 H           9.7832    4.8804   -3.2238 H.spc      1 <1>        0.000
     22 H          11.3503    4.2741   -3.7697 H.spc      1 <1>        0.000
@<TRIPOS>BOND
     1    6    7 1  
     2    3    4 2  
     3    2    3 1  
     4    9   11 am 
     5    5    6 2  
     6    9   10 2  
     7    4    5 1  
     8    7    8 2  
     9    8    9 1  
    10    1    2 2  
    11    1   12 1  
    12    1   13 1  
    13    2   14 1  
    14    3   15 1  
    15    4   16 1  
    16    5   17 1  
    17    6   18 1  
    18    7   19 1  
    19    8   20 1  
    20   11   21 1  
    21   11   22 1  
# Name:          frag3-242-3/31924
# Creation time: Sat Jun  5 12:52:36 2010


@<TRIPOS>MOLECULE
frag3-242-3/31924
   22    21     1     1     1
SMALL
USER_CHARGES


@<TRIPOS>ATOM
      1 C38         6.7528   -1.9179    1.1161 C.2        1 <1>        0.000
      2 C39         7.6991   -2.3335    0.2680 C.2        1 <1>        0.000
      3 C41         8.5393   -1.4249   -0.5146 C.2        1 <1>        0.000
      4 C42         9.5908   -0.7595   -0.0129 C.2        1 <1>        0.000
      5 C43        10.4395    0.1488   -0.7860 C.2        1 <1>        0.000
      6 C44        11.4156    0.9038   -0.2595 C.2        1 <1>        0.000
      7 C45        12.2594    1.8112   -1.0456 C.2        1 <1>        0.000
      8 C46        11.8905    2.9277   -1.7026 C.2        1 <1>        0.000
      9 C47        10.5417    3.5402   -1.7661 C.2        1 <1>        0.000
     10 O14        10.2579    4.4563   -1.0082 O.2        1 <1>        0.000
     11 N4          9.6446    3.0958   -2.6691 N.am       1 <1>        0.000
     12 H           6.5742   -0.8514    1.2533 H.spc      1 <1>        0.000
     13 H           6.1599   -2.6455    1.6703 H.spc      1 <1>        0.000
     14 H           7.8534   -3.4064    0.1530 H.spc      1 <1>        0.000
     15 H           8.2961   -1.2805   -1.5673 H.spc      1 <1>        0.000
     16 H           9.8290   -0.9050    1.0408 H.spc      1 <1>        0.000
     17 H          10.2671    0.2162   -1.8602 H.spc      1 <1>        0.000
     18 H          11.5920    0.8395    0.8142 H.spc      1 <1>        0.000
     19 H          13.3158    1.5492   -1.1053 H.spc      1 <1>        0.000
     20 H          12.6777    3.4425   -2.2535 H.spc      1 <1>        0.000
     21 H           8.7207    3.5245   -2.7237 H.spc      1 <1>        0.000
     22 H           9.8898    2.3309   -3.2977 H.spc      1 <1>        0.000
@<TRIPOS>BOND
     1    6    7 1  
     2    3    4 2  
     3    2    3 1  
     4    9   11 am 
     5    5    6 2  
     6    9   10 2  
     7    4    5 1  
     8    7    8 2  
     9    8    9 1  
    10    1    2 2  
    11    1   12 1  
    12    1   13 1  
    13    2   14 1  
    14    3   15 1  
    15    4   16 1  
    16    5   17 1  
    17    6   18 1  
    18    7   19 1  
    19    8   20 1  
    20   11   21 1  
    21   11   22 1  
# Name:          frag3-242-3/31924
# Creation time: Sat Jun  5 12:52:36 2010


@<TRIPOS>MOLECULE
frag3-242-3/31924
   22    21     1     1     1
SMALL
USER_CHARGES


@<TRIPOS>ATOM
      1 C38         7.4716   -3.0543   -0.0080 C.2        1 <1>        0.000
      2 C39         7.3669   -1.7523    0.2763 C.2        1 <1>        0.000
      3 C41         8.3730   -0.7589   -0.0989 C.2        1 <1>        0.000
      4 C42         9.5008   -0.5342    0.5957 C.2        1 <1>        0.000
      5 C43        10.5181    0.4456    0.2153 C.2        1 <1>        0.000
      6 C44        11.0687    0.5185   -1.0090 C.2        1 <1>        0.000
      7 C45        12.0818    1.5069   -1.3915 C.2        1 <1>        0.000
      8 C46        11.9003    2.8007   -1.7204 C.2        1 <1>        0.000
      9 C47        10.6240    3.5531   -1.7651 C.2        1 <1>        0.000
     10 O14        10.3437    4.2067   -2.7610 O.2        1 <1>        0.000
     11 N4          9.7823    3.5164   -0.7138 N.am       1 <1>        0.000
     12 H           8.3426   -3.4260   -0.5478 H.spc      1 <1>        0.000
     13 H           6.6860   -3.7443    0.2999 H.spc      1 <1>        0.000
     14 H           6.4837   -1.4124    0.8172 H.spc      1 <1>        0.000
     15 H           8.1971   -0.1653   -0.9960 H.spc      1 <1>        0.000
     16 H           9.6684   -1.1191    1.5001 H.spc      1 <1>        0.000
     17 H          10.8496    1.1593    0.9696 H.spc      1 <1>        0.000
     18 H          10.7427   -0.1995   -1.7616 H.spc      1 <1>        0.000
     19 H          13.1115    1.1500   -1.4124 H.spc      1 <1>        0.000
     20 H          12.7977    3.3601   -1.9848 H.spc      1 <1>        0.000
     21 H           8.9048    4.0355   -0.7446 H.spc      1 <1>        0.000
     22 H          10.0225    2.9695    0.1130 H.spc      1 <1>        0.000
@<TRIPOS>BOND
     1    6    7 1  
     2    3    4 2  
     3    2    3 1  
     4    9   11 am 
     5    5    6 2  
     6    9   10 2  
     7    4    5 1  
     8    7    8 2  
     9    8    9 1  
    10    1    2 2  
    11    1   12 1  
    12    1   13 1  
    13    2   14 1  
    14    3   15 1  
    15    4   16 1  
    16    5   17 1  
    17    6   18 1  
    18    7   19 1  
    19    8   20 1  
    20   11   21 1  
    21   11   22 1  
# Name:          frag3-242-3/31924
# Creation time: Sat Jun  5 12:52:36 2010


@<TRIPOS>MOLECULE
frag3-242-3/31924
   22    21     1     1     1
SMALL
USER_CHARGES


@<TRIPOS>ATOM
      1 C38         6.8729   -2.2682    0.9130 C.2        1 <1>        0.000
      2 C39         7.6424   -2.0994   -0.1672 C.2        1 <1>        0.000
      3 C41         8.4753   -0.9152   -0.3899 C.2        1 <1>        0.000
      4 C42         9.6688   -0.7205    0.1927 C.2        1 <1>        0.000
      5 C43        10.5110    0.4562   -0.0300 C.2        1 <1>        0.000
      6 C44        11.4481    0.5391   -0.9890 C.2        1 <1>        0.000
      7 C45        12.2817    1.7267   -1.2138 C.2        1 <1>        0.000
      8 C46        11.8806    2.9776   -1.5128 C.2        1 <1>        0.000
      9 C47        10.4921    3.4724   -1.6727 C.2        1 <1>        0.000
     10 O14        10.2647    4.6701   -1.5680 O.2        1 <1>        0.000
     11 N4          9.4936    2.6092   -1.9427 N.am       1 <1>        0.000
     12 H           6.8432   -1.5006    1.6863 H.spc      1 <1>        0.000
     13 H           6.2753   -3.1734    1.0203 H.spc      1 <1>        0.000
     14 H           7.6504   -2.8851   -0.9227 H.spc      1 <1>        0.000
     15 H           8.1042   -0.1471   -1.0685 H.spc      1 <1>        0.000
     16 H          10.0344   -1.4876    0.8753 H.spc      1 <1>        0.000
     17 H          10.3690    1.3178    0.6223 H.spc      1 <1>        0.000
     18 H          11.5981   -0.3244   -1.6371 H.spc      1 <1>        0.000
     19 H          13.3581    1.5779   -1.1282 H.spc      1 <1>        0.000
     20 H          12.6716    3.7141   -1.6541 H.spc      1 <1>        0.000
     21 H           8.5405    2.9528   -2.0613 H.spc      1 <1>        0.000
     22 H           9.6907    1.6121   -2.0286 H.spc      1 <1>        0.000
@<TRIPOS>BOND
     1    6    7 1  
     2    3    4 2  
     3    2    3 1  
     4    9   11 am 
     5    5    6 2  
     6    9   10 2  
     7    4    5 1  
     8    7    8 2  
     9    8    9 1  
    10    1    2 2  
    11    1   12 1  
    12    1   13 1  
    13    2   14 1  
    14    3   15 1  
    15    4   16 1  
    16    5   17 1  
    17    6   18 1  
    18    7   19 1  
    19    8   20 1  
    20   11   21 1  
    21   11   22 1  
# Name:          frag3-242-3/31924
# Creation time: Sat Jun  5 12:52:36 2010


@<TRIPOS>MOLECULE
frag3-242-3/31924
   22    21     1     1     1
SMALL
USER_CHARGES


@<TRIPOS>ATOM
      1 C38         7.1840   -3.0527    1.1001 C.2        1 <1>        0.000
      2 C39         7.3667   -2.1189    0.1619 C.2        1 <1>        0.000
      3 C41         8.2637   -0.9734    0.3219 C.2        1 <1>        0.000
      4 C42         9.3629   -0.7709   -0.4184 C.2        1 <1>        0.000
      5 C43        10.2628    0.3737   -0.2684 C.2        1 <1>        0.000
      6 C44        11.2997    0.6327   -1.0788 C.2        1 <1>        0.000
      7 C45        12.1925    1.7862   -0.9222 C.2        1 <1>        0.000
      8 C46        11.9600    3.0706   -1.2571 C.2        1 <1>        0.000
      9 C47        10.7321    3.6418   -1.8597 C.2        1 <1>        0.000
     10 O14        10.2123    3.0932   -2.8190 O.2        1 <1>        0.000
     11 N4         10.1945    4.7658   -1.3407 N.am       1 <1>        0.000
     12 H           7.7185   -2.9851    2.0477 H.spc      1 <1>        0.000
     13 H           6.5005   -3.8820    0.9178 H.spc      1 <1>        0.000
     14 H           6.8173   -2.2156   -0.7745 H.spc      1 <1>        0.000
     15 H           8.0230   -0.2393    1.0908 H.spc      1 <1>        0.000
     16 H           9.6028   -1.5087   -1.1840 H.spc      1 <1>        0.000
     17 H          10.0780    1.0614    0.5568 H.spc      1 <1>        0.000
     18 H          11.4904   -0.0548   -1.9028 H.spc      1 <1>        0.000
     19 H          13.1665    1.5782   -0.4792 H.spc      1 <1>        0.000
     20 H          12.7707    3.7725   -1.0618 H.spc      1 <1>        0.000
     21 H           9.3485    5.1625   -1.7498 H.spc      1 <1>        0.000
     22 H          10.6342    5.2185   -0.5394 H.spc      1 <1>        0.000
@<TRIPOS>BOND
     1    6    7 1  
     2    3    4 2  
     3    2    3 1  
     4    9   11 am 
     5    5    6 2  
     6    9   10 2  
     7    4    5 1  
     8    7    8 2  
     9    8    9 1  
    10    1    2 2  
    11    1   12 1  
    12    1   13 1  
    13    2   14 1  
    14    3   15 1  
    15    4   16 1  
    16    5   17 1  
    17    6   18 1  
    18    7   19 1  
    19    8   20 1  
    20   11   21 1  
    21   11   22 1  
# Name:          frag3-242-3/31924
# Creation time: Sat Jun  5 12:52:36 2010


@<TRIPOS>MOLECULE
frag3-242-3/31924
   22    21     1     1     1
SMALL
USER_CHARGES


@<TRIPOS>ATOM
      1 C38         6.8964   -3.0581    0.2394 C.2        1 <1>        0.000
      2 C39         7.6394   -2.3180    1.0696 C.2        1 <1>        0.000
      3 C41         8.9055   -1.6904    0.6766 C.2        1 <1>        0.000
      4 C42         9.0113   -0.7777   -0.3019 C.2        1 <1>        0.000
      5 C43        10.2709   -0.1384   -0.6963 C.2        1 <1>        0.000
      6 C44        10.5451    1.1610   -0.5025 C.2        1 <1>        0.000
      7 C45        11.8120    1.7935   -0.8967 C.2        1 <1>        0.000
      8 C46        11.9963    2.9591   -1.5413 C.2        1 <1>        0.000
      9 C47        10.9624    3.9205   -1.9927 C.2        1 <1>        0.000
     10 O14        11.0537    5.0977   -1.6735 O.2        1 <1>        0.000
     11 N4          9.9382    3.4990   -2.7613 N.am       1 <1>        0.000
     12 H           7.2240   -3.2200   -0.7875 H.spc      1 <1>        0.000
     13 H           5.9633   -3.4993    0.5898 H.spc      1 <1>        0.000
     14 H           7.2859   -2.1739    2.0906 H.spc      1 <1>        0.000
     15 H           9.8111   -1.9814    1.2089 H.spc      1 <1>        0.000
     16 H           8.1048   -0.4941   -0.8366 H.spc      1 <1>        0.000
     17 H          11.0303   -0.7560   -1.1759 H.spc      1 <1>        0.000
     18 H           9.7862    1.7818   -0.0263 H.spc      1 <1>        0.000
     19 H          12.7180    1.2479   -0.6327 H.spc      1 <1>        0.000
     20 H          13.0298    3.2293   -1.7578 H.spc      1 <1>        0.000
     21 H           9.2331    4.1633   -3.0805 H.spc      1 <1>        0.000
     22 H           9.8684    2.5158   -3.0236 H.spc      1 <1>        0.000
@<TRIPOS>BOND
     1    6    7 1  
     2    3    4 2  
     3    2    3 1  
     4    9   11 am 
     5    5    6 2  
     6    9   10 2  
     7    4    5 1  
     8    7    8 2  
     9    8    9 1  
    10    1    2 2  
    11    1   12 1  
    12    1   13 1  
    13    2   14 1  
    14    3   15 1  
    15    4   16 1  
    16    5   17 1  
    17    6   18 1  
    18    7   19 1  
    19    8   20 1  
    20   11   21 1  
    21   11   22 1  
# Name:          frag3-242-3/31924
# Creation time: Sat Jun  5 12:52:36 2010


@<TRIPOS>MOLECULE
frag3-242-3/31924
   22    21     1     1     1
SMALL
USER_CHARGES


@<TRIPOS>ATOM
      1 C38         7.4376   -2.5761    1.1158 C.2        1 <1>        0.000
      2 C39         7.5562   -2.0725   -0.1177 C.2        1 <1>        0.000
      3 C41         8.5228   -1.0430   -0.4796 C.2        1 <1>        0.000
      4 C42         9.2033   -0.3010    0.4151 C.2        1 <1>        0.000
      5 C43        10.1811    0.7192    0.0660 C.2        1 <1>        0.000
      6 C44        11.2101    0.5232   -0.7787 C.2        1 <1>        0.000
      7 C45        12.1846    1.5512   -1.1379 C.2        1 <1>        0.000
      8 C46        11.9488    2.7965   -1.6021 C.2        1 <1>        0.000
      9 C47        10.6333    3.4347   -1.8478 C.2        1 <1>        0.000
     10 O14        10.0054    3.9094   -0.9114 O.2        1 <1>        0.000
     11 N4         10.1479    3.5063   -3.1022 N.am       1 <1>        0.000
     12 H           8.0852   -2.2171    1.9157 H.spc      1 <1>        0.000
     13 H           6.6933   -3.3455    1.3211 H.spc      1 <1>        0.000
     14 H           6.8936   -2.4529   -0.8951 H.spc      1 <1>        0.000
     15 H           8.7060   -0.8627   -1.5389 H.spc      1 <1>        0.000
     16 H           9.0084   -0.4765    1.4731 H.spc      1 <1>        0.000
     17 H          10.0729    1.7052    0.5178 H.spc      1 <1>        0.000
     18 H          11.3240   -0.4654   -1.2234 H.spc      1 <1>        0.000
     19 H          13.2328    1.2783   -1.0157 H.spc      1 <1>        0.000
     20 H          12.8273    3.4032   -1.8218 H.spc      1 <1>        0.000
     21 H           9.2506    3.9588   -3.2768 H.spc      1 <1>        0.000
     22 H          10.6776    3.1080   -3.8775 H.spc      1 <1>        0.000
@<TRIPOS>BOND
     1    6    7 1  
     2    3    4 2  
     3    2    3 1  
     4    9   11 am 
     5    5    6 2  
     6    9   10 2  
     7    4    5 1  
     8    7    8 2  
     9    8    9 1  
    10    1    2 2  
    11    1   12 1  
    12    1   13 1  
    13    2   14 1  
    14    3   15 1  
    15    4   16 1  
    16    5   17 1  
    17    6   18 1  
    18    7   19 1  
    19    8   20 1  
    20   11   21 1  
    21   11   22 1  
# Name:          frag3-242-3/31924
# Creation time: Sat Jun  5 12:52:36 2010


@<TRIPOS>MOLECULE
frag3-242-3/31924
   22    21     1     1     1
SMALL
USER_CHARGES


@<TRIPOS>ATOM
      1 C38         6.8401   -2.4670    0.0430 C.2        1 <1>        0.000
      2 C39         7.9176   -2.4487    0.8352 C.2        1 <1>        0.000
      3 C41         9.0492   -1.5478    0.6380 C.2        1 <1>        0.000
      4 C42         8.9372   -0.2942    0.1628 C.2        1 <1>        0.000
      5 C43        10.0588    0.6156   -0.0389 C.2        1 <1>        0.000
      6 C44        10.8790    0.5819   -1.1030 C.2        1 <1>        0.000
      7 C45        12.0056    1.4951   -1.3005 C.2        1 <1>        0.000
      8 C46        11.9739    2.7978   -1.6511 C.2        1 <1>        0.000
      9 C47        10.7779    3.6327   -1.9152 C.2        1 <1>        0.000
     10 O14         9.6789    3.1118   -2.0230 O.2        1 <1>        0.000
     11 N4         10.9131    4.9708   -2.0278 N.am       1 <1>        0.000
     12 H           6.7746   -1.7839   -0.8038 H.spc      1 <1>        0.000
     13 H           6.0275   -3.1650    0.2442 H.spc      1 <1>        0.000
     14 H           7.9527   -3.1443    1.6737 H.spc      1 <1>        0.000
     15 H          10.0447   -1.9127    0.8910 H.spc      1 <1>        0.000
     16 H           7.9397    0.0661   -0.0887 H.spc      1 <1>        0.000
     17 H          10.2441    1.3725    0.7232 H.spc      1 <1>        0.000
     18 H          10.6935   -0.1730   -1.8670 H.spc      1 <1>        0.000
     19 H          12.9965    1.0686   -1.1445 H.spc      1 <1>        0.000
     20 H          12.9395    3.2935   -1.7517 H.spc      1 <1>        0.000
     21 H          10.0944    5.5531   -2.2040 H.spc      1 <1>        0.000
     22 H          11.8340    5.3998   -1.9367 H.spc      1 <1>        0.000
@<TRIPOS>BOND
     1    6    7 1  
     2    3    4 2  
     3    2    3 1  
     4    9   11 am 
     5    5    6 2  
     6    9   10 2  
     7    4    5 1  
     8    7    8 2  
     9    8    9 1  
    10    1    2 2  
    11    1   12 1  
    12    1   13 1  
    13    2   14 1  
    14    3   15 1  
    15    4   16 1  
    16    5   17 1  
    17    6   18 1  
    18    7   19 1  
    19    8   20 1  
    20   11   21 1  
    21   11   22 1  
# Name:          frag3-242-3/31924
# Creation time: Sat Jun  5 12:52:36 2010


@<TRIPOS>MOLECULE
frag3-242-3/31924
   22    21     1     1     1
SMALL
USER_CHARGES


@<TRIPOS>ATOM
      1 C38         7.0810   -2.8754    0.2189 C.2        1 <1>        0.000
      2 C39         7.7009   -1.9896    1.0065 C.2        1 <1>        0.000
      3 C41         8.8550   -1.2035    0.5836 C.2        1 <1>        0.000
      4 C42         9.1046   -0.8623   -0.6949 C.2        1 <1>        0.000
      5 C43        10.2505   -0.0698   -1.1262 C.2        1 <1>        0.000
      6 C44        10.8012    0.9166   -0.3950 C.2        1 <1>        0.000
      7 C45        11.9520    1.7107   -0.8238 C.2        1 <1>        0.000
      8 C46        11.9582    2.9045   -1.4488 C.2        1 <1>        0.000
      9 C47        10.7873    3.7321   -1.8250 C.2        1 <1>        0.000
     10 O14        10.6101    4.0285   -2.9991 O.2        1 <1>        0.000
     11 N4          9.9304    4.1564   -0.8768 N.am       1 <1>        0.000
     12 H           7.4343   -3.0406   -0.7989 H.spc      1 <1>        0.000
     13 H           6.2226   -3.4320    0.5949 H.spc      1 <1>        0.000
     14 H           7.3234   -1.8473    2.0191 H.spc      1 <1>        0.000
     15 H           9.5574   -0.8725    1.3486 H.spc      1 <1>        0.000
     16 H           8.4038   -1.2008   -1.4580 H.spc      1 <1>        0.000
     17 H          10.6875   -0.2899   -2.1002 H.spc      1 <1>        0.000
     18 H          10.3620    1.1376    0.5778 H.spc      1 <1>        0.000
     19 H          12.9310    1.2816   -0.6103 H.spc      1 <1>        0.000
     20 H          12.9371    3.3082   -1.7076 H.spc      1 <1>        0.000
     21 H           9.1268    4.7291   -1.1350 H.spc      1 <1>        0.000
     22 H          10.0850    3.9051    0.0996 H.spc      1 <1>        0.000
@<TRIPOS>BOND
     1    6    7 1  
     2    3    4 2  
     3    2    3 1  
     4    9   11 am 
     5    5    6 2  
     6    9   10 2  
     7    4    5 1  
     8    7    8 2  
     9    8    9 1  
    10    1    2 2  
    11    1   12 1  
    12    1   13 1  
    13    2   14 1  
    14    3   15 1  
    15    4   16 1  
    16    5   17 1  
    17    6   18 1  
    18    7   19 1  
    19    8   20 1  
    20   11   21 1  
    21   11   22 1  
# Name:          frag3-242-3/31924
# Creation time: Sat Jun  5 12:52:36 2010


@<TRIPOS>MOLECULE
frag3-242-3/31924
   22    21     1     1     1
SMALL
USER_CHARGES


@<TRIPOS>ATOM
      1 C38         6.6939   -2.0184    1.3523 C.2        1 <1>        0.000
      2 C39         7.6488   -2.1903    0.4353 C.2        1 <1>        0.000
      3 C41         8.7704   -1.2777    0.2447 C.2        1 <1>        0.000
      4 C42         9.6367   -1.3393   -0.7788 C.2        1 <1>        0.000
      5 C43        10.7507   -0.4170   -0.9725 C.2        1 <1>        0.000
      6 C44        10.7432    0.8678   -0.5724 C.2        1 <1>        0.000
      7 C45        11.8589    1.7938   -0.7635 C.2        1 <1>        0.000
      8 C46        11.8470    3.0209   -1.3187 C.2        1 <1>        0.000
      9 C47        10.6776    3.7572   -1.8549 C.2        1 <1>        0.000
     10 O14         9.6737    3.1495   -2.1921 O.2        1 <1>        0.000
     11 N4         10.7302    5.1016   -1.9599 N.am       1 <1>        0.000
     12 H           6.7243   -1.1537    2.0153 H.spc      1 <1>        0.000
     13 H           5.8839   -2.7427    1.4380 H.spc      1 <1>        0.000
     14 H           7.5864   -3.0662   -0.2104 H.spc      1 <1>        0.000
     15 H           8.9153   -0.4908    0.9849 H.spc      1 <1>        0.000
     16 H           9.4987   -2.1315   -1.5147 H.spc      1 <1>        0.000
     17 H          11.6440   -0.7918   -1.4721 H.spc      1 <1>        0.000
     18 H           9.8488    1.2421   -0.0743 H.spc      1 <1>        0.000
     19 H          12.8289    1.4445   -0.4096 H.spc      1 <1>        0.000
     20 H          12.8081    3.5313   -1.3809 H.spc      1 <1>        0.000
     21 H           9.9280    5.6166   -2.3228 H.spc      1 <1>        0.000
     22 H          11.5721    5.6028   -1.6763 H.spc      1 <1>        0.000
@<TRIPOS>BOND
     1    6    7 1  
     2    3    4 2  
     3    2    3 1  
     4    9   11 am 
     5    5    6 2  
     6    9   10 2  
     7    4    5 1  
     8    7    8 2  
     9    8    9 1  
    10    1    2 2  
    11    1   12 1  
    12    1   13 1  
    13    2   14 1  
    14    3   15 1  
    15    4   16 1  
    16    5   17 1  
    17    6   18 1  
    18    7   19 1  
    19    8   20 1  
    20   11   21 1  
    21   11   22 1  
# Name:          frag3-242-3/31924
# Creation time: Sat Jun  5 12:52:36 2010


@<TRIPOS>MOLECULE
frag3-242-3/31924
   22    21     1     1     1
SMALL
USER_CHARGES


@<TRIPOS>ATOM
      1 C38         7.0663   -2.3251    0.9255 C.2        1 <1>        0.000
      2 C39         7.6987   -2.2101   -0.2475 C.2        1 <1>        0.000
      3 C41         8.6548   -1.1517   -0.5481 C.2        1 <1>        0.000
      4 C42         9.3833   -0.5074    0.3840 C.2        1 <1>        0.000
      5 C43        10.3474    0.5447    0.0932 C.2        1 <1>        0.000
      6 C44        11.1975    0.5221   -0.9498 C.2        1 <1>        0.000
      7 C45        12.1586    1.5814   -1.2486 C.2        1 <1>        0.000
      8 C46        11.9084    2.8630   -1.5866 C.2        1 <1>        0.000
      9 C47        10.5855    3.5180   -1.7286 C.2        1 <1>        0.000
     10 O14        10.1133    3.6921   -2.8431 O.2        1 <1>        0.000
     11 N4          9.9173    3.9211   -0.6308 N.am       1 <1>        0.000
     12 H           7.2555   -1.6030    1.7197 H.spc      1 <1>        0.000
     13 H           6.3618   -3.1410    1.0871 H.spc      1 <1>        0.000
     14 H           7.4875   -2.9484   -1.0211 H.spc      1 <1>        0.000
     15 H           8.7885   -0.8640   -1.5909 H.spc      1 <1>        0.000
     16 H           9.2416   -0.7928    1.4264 H.spc      1 <1>        0.000
     17 H          10.3826    1.4044    0.7623 H.spc      1 <1>        0.000
     18 H          11.1672   -0.3415   -1.6141 H.spc      1 <1>        0.000
     19 H          13.2102    1.3005   -1.1911 H.spc      1 <1>        0.000
     20 H          12.7794    3.4899   -1.7775 H.spc      1 <1>        0.000
     21 H           9.0092    4.3760   -0.7248 H.spc      1 <1>        0.000
     22 H          10.3194    3.7715    0.2946 H.spc      1 <1>        0.000
@<TRIPOS>BOND
     1    6    7 1  
     2    3    4 2  
     3    2    3 1  
     4    9   11 am 
     5    5    6 2  
     6    9   10 2  
     7    4    5 1  
     8    7    8 2  
     9    8    9 1  
    10    1    2 2  
    11    1   12 1  
    12    1   13 1  
    13    2   14 1  
    14    3   15 1  
    15    4   16 1  
    16    5   17 1  
    17    6   18 1  
    18    7   19 1  
    19    8   20 1  
    20   11   21 1  
    21   11   22 1  
# Name:          frag3-242-3/31924
# Creation time: Sat Jun  5 12:52:36 2010


@<TRIPOS>MOLECULE
frag3-242-3/31924
   22    21     1     1     1
SMALL
USER_CHARGES


@<TRIPOS>ATOM
      1 C38         6.4887   -2.2439    0.6362 C.2        1 <1>        0.000
      2 C39         7.8191   -2.1310    0.6010 C.2        1 <1>        0.000
      3 C41         8.5300   -1.1325   -0.1951 C.2        1 <1>        0.000
      4 C42         9.6529   -0.5140    0.1954 C.2        1 <1>        0.000
      5 C43        10.3725    0.4782   -0.5977 C.2        1 <1>        0.000
      6 C44        11.6715    0.7797   -0.4439 C.2        1 <1>        0.000
      7 C45        12.3822    1.7752   -1.2506 C.2        1 <1>        0.000
      8 C46        11.8763    2.8767   -1.8460 C.2        1 <1>        0.000
      9 C47        10.4771    3.3669   -1.8028 C.2        1 <1>        0.000
     10 O14         9.8538    3.3394   -0.7527 O.2        1 <1>        0.000
     11 N4          9.9072    3.8534   -2.9242 N.am       1 <1>        0.000
     12 H           5.8686   -1.5672    0.0483 H.spc      1 <1>        0.000
     13 H           6.0231   -3.0128    1.2528 H.spc      1 <1>        0.000
     14 H           8.4090   -2.8239    1.2010 H.spc      1 <1>        0.000
     15 H           8.1196   -0.8737   -1.1712 H.spc      1 <1>        0.000
     16 H          10.0576   -0.7699    1.1746 H.spc      1 <1>        0.000
     17 H           9.8161    1.0114   -1.3686 H.spc      1 <1>        0.000
     18 H          12.2316    0.2519    0.3280 H.spc      1 <1>        0.000
     19 H          13.4503    1.6059   -1.3869 H.spc      1 <1>        0.000
     20 H          12.5783    3.4756   -2.4262 H.spc      1 <1>        0.000
     21 H           8.9489    4.2019   -2.8994 H.spc      1 <1>        0.000
     22 H          10.4345    3.8729   -3.7971 H.spc      1 <1>        0.000
@<TRIPOS>BOND
     1    6    7 1  
     2    3    4 2  
     3    2    3 1  
     4    9   11 am 
     5    5    6 2  
     6    9   10 2  
     7    4    5 1  
     8    7    8 2  
     9    8    9 1  
    10    1    2 2  
    11    1   12 1  
    12    1   13 1  
    13    2   14 1  
    14    3   15 1  
    15    4   16 1  
    16    5   17 1  
    17    6   18 1  
    18    7   19 1  
    19    8   20 1  
    20   11   21 1  
    21   11   22 1  
# Name:          frag3-242-3/31924
# Creation time: Sat Jun  5 12:52:36 2010


@<TRIPOS>MOLECULE
frag3-242-3/31924
   22    21     1     1     1
SMALL
USER_CHARGES


@<TRIPOS>ATOM
      1 C38         7.6804   -2.9336    0.6919 C.2        1 <1>        0.000
      2 C39         7.2318   -1.7446    0.2739 C.2        1 <1>        0.000
      3 C41         8.0864   -0.5693    0.1185 C.2        1 <1>        0.000
      4 C42         9.4082   -0.6302   -0.1175 C.2        1 <1>        0.000
      5 C43        10.2748    0.5324   -0.2836 C.2        1 <1>        0.000
      6 C44        11.4620    0.5134   -0.9089 C.2        1 <1>        0.000
      7 C45        12.3191    1.6897   -1.0757 C.2        1 <1>        0.000
      8 C46        11.9579    2.9364   -1.4461 C.2        1 <1>        0.000
      9 C47        10.5941    3.4270   -1.7583 C.2        1 <1>        0.000
     10 O14        10.0865    4.2874   -1.0511 O.2        1 <1>        0.000
     11 N4          9.9301    2.9395   -2.8236 N.am       1 <1>        0.000
     12 H           8.7346   -3.0629    0.9370 H.spc      1 <1>        0.000
     13 H           6.9917   -3.7731    0.7874 H.spc      1 <1>        0.000
     14 H           6.1724   -1.6472    0.0366 H.spc      1 <1>        0.000
     15 H           7.6246    0.4148    0.1987 H.spc      1 <1>        0.000
     16 H           9.8650   -1.6172   -0.1899 H.spc      1 <1>        0.000
     17 H           9.9340    1.4820    0.1289 H.spc      1 <1>        0.000
     18 H          11.8099   -0.4353   -1.3177 H.spc      1 <1>        0.000
     19 H          13.3801    1.5395   -0.8759 H.spc      1 <1>        0.000
     20 H          12.7625    3.6675   -1.5248 H.spc      1 <1>        0.000
     21 H           8.9973    3.2872   -3.0460 H.spc      1 <1>        0.000
     22 H          10.3599    2.2226   -3.4081 H.spc      1 <1>        0.000
@<TRIPOS>BOND
     1    6    7 1  
     2    3    4 2  
     3    2    3 1  
     4    9   11 am 
     5    5    6 2  
     6    9   10 2  
     7    4    5 1  
     8    7    8 2  
     9    8    9 1  
    10    1    2 2  
    11    1   12 1  
    12    1   13 1  
    13    2   14 1  
    14    3   15 1  
    15    4   16 1  
    16    5   17 1  
    17    6   18 1  
    18    7   19 1  
    19    8   20 1  
    20   11   21 1  
    21   11   22 1  
# Name:          frag3-242-3/31924
# Creation time: Sat Jun  5 12:52:36 2010


@<TRIPOS>MOLECULE
frag3-242-3/31924
   22    21     1     1     1
SMALL
USER_CHARGES


@<TRIPOS>ATOM
      1 C38         7.2419   -3.0887    0.0727 C.2        1 <1>        0.000
      2 C39         7.5150   -1.8706    0.5454 C.2        1 <1>        0.000
      3 C41         8.5666   -1.0099    0.0234 C.2        1 <1>        0.000
      4 C42         9.3525   -0.2214    0.7750 C.2        1 <1>        0.000
      5 C43        10.4139    0.6273    0.2507 C.2        1 <1>        0.000
      6 C44        10.9225    0.5205   -0.9915 C.2        1 <1>        0.000
      7 C45        11.9803    1.3738   -1.5246 C.2        1 <1>        0.000
      8 C46        11.8985    2.6635   -1.9147 C.2        1 <1>        0.000
      9 C47        10.7006    3.5374   -1.8913 C.2        1 <1>        0.000
     10 O14         9.6090    3.0875   -2.2017 O.2        1 <1>        0.000
     11 N4         10.8303    4.8289   -1.5239 N.am       1 <1>        0.000
     12 H           7.8230   -3.4950   -0.7551 H.spc      1 <1>        0.000
     13 H           6.4377   -3.6771    0.5145 H.spc      1 <1>        0.000
     14 H           6.9131   -1.4971    1.3739 H.spc      1 <1>        0.000
     15 H           8.7278   -1.0049   -1.0546 H.spc      1 <1>        0.000
     16 H           9.1843   -0.2163    1.8519 H.spc      1 <1>        0.000
     17 H          10.8222    1.3974    0.9052 H.spc      1 <1>        0.000
     18 H          10.5175   -0.2545   -1.6422 H.spc      1 <1>        0.000
     19 H          12.9621    0.9100   -1.6199 H.spc      1 <1>        0.000
     20 H          12.8176    3.1139   -2.2896 H.spc      1 <1>        0.000
     21 H          10.0124    5.4380   -1.5039 H.spc      1 <1>        0.000
     22 H          11.7463    5.1963   -1.2661 H.spc      1 <1>        0.000
@<TRIPOS>BOND
     1    6    7 1  
     2    3    4 2  
     3    2    3 1  
     4    9   11 am 
     5    5    6 2  
     6    9   10 2  
     7    4    5 1  
     8    7    8 2  
     9    8    9 1  
    10    1    2 2  
    11    1   12 1  
    12    1   13 1  
    13    2   14 1  
    14    3   15 1  
    15    4   16 1  
    16    5   17 1  
    17    6   18 1  
    18    7   19 1  
    19    8   20 1  
    20   11   21 1  
    21   11   22 1  
# Name:          frag3-242-3/31924 -- energy: -2.421045
# Creation time: Sat Jun  5 12:52:36 2010


@<TRIPOS>MOLECULE
frag3-242-3/31924 -- energy: -2.421045
   22    21     1     1     1
SMALL
USER_CHARGES


@<TRIPOS>ATOM
      1 C38         6.7208   -2.6345    1.1239 C.2        1 <1>        0.000
      2 C39         7.6244   -2.2705    0.2091 C.2        1 <1>        0.000
      3 C41         8.4815   -1.0880    0.3407 C.2        1 <1>        0.000
      4 C42         9.4305   -0.7486   -0.5419 C.2        1 <1>        0.000
      5 C43        10.2855    0.4363   -0.4193 C.2        1 <1>        0.000
      6 C44        11.4216    0.6192   -1.1087 C.2        1 <1>        0.000
      7 C45        12.2699    1.8123   -0.9796 C.2        1 <1>        0.000
      8 C46        11.9509    3.0904   -1.2591 C.2        1 <1>        0.000
      9 C47        10.6550    3.6172   -1.7503 C.2        1 <1>        0.000
     10 O14        10.2283    4.6746   -1.3078 O.2        1 <1>        0.000
     11 N4          9.9629    2.9396   -2.6877 N.am       1 <1>        0.000
     12 H           6.5906   -2.0398    2.0281 H.spc      1 <1>        0.000
     13 H           6.1140   -3.5261    0.9659 H.spc      1 <1>        0.000
     14 H           7.7301   -2.8864   -0.6840 H.spc      1 <1>        0.000
     15 H           8.3377   -0.4459    1.2097 H.spc      1 <1>        0.000
     16 H           9.5765   -1.3952   -1.4072 H.spc      1 <1>        0.000
     17 H           9.9786    1.2178    0.2758 H.spc      1 <1>        0.000
     18 H          11.7330   -0.1608   -1.8035 H.spc      1 <1>        0.000
     19 H          13.2819    1.6417   -0.6124 H.spc      1 <1>        0.000
     20 H          12.7404    3.8261   -1.1058 H.spc      1 <1>        0.000
     21 H           9.0766    3.3080   -3.0330 H.spc      1 <1>        0.000
     22 H          10.3254    2.0584   -3.0517 H.spc      1 <1>        0.000
@<TRIPOS>BOND
     1    6    7 1  
     2    3    4 2  
     3    2    3 1  
     4    9   11 am 
     5    5    6 2  
     6    9   10 2  
     7    4    5 1  
     8    7    8 2  
     9    8    9 1  
    10    1    2 2  
    11    1   12 1  
    12    1   13 1  
    13    2   14 1  
    14    3   15 1  
    15    4   16 1  
    16    5   17 1  
    17    6   18 1  
    18    7   19 1  
    19    8   20 1  
    20   11   21 1  
    21   11   22 1  
# Name:          frag3-242-3/31924 -- energy: -1.958443
# Creation time: Sat Jun  5 12:52:36 2010


@<TRIPOS>MOLECULE
frag3-242-3/31924 -- energy: -1.958443
   22    21     1     1     1
SMALL
USER_CHARGES


@<TRIPOS>ATOM
      1 C38         7.0269   -3.4289    1.3613 C.2        1 <1>        0.000
      2 C39         7.3256   -2.4217    0.5358 C.2        1 <1>        0.000
      3 C41         8.6175   -1.7310    0.5311 C.2        1 <1>        0.000
      4 C42         8.9043   -0.6788   -0.2470 C.2        1 <1>        0.000
      5 C43        10.1911    0.0213   -0.2499 C.2        1 <1>        0.000
      6 C44        10.4815    1.0639   -1.0416 C.2        1 <1>        0.000
      7 C45        11.7738    1.7612   -1.0351 C.2        1 <1>        0.000
      8 C46        12.0586    2.9992   -1.4770 C.2        1 <1>        0.000
      9 C47        11.1245    3.9904   -2.0618 C.2        1 <1>        0.000
     10 O14        10.0089    4.1306   -1.5848 O.2        1 <1>        0.000
     11 N4         11.5185    4.7419   -3.1115 N.am       1 <1>        0.000
     12 H           7.7648   -3.7791    2.0831 H.spc      1 <1>        0.000
     13 H           6.0453   -3.9004    1.3130 H.spc      1 <1>        0.000
     14 H           6.5654   -2.0956   -0.1740 H.spc      1 <1>        0.000
     15 H           9.3943   -2.0961    1.2030 H.spc      1 <1>        0.000
     16 H           8.1284   -0.3197   -0.9231 H.spc      1 <1>        0.000
     17 H          10.9627   -0.3280    0.4361 H.spc      1 <1>        0.000
     18 H           9.7130    1.4144   -1.7306 H.spc      1 <1>        0.000
     19 H          12.6116    1.2026   -0.6177 H.spc      1 <1>        0.000
     20 H          13.1000    3.3106   -1.3954 H.spc      1 <1>        0.000
     21 H          10.8831    5.4323   -3.5115 H.spc      1 <1>        0.000
     22 H          12.4516    4.6194   -3.5047 H.spc      1 <1>        0.000
@<TRIPOS>BOND
     1    6    7 1  
     2    3    4 2  
     3    2    3 1  
     4    9   11 am 
     5    5    6 2  
     6    9   10 2  
     7    4    5 1  
     8    7    8 2  
     9    8    9 1  
    10    1    2 2  
    11    1   12 1  
    12    1   13 1  
    13    2   14 1  
    14    3   15 1  
    15    4   16 1  
    16    5   17 1  
    17    6   18 1  
    18    7   19 1  
    19    8   20 1  
    20   11   21 1  
    21   11   22 1  
# Name:          frag3-242-3/31924 -- energy: -2.453508
# Creation time: Sat Jun  5 12:52:37 2010


@<TRIPOS>MOLECULE
frag3-242-3/31924 -- energy: -2.453508
   22    21     1     1     1
SMALL
USER_CHARGES


@<TRIPOS>ATOM
      1 C38         6.4699   -2.4212    0.4774 C.2        1 <1>        0.000
      2 C39         7.7524   -2.0833    0.6384 C.2        1 <1>        0.000
      3 C41         8.4445   -1.0992   -0.1976 C.2        1 <1>        0.000
      4 C42         9.7041   -0.6919    0.0077 C.2        1 <1>        0.000
      5 C43        10.4039    0.2854   -0.8292 C.2        1 <1>        0.000
      6 C44        11.6346    0.7548   -0.5738 C.2        1 <1>        0.000
      7 C45        12.3256    1.7346   -1.4213 C.2        1 <1>        0.000
      8 C46        11.8516    2.9055   -1.8892 C.2        1 <1>        0.000
      9 C47        10.5229    3.5137   -1.6374 C.2        1 <1>        0.000
     10 O14         9.7858    3.7643   -2.5803 O.2        1 <1>        0.000
     11 N4         10.1358    3.7855   -0.3752 N.am       1 <1>        0.000
     12 H           5.8787   -1.9561   -0.3114 H.spc      1 <1>        0.000
     13 H           6.0148   -3.1619    1.1349 H.spc      1 <1>        0.000
     14 H           8.3155   -2.5670    1.4366 H.spc      1 <1>        0.000
     15 H           7.9003   -0.6715   -1.0396 H.spc      1 <1>        0.000
     16 H          10.2443   -1.1161    0.8541 H.spc      1 <1>        0.000
     17 H           9.8915    0.6554   -1.7173 H.spc      1 <1>        0.000
     18 H          12.1508    0.3879    0.3133 H.spc      1 <1>        0.000
     19 H          13.3472    1.4838   -1.7068 H.spc      1 <1>        0.000
     20 H          12.5257    3.4741   -2.5298 H.spc      1 <1>        0.000
     21 H           9.2218    4.2034   -0.2009 H.spc      1 <1>        0.000
     22 H          10.7569    3.5733    0.4056 H.spc      1 <1>        0.000
@<TRIPOS>BOND
     1    6    7 1  
     2    3    4 2  
     3    2    3 1  
     4    9   11 am 
     5    5    6 2  
     6    9   10 2  
     7    4    5 1  
     8    7    8 2  
     9    8    9 1  
    10    1    2 2  
    11    1   12 1  
    12    1   13 1  
    13    2   14 1  
    14    3   15 1  
    15    4   16 1  
    16    5   17 1  
    17    6   18 1  
    18    7   19 1  
    19    8   20 1  
    20   11   21 1  
    21   11   22 1  
# Name:          frag3-242-3/31924 -- energy: -0.795940
# Creation time: Sat Jun  5 12:52:37 2010


@<TRIPOS>MOLECULE
frag3-242-3/31924 -- energy: -0.795940
   22    21     1     1     1
SMALL
USER_CHARGES


@<TRIPOS>ATOM
      1 C38         6.7252   -3.1404    0.3960 C.2        1 <1>        0.000
      2 C39         7.5833   -2.1869    0.7718 C.2        1 <1>        0.000
      3 C41         8.5089   -1.5197   -0.1517 C.2        1 <1>        0.000
      4 C42         9.3737   -0.5655    0.2174 C.2        1 <1>        0.000
      5 C43        10.3077    0.0989   -0.6999 C.2        1 <1>        0.000
      6 C44        11.1756    1.0509   -0.3270 C.2        1 <1>        0.000
      7 C45        12.1072    1.7109   -1.2548 C.2        1 <1>        0.000
      8 C46        11.9395    2.8711   -1.9147 C.2        1 <1>        0.000
      9 C47        10.7841    3.7971   -1.8475 C.2        1 <1>        0.000
     10 O14        10.7566    4.7797   -2.5757 O.2        1 <1>        0.000
     11 N4          9.7693    3.5519   -0.9944 N.am       1 <1>        0.000
     12 H           6.6879   -3.4605   -0.6453 H.spc      1 <1>        0.000
     13 H           6.0627   -3.5978    1.1308 H.spc      1 <1>        0.000
     14 H           7.5964   -1.8888    1.8202 H.spc      1 <1>        0.000
     15 H           8.4915   -1.8183   -1.1998 H.spc      1 <1>        0.000
     16 H           9.3846   -0.2634    1.2646 H.spc      1 <1>        0.000
     17 H          10.2950   -0.1998   -1.7481 H.spc      1 <1>        0.000
     18 H          11.1916    1.3520    0.7205 H.spc      1 <1>        0.000
     19 H          13.0515    1.1953   -1.4294 H.spc      1 <1>        0.000
     20 H          12.7516    3.1659   -2.5793 H.spc      1 <1>        0.000
     21 H           8.9725    4.1874   -0.9535 H.spc      1 <1>        0.000
     22 H           9.7983    2.7309   -0.3899 H.spc      1 <1>        0.000
@<TRIPOS>BOND
     1    6    7 1  
     2    3    4 2  
     3    2    3 1  
     4    9   11 am 
     5    5    6 2  
     6    9   10 2  
     7    4    5 1  
     8    7    8 2  
     9    8    9 1  
    10    1    2 2  
    11    1   12 1  
    12    1   13 1  
    13    2   14 1  
    14    3   15 1  
    15    4   16 1  
    16    5   17 1  
    17    6   18 1  
    18    7   19 1  
    19    8   20 1  
    20   11   21 1  
    21   11   22 1  
# Name:          frag3-242-3/31924 -- energy: -2.089688
# Creation time: Sat Jun  5 12:52:37 2010


@<TRIPOS>MOLECULE
frag3-242-3/31924 -- energy: -2.089688
   22    21     1     1     1
SMALL
USER_CHARGES


@<TRIPOS>ATOM
      1 C38         6.3977   -1.9259    0.3261 C.2        1 <1>        0.000
      2 C39         7.7083   -2.0982    0.5174 C.2        1 <1>        0.000
      3 C41         8.7350   -1.2257   -0.0491 C.2        1 <1>        0.000
      4 C42        10.0482   -1.3409    0.2016 C.2        1 <1>        0.000
      5 C43        11.0743   -0.4708   -0.3711 C.2        1 <1>        0.000
      6 C44        10.8598    0.8084   -0.7272 C.2        1 <1>        0.000
      7 C45        11.8856    1.6817   -1.3028 C.2        1 <1>        0.000
      8 C46        11.7571    2.9404   -1.7590 C.2        1 <1>        0.000
      9 C47        10.5334    3.7776   -1.7698 C.2        1 <1>        0.000
     10 O14         9.8741    3.8720   -2.7948 O.2        1 <1>        0.000
     11 N4         10.1576    4.4295   -0.6516 N.am       1 <1>        0.000
     12 H           6.0403   -1.0956   -0.2830 H.spc      1 <1>        0.000
     13 H           5.6855   -2.6156    0.7791 H.spc      1 <1>        0.000
     14 H           8.0311   -2.9386    1.1319 H.spc      1 <1>        0.000
     15 H           8.4127   -0.4289   -0.7194 H.spc      1 <1>        0.000
     16 H          10.3708   -2.1344    0.8757 H.spc      1 <1>        0.000
     17 H          12.0724   -0.8833   -0.5182 H.spc      1 <1>        0.000
     18 H           9.8617    1.2205   -0.5784 H.spc      1 <1>        0.000
     19 H          12.8861    1.2545   -1.3703 H.spc      1 <1>        0.000
     20 H          12.6575    3.3984   -2.1685 H.spc      1 <1>        0.000
     21 H           9.3171    5.0073   -0.6562 H.spc      1 <1>        0.000
     22 H          10.7137    4.3450    0.1993 H.spc      1 <1>        0.000
@<TRIPOS>BOND
     1    6    7 1  
     2    3    4 2  
     3    2    3 1  
     4    9   11 am 
     5    5    6 2  
     6    9   10 2  
     7    4    5 1  
     8    7    8 2  
     9    8    9 1  
    10    1    2 2  
    11    1   12 1  
    12    1   13 1  
    13    2   14 1  
    14    3   15 1  
    15    4   16 1  
    16    5   17 1  
    17    6   18 1  
    18    7   19 1  
    19    8   20 1  
    20   11   21 1  
    21   11   22 1  
# Name:          frag3-242-3/31924 -- energy: -2.155109
# Creation time: Sat Jun  5 12:52:37 2010


@<TRIPOS>MOLECULE
frag3-242-3/31924 -- energy: -2.155109
   22    21     1     1     1
SMALL
USER_CHARGES


@<TRIPOS>ATOM
      1 C38         7.1526   -3.6430    0.9879 C.2        1 <1>        0.000
      2 C39         7.4042   -2.5427    0.2721 C.2        1 <1>        0.000
      3 C41         8.6892   -1.8348    0.2983 C.2        1 <1>        0.000
      4 C42         8.8468   -0.5576   -0.0742 C.2        1 <1>        0.000
      5 C43        10.1278    0.1577   -0.0422 C.2        1 <1>        0.000
      6 C44        10.4565    1.1465   -0.8863 C.2        1 <1>        0.000
      7 C45        11.7428    1.8579   -0.8471 C.2        1 <1>        0.000
      8 C46        12.0429    3.0658   -1.3542 C.2        1 <1>        0.000
      9 C47        11.1404    4.0031   -2.0641 C.2        1 <1>        0.000
     10 O14        11.5278    4.5587   -3.0822 O.2        1 <1>        0.000
     11 N4          9.9002    4.2363   -1.5885 N.am       1 <1>        0.000
     12 H           7.9240   -4.0604    1.6351 H.spc      1 <1>        0.000
     13 H           6.1760   -4.1230    0.9245 H.spc      1 <1>        0.000
     14 H           6.6121   -2.1501   -0.3655 H.spc      1 <1>        0.000
     15 H           9.5681   -2.3807    0.6413 H.spc      1 <1>        0.000
     16 H           7.9679   -0.0154   -0.4231 H.spc      1 <1>        0.000
     17 H          10.8569   -0.1326    0.7142 H.spc      1 <1>        0.000
     18 H           9.7295    1.4393   -1.6438 H.spc      1 <1>        0.000
     19 H          12.5575    1.3390   -0.3419 H.spc      1 <1>        0.000
     20 H          13.0741    3.3959   -1.2283 H.spc      1 <1>        0.000
     21 H           9.2787    4.8796   -2.0786 H.spc      1 <1>        0.000
     22 H           9.5837    3.7693   -0.7387 H.spc      1 <1>        0.000
@<TRIPOS>BOND
     1    6    7 1  
     2    3    4 2  
     3    2    3 1  
     4    9   11 am 
     5    5    6 2  
     6    9   10 2  
     7    4    5 1  
     8    7    8 2  
     9    8    9 1  
    10    1    2 2  
    11    1   12 1  
    12    1   13 1  
    13    2   14 1  
    14    3   15 1  
    15    4   16 1  
    16    5   17 1  
    17    6   18 1  
    18    7   19 1  
    19    8   20 1  
    20   11   21 1  
    21   11   22 1  
# Name:          frag3-242-3/31924 -- energy: -2.246235
# Creation time: Sat Jun  5 12:52:37 2010


@<TRIPOS>MOLECULE
frag3-242-3/31924 -- energy: -2.246235
   22    21     1     1     1
SMALL
USER_CHARGES


@<TRIPOS>ATOM
      1 C38         7.2409   -3.1836   -0.1576 C.2        1 <1>        0.000
      2 C39         7.4229   -2.2978    0.8282 C.2        1 <1>        0.000
      3 C41         8.5903   -1.4158    0.9140 C.2        1 <1>        0.000
      4 C42         9.1474   -0.8125   -0.1482 C.2        1 <1>        0.000
      5 C43        10.3097    0.0765   -0.0763 C.2        1 <1>        0.000
      6 C44        10.7164    0.8681   -1.0794 C.2        1 <1>        0.000
      7 C45        11.8803    1.7602   -0.9955 C.2        1 <1>        0.000
      8 C46        11.9740    3.0481   -1.3722 C.2        1 <1>        0.000
      9 C47        10.9108    3.9027   -1.9532 C.2        1 <1>        0.000
     10 O14        11.1777    4.6439   -2.8888 O.2        1 <1>        0.000
     11 N4          9.6607    3.8582   -1.4514 N.am       1 <1>        0.000
     12 H           7.9824   -3.2759   -0.9511 H.spc      1 <1>        0.000
     13 H           6.3511   -3.8130   -0.1673 H.spc      1 <1>        0.000
     14 H           6.6641   -2.2284    1.6076 H.spc      1 <1>        0.000
     15 H           9.0310   -1.2398    1.8953 H.spc      1 <1>        0.000
     16 H           8.7062   -0.9961   -1.1279 H.spc      1 <1>        0.000
     17 H          10.8805    0.0957    0.8521 H.spc      1 <1>        0.000
     18 H          10.1506    0.8484   -2.0108 H.spc      1 <1>        0.000
     19 H          12.7848    1.3220   -0.5735 H.spc      1 <1>        0.000
     20 H          12.9471    3.5194   -1.2339 H.spc      1 <1>        0.000
     21 H           8.9291    4.4453   -1.8520 H.spc      1 <1>        0.000
     22 H           9.4462    3.2374   -0.6710 H.spc      1 <1>        0.000
@<TRIPOS>BOND
     1    6    7 1  
     2    3    4 2  
     3    2    3 1  
     4    9   11 am 
     5    5    6 2  
     6    9   10 2  
     7    4    5 1  
     8    7    8 2  
     9    8    9 1  
    10    1    2 2  
    11    1   12 1  
    12    1   13 1  
    13    2   14 1  
    14    3   15 1  
    15    4   16 1  
    16    5   17 1  
    17    6   18 1  
    18    7   19 1  
    19    8   20 1  
    20   11   21 1  
    21   11   22 1  
# Name:          frag3-242-3/31924 -- energy: -2.126659
# Creation time: Sat Jun  5 12:52:37 2010


@<TRIPOS>MOLECULE
frag3-242-3/31924 -- energy: -2.126659
   22    21     1     1     1
SMALL
USER_CHARGES


@<TRIPOS>ATOM
      1 C38         7.0198   -3.4065    1.2661 C.2        1 <1>        0.000
      2 C39         7.4275   -2.5529    0.3220 C.2        1 <1>        0.000
      3 C41         8.6895   -1.8089    0.3920 C.2        1 <1>        0.000
      4 C42         8.8869   -0.6146   -0.1823 C.2        1 <1>        0.000
      5 C43        10.1436    0.1383   -0.1081 C.2        1 <1>        0.000
      6 C44        10.5136    1.0728   -0.9962 C.2        1 <1>        0.000
      7 C45        11.7751    1.8225   -0.9140 C.2        1 <1>        0.000
      8 C46        12.0402    3.0610   -1.3648 C.2        1 <1>        0.000
      9 C47        11.1132    3.9985   -2.0429 C.2        1 <1>        0.000
     10 O14        10.9192    5.1067   -1.5645 O.2        1 <1>        0.000
     11 N4         10.5026    3.6312   -3.1877 N.am       1 <1>        0.000
     12 H           7.6372   -3.5799    2.1475 H.spc      1 <1>        0.000
     13 H           6.0699   -3.9293    1.1547 H.spc      1 <1>        0.000
     14 H           6.7874   -2.4014   -0.5471 H.spc      1 <1>        0.000
     15 H           9.5167   -2.2544    0.9446 H.spc      1 <1>        0.000
     16 H           8.0607   -0.1742   -0.7404 H.spc      1 <1>        0.000
     17 H          10.8189   -0.0750    0.7205 H.spc      1 <1>        0.000
     18 H           9.8405    1.2885   -1.8260 H.spc      1 <1>        0.000
     19 H          12.6021    1.3082   -0.4246 H.spc      1 <1>        0.000
     20 H          13.0587    3.4187   -1.2137 H.spc      1 <1>        0.000
     21 H           9.8736    4.2798   -3.6610 H.spc      1 <1>        0.000
     22 H          10.6698    2.7048   -3.5803 H.spc      1 <1>        0.000
@<TRIPOS>BOND
     1    6    7 1  
     2    3    4 2  
     3    2    3 1  
     4    9   11 am 
     5    5    6 2  
     6    9   10 2  
     7    4    5 1  
     8    7    8 2  
     9    8    9 1  
    10    1    2 2  
    11    1   12 1  
    12    1   13 1  
    13    2   14 1  
    14    3   15 1  
    15    4   16 1  
    16    5   17 1  
    17    6   18 1  
    18    7   19 1  
    19    8   20 1  
    20   11   21 1  
    21   11   22 1  
# Name:          frag3-242-3/31924 -- energy: -2.394738
# Creation time: Sat Jun  5 12:52:37 2010


@<TRIPOS>MOLECULE
frag3-242-3/31924 -- energy: -2.394738
   22    21     1     1     1
SMALL
USER_CHARGES


@<TRIPOS>ATOM
      1 C38         7.5808   -3.4376    0.8348 C.2        1 <1>        0.000
      2 C39         7.5647   -2.2511    0.2207 C.2        1 <1>        0.000
      3 C41         8.7159   -1.3478    0.1688 C.2        1 <1>        0.000
      4 C42         8.6292   -0.0323   -0.0779 C.2        1 <1>        0.000
      5 C43         9.7794    0.8728   -0.1220 C.2        1 <1>        0.000
      6 C44        10.8685    0.6627   -0.8813 C.2        1 <1>        0.000
      7 C45        12.0202    1.5716   -0.9241 C.2        1 <1>        0.000
      8 C46        12.0579    2.8434   -1.3658 C.2        1 <1>        0.000
      9 C47        10.9382    3.6509   -1.9067 C.2        1 <1>        0.000
     10 O14        10.9338    4.8626   -1.7374 O.2        1 <1>        0.000
     11 N4          9.9427    3.0529   -2.5896 N.am       1 <1>        0.000
     12 H           8.4869   -3.7805    1.3343 H.spc      1 <1>        0.000
     13 H           6.6878   -4.0627    0.8363 H.spc      1 <1>        0.000
     14 H           6.6427   -1.9380   -0.2692 H.spc      1 <1>        0.000
     15 H           9.7054   -1.7710    0.3415 H.spc      1 <1>        0.000
     16 H           7.6402    0.3896   -0.2568 H.spc      1 <1>        0.000
     17 H           9.7508    1.7694    0.4971 H.spc      1 <1>        0.000
     18 H          10.8981   -0.2338   -1.5006 H.spc      1 <1>        0.000
     19 H          12.9617    1.1672   -0.5523 H.spc      1 <1>        0.000
     20 H          13.0279    3.3384   -1.3201 H.spc      1 <1>        0.000
     21 H           9.1781    3.6109   -2.9697 H.spc      1 <1>        0.000
     22 H           9.9536    2.0422   -2.7265 H.spc      1 <1>        0.000
@<TRIPOS>BOND
     1    6    7 1  
     2    3    4 2  
     3    2    3 1  
     4    9   11 am 
     5    5    6 2  
     6    9   10 2  
     7    4    5 1  
     8    7    8 2  
     9    8    9 1  
    10    1    2 2  
    11    1   12 1  
    12    1   13 1  
    13    2   14 1  
    14    3   15 1  
    15    4   16 1  
    16    5   17 1  
    17    6   18 1  
    18    7   19 1  
    19    8   20 1  
    20   11   21 1  
    21   11   22 1  
# Name:          frag3-242-3/31924 -- energy: -1.810349
# Creation time: Sat Jun  5 12:52:37 2010


@<TRIPOS>MOLECULE
frag3-242-3/31924 -- energy: -1.810349
   22    21     1     1     1
SMALL
USER_CHARGES


@<TRIPOS>ATOM
      1 C38         6.6761   -2.1717    1.2602 C.2        1 <1>        0.000
      2 C39         7.6867   -2.7436    0.5969 C.2        1 <1>        0.000
      3 C41         8.9637   -2.0773    0.3391 C.2        1 <1>        0.000
      4 C42         9.0829   -0.9267   -0.3427 C.2        1 <1>        0.000
      5 C43        10.3509   -0.2419   -0.5934 C.2        1 <1>        0.000
      6 C44        10.4784    1.0849   -0.7407 C.2        1 <1>        0.000
      7 C45        11.7551    1.7637   -0.9882 C.2        1 <1>        0.000
      8 C46        11.9688    2.9780   -1.5279 C.2        1 <1>        0.000
      9 C47        10.9531    3.9552   -1.9868 C.2        1 <1>        0.000
     10 O14         9.7649    3.7162   -1.8382 O.2        1 <1>        0.000
     11 N4         11.3507    5.1114   -2.5587 N.am       1 <1>        0.000
     12 H           6.7799   -1.1557    1.6411 H.spc      1 <1>        0.000
     13 H           5.7486   -2.7215    1.4199 H.spc      1 <1>        0.000
     14 H           7.5519   -3.7606    0.2286 H.spc      1 <1>        0.000
     15 H           9.8716   -2.5424    0.7231 H.spc      1 <1>        0.000
     16 H           8.1735   -0.4723   -0.7359 H.spc      1 <1>        0.000
     17 H          11.2522   -0.8506   -0.6653 H.spc      1 <1>        0.000
     18 H           9.5786    1.6962   -0.6724 H.spc      1 <1>        0.000
     19 H          12.6486    1.2118   -0.6965 H.spc      1 <1>        0.000
     20 H          13.0106    3.2779   -1.6407 H.spc      1 <1>        0.000
     21 H          10.6571    5.7915   -2.8696 H.spc      1 <1>        0.000
     22 H          12.3448    5.3050   -2.6799 H.spc      1 <1>        0.000
@<TRIPOS>BOND
     1    6    7 1  
     2    3    4 2  
     3    2    3 1  
     4    9   11 am 
     5    5    6 2  
     6    9   10 2  
     7    4    5 1  
     8    7    8 2  
     9    8    9 1  
    10    1    2 2  
    11    1   12 1  
    12    1   13 1  
    13    2   14 1  
    14    3   15 1  
    15    4   16 1  
    16    5   17 1  
    17    6   18 1  
    18    7   19 1  
    19    8   20 1  
    20   11   21 1  
    21   11   22 1  
# Name:          frag3-242-3/31924 -- energy: -1.645318
# Creation time: Sat Jun  5 12:52:37 2010


@<TRIPOS>MOLECULE
frag3-242-3/31924 -- energy: -1.645318
   22    21     1     1     1
SMALL
USER_CHARGES


@<TRIPOS>ATOM
      1 C38         6.5308   -2.5981    0.8465 C.2        1 <1>        0.000
      2 C39         7.6934   -2.4463    0.2050 C.2        1 <1>        0.000
      3 C41         8.6003   -1.3146    0.4273 C.2        1 <1>        0.000
      4 C42         9.4988   -0.8888   -0.4707 C.2        1 <1>        0.000
      5 C43        10.4008    0.2487   -0.2586 C.2        1 <1>        0.000
      6 C44        11.2596    0.7087   -1.1804 C.2        1 <1>        0.000
      7 C45        12.1567    1.8525   -0.9590 C.2        1 <1>        0.000
      8 C46        11.9239    3.1528   -1.2157 C.2        1 <1>        0.000
      9 C47        10.6939    3.7627   -1.7743 C.2        1 <1>        0.000
     10 O14        10.7633    4.8401   -2.3495 O.2        1 <1>        0.000
     11 N4          9.5097    3.1304   -1.6509 N.am       1 <1>        0.000
     12 H           6.2124   -1.8575    1.5801 H.spc      1 <1>        0.000
     13 H           5.9011   -3.4625    0.6361 H.spc      1 <1>        0.000
     14 H           7.9835   -3.2042   -0.5227 H.spc      1 <1>        0.000
     15 H           8.5394   -0.7887    1.3801 H.spc      1 <1>        0.000
     16 H           9.5638   -1.4215   -1.4194 H.spc      1 <1>        0.000
     17 H          10.3711    0.7512    0.7082 H.spc      1 <1>        0.000
     18 H          11.2945    0.2068   -2.1473 H.spc      1 <1>        0.000
     19 H          13.1325    1.6178   -0.5337 H.spc      1 <1>        0.000
     20 H          12.7378    3.8402   -0.9851 H.spc      1 <1>        0.000
     21 H           8.6646    3.5501   -2.0383 H.spc      1 <1>        0.000
     22 H           9.4588    2.2323   -1.1701 H.spc      1 <1>        0.000
@<TRIPOS>BOND
     1    6    7 1  
     2    3    4 2  
     3    2    3 1  
     4    9   11 am 
     5    5    6 2  
     6    9   10 2  
     7    4    5 1  
     8    7    8 2  
     9    8    9 1  
    10    1    2 2  
    11    1   12 1  
    12    1   13 1  
    13    2   14 1  
    14    3   15 1  
    15    4   16 1  
    16    5   17 1  
    17    6   18 1  
    18    7   19 1  
    19    8   20 1  
    20   11   21 1  
    21   11   22 1  
# Name:          frag3-242-3/31924 -- energy: -2.098268
# Creation time: Sat Jun  5 12:52:37 2010


@<TRIPOS>MOLECULE
frag3-242-3/31924 -- energy: -2.098268
   22    21     1     1     1
SMALL
USER_CHARGES


@<TRIPOS>ATOM
      1 C38         6.4091   -1.8928    0.3814 C.2        1 <1>        0.000
      2 C39         7.7202   -2.0725    0.5624 C.2        1 <1>        0.000
      3 C41         8.7461   -1.1880    0.0122 C.2        1 <1>        0.000
      4 C42        10.0623   -1.3284    0.2323 C.2        1 <1>        0.000
      5 C43        11.0878   -0.4461   -0.3240 C.2        1 <1>        0.000
      6 C44        10.8921    0.8582   -0.5874 C.2        1 <1>        0.000
      7 C45        11.9173    1.7429   -1.1475 C.2        1 <1>        0.000
      8 C46        11.7649    2.9599   -1.7006 C.2        1 <1>        0.000
      9 C47        10.5079    3.7303   -1.8582 C.2        1 <1>        0.000
     10 O14        10.1992    4.5612   -1.0161 O.2        1 <1>        0.000
     11 N4          9.7243    3.5234   -2.9350 N.am       1 <1>        0.000
     12 H           6.0508   -1.0471   -0.2056 H.spc      1 <1>        0.000
     13 H           5.6974   -2.5918    0.8207 H.spc      1 <1>        0.000
     14 H           8.0441   -2.9283    1.1547 H.spc      1 <1>        0.000
     15 H           8.4205   -0.3604   -0.6180 H.spc      1 <1>        0.000
     16 H          10.3882   -2.1529    0.8664 H.spc      1 <1>        0.000
     17 H          12.0686   -0.8708   -0.5377 H.spc      1 <1>        0.000
     18 H           9.9118    1.2828   -0.3712 H.spc      1 <1>        0.000
     19 H          12.9390    1.3648   -1.1112 H.spc      1 <1>        0.000
     20 H          12.6711    3.4348   -2.0766 H.spc      1 <1>        0.000
     21 H           8.8661    4.0620   -3.0523 H.spc      1 <1>        0.000
     22 H           9.9895    2.8282   -3.6327 H.spc      1 <1>        0.000
@<TRIPOS>BOND
     1    6    7 1  
     2    3    4 2  
     3    2    3 1  
     4    9   11 am 
     5    5    6 2  
     6    9   10 2  
     7    4    5 1  
     8    7    8 2  
     9    8    9 1  
    10    1    2 2  
    11    1   12 1  
    12    1   13 1  
    13    2   14 1  
    14    3   15 1  
    15    4   16 1  
    16    5   17 1  
    17    6   18 1  
    18    7   19 1  
    19    8   20 1  
    20   11   21 1  
    21   11   22 1  
# Name:          frag3-242-3/31924 -- energy: -2.075271
# Creation time: Sat Jun  5 12:52:37 2010


@<TRIPOS>MOLECULE
frag3-242-3/31924 -- energy: -2.075271
   22    21     1     1     1
SMALL
USER_CHARGES


@<TRIPOS>ATOM
      1 C38         6.6081   -2.2907    0.7925 C.2        1 <1>        0.000
      2 C39         7.7670   -2.8637    0.4484 C.2        1 <1>        0.000
      3 C41         9.0288   -2.1286    0.3390 C.2        1 <1>        0.000
      4 C42         9.1356   -0.9075   -0.2095 C.2        1 <1>        0.000
      5 C43        10.3872   -0.1558   -0.3150 C.2        1 <1>        0.000
      6 C44        10.4871    1.0772   -0.8330 C.2        1 <1>        0.000
      7 C45        11.7468    1.8237   -0.9328 C.2        1 <1>        0.000
      8 C46        11.9506    3.0598   -1.4202 C.2        1 <1>        0.000
      9 C47        10.9394    3.9989   -1.9611 C.2        1 <1>        0.000
     10 O14        10.7988    4.1055   -3.1708 O.2        1 <1>        0.000
     11 N4         10.1817    4.7292   -1.1181 N.am       1 <1>        0.000
     12 H           6.5710   -1.2229    1.0084 H.spc      1 <1>        0.000
     13 H           5.7010   -2.8916    0.8570 H.spc      1 <1>        0.000
     14 H           7.7723   -3.9333    0.2386 H.spc      1 <1>        0.000
     15 H           9.9330   -2.5995    0.7248 H.spc      1 <1>        0.000
     16 H           8.2300   -0.4453   -0.6023 H.spc      1 <1>        0.000
     17 H          11.2980   -0.6294    0.0516 H.spc      1 <1>        0.000
     18 H           9.5786    1.5533   -1.2019 H.spc      1 <1>        0.000
     19 H          12.6333    1.3082   -0.5633 H.spc      1 <1>        0.000
     20 H          12.9816    3.4134   -1.4173 H.spc      1 <1>        0.000
     21 H           9.4854    5.3760   -1.4885 H.spc      1 <1>        0.000
     22 H          10.3048    4.6348   -0.1100 H.spc      1 <1>        0.000
@<TRIPOS>BOND
     1    6    7 1  
     2    3    4 2  
     3    2    3 1  
     4    9   11 am 
     5    5    6 2  
     6    9   10 2  
     7    4    5 1  
     8    7    8 2  
     9    8    9 1  
    10    1    2 2  
    11    1   12 1  
    12    1   13 1  
    13    2   14 1  
    14    3   15 1  
    15    4   16 1  
    16    5   17 1  
    17    6   18 1  
    18    7   19 1  
    19    8   20 1  
    20   11   21 1  
    21   11   22 1  
# Name:          frag3-242-3/31924 -- energy: -2.291497
# Creation time: Sat Jun  5 12:52:37 2010


@<TRIPOS>MOLECULE
frag3-242-3/31924 -- energy: -2.291497
   22    21     1     1     1
SMALL
USER_CHARGES


@<TRIPOS>ATOM
      1 C38         6.8470   -2.3509    1.3886 C.2        1 <1>        0.000
      2 C39         7.5874   -2.2118    0.2852 C.2        1 <1>        0.000
      3 C41         8.7317   -1.3036    0.1840 C.2        1 <1>        0.000
      4 C42         9.5503   -1.2404   -0.8768 C.2        1 <1>        0.000
      5 C43        10.6890   -0.3246   -0.9813 C.2        1 <1>        0.000
      6 C44        10.6782    0.9371   -0.5175 C.2        1 <1>        0.000
      7 C45        11.8205    1.8530   -0.6206 C.2        1 <1>        0.000
      8 C46        11.8625    3.0736   -1.1841 C.2        1 <1>        0.000
      9 C47        10.7494    3.8190   -1.8192 C.2        1 <1>        0.000
     10 O14        10.6451    5.0229   -1.6282 O.2        1 <1>        0.000
     11 N4          9.8702    3.1738   -2.6105 N.am       1 <1>        0.000
     12 H           7.0827   -1.7696    2.2800 H.spc      1 <1>        0.000
     13 H           6.0072   -3.0457    1.3974 H.spc      1 <1>        0.000
     14 H           7.3249   -2.8078   -0.5888 H.spc      1 <1>        0.000
     15 H           8.9307   -0.6372    1.0233 H.spc      1 <1>        0.000
     16 H           9.3562   -1.9121   -1.7130 H.spc      1 <1>        0.000
     17 H          11.5972   -0.6871   -1.4628 H.spc      1 <1>        0.000
     18 H           9.7695    1.3006   -0.0376 H.spc      1 <1>        0.000
     19 H          12.7545    1.4986   -0.1846 H.spc      1 <1>        0.000
     20 H          12.8305    3.5745   -1.1724 H.spc      1 <1>        0.000
     21 H           9.1107    3.6893   -3.0554 H.spc      1 <1>        0.000
     22 H           9.9641    2.1699   -2.7647 H.spc      1 <1>        0.000
@<TRIPOS>BOND
     1    6    7 1  
     2    3    4 2  
     3    2    3 1  
     4    9   11 am 
     5    5    6 2  
     6    9   10 2  
     7    4    5 1  
     8    7    8 2  
     9    8    9 1  
    10    1    2 2  
    11    1   12 1  
    12    1   13 1  
    13    2   14 1  
    14    3   15 1  
    15    4   16 1  
    16    5   17 1  
    17    6   18 1  
    18    7   19 1  
    19    8   20 1  
    20   11   21 1  
    21   11   22 1  
# Name:          frag3-242-3/31924 -- energy: -2.755642
# Creation time: Sat Jun  5 12:52:37 2010


@<TRIPOS>MOLECULE
frag3-242-3/31924 -- energy: -2.755642
   22    21     1     1     1
SMALL
USER_CHARGES


@<TRIPOS>ATOM
      1 C38         7.6796   -2.9450    0.7878 C.2        1 <1>        0.000
      2 C39         7.3711   -1.6835    0.4688 C.2        1 <1>        0.000
      3 C41         8.3680   -0.6722    0.1199 C.2        1 <1>        0.000
      4 C42         9.2814   -0.8259   -0.8545 C.2        1 <1>        0.000
      5 C43        10.2807    0.1798   -1.2099 C.2        1 <1>        0.000
      6 C44        11.1522    0.7145   -0.3362 C.2        1 <1>        0.000
      7 C45        12.1497    1.7270   -0.6947 C.2        1 <1>        0.000
      8 C46        11.9457    2.9190   -1.2902 C.2        1 <1>        0.000
      9 C47        10.6527    3.5178   -1.7009 C.2        1 <1>        0.000
     10 O14        10.5800    4.1245   -2.7610 O.2        1 <1>        0.000
     11 N4          9.5701    3.3921   -0.9095 N.am       1 <1>        0.000
     12 H           8.7213   -3.2657    0.7968 H.spc      1 <1>        0.000
     13 H           6.8893   -3.6525    1.0388 H.spc      1 <1>        0.000
     14 H           6.3204   -1.3936    0.4689 H.spc      1 <1>        0.000
     15 H           8.3707    0.2611    0.6829 H.spc      1 <1>        0.000
     16 H           9.2764   -1.7605   -1.4155 H.spc      1 <1>        0.000
     17 H          10.3221    0.5168   -2.2457 H.spc      1 <1>        0.000
     18 H          11.1146    0.3751    0.6989 H.spc      1 <1>        0.000
     19 H          13.1841    1.4863   -0.4495 H.spc      1 <1>        0.000
     20 H          12.8366    3.5130   -1.4940 H.spc      1 <1>        0.000
     21 H           8.6810    3.8043   -1.1923 H.spc      1 <1>        0.000
     22 H           9.6394    2.8847   -0.0274 H.spc      1 <1>        0.000
@<TRIPOS>BOND
     1    6    7 1  
     2    3    4 2  
     3    2    3 1  
     4    9   11 am 
     5    5    6 2  
     6    9   10 2  
     7    4    5 1  
     8    7    8 2  
     9    8    9 1  
    10    1    2 2  
    11    1   12 1  
    12    1   13 1  
    13    2   14 1  
    14    3   15 1  
    15    4   16 1  
    16    5   17 1  
    17    6   18 1  
    18    7   19 1  
    19    8   20 1  
    20   11   21 1  
    21   11   22 1  
# Name:          frag3-242-3/31924 -- energy: -2.087503
# Creation time: Sat Jun  5 12:52:37 2010


@<TRIPOS>MOLECULE
frag3-242-3/31924 -- energy: -2.087503
   22    21     1     1     1
SMALL
USER_CHARGES


@<TRIPOS>ATOM
      1 C38         6.4186   -1.8656    0.7521 C.2        1 <1>        0.000
      2 C39         7.6707   -2.1209    0.3637 C.2        1 <1>        0.000
      3 C41         8.6939   -1.0922    0.1875 C.2        1 <1>        0.000
      4 C42        10.0086   -1.3418    0.0893 C.2        1 <1>        0.000
      5 C43        11.0304   -0.3131   -0.0971 C.2        1 <1>        0.000
      6 C44        10.9354    0.6861   -0.9915 C.2        1 <1>        0.000
      7 C45        11.9548    1.7227   -1.1739 C.2        1 <1>        0.000
      8 C46        11.7921    3.0027   -1.5586 C.2        1 <1>        0.000
      9 C47        10.5208    3.6958   -1.8756 C.2        1 <1>        0.000
     10 O14         9.4640    3.2605   -1.4451 O.2        1 <1>        0.000
     11 N4         10.5418    4.8138   -2.6313 N.am       1 <1>        0.000
     12 H           6.1100   -0.8406    0.9576 H.spc      1 <1>        0.000
     13 H           5.7053   -2.6822    0.8636 H.spc      1 <1>        0.000
     14 H           7.9456   -3.1571    0.1666 H.spc      1 <1>        0.000
     15 H           8.3674   -0.0537    0.1322 H.spc      1 <1>        0.000
     16 H          10.3362   -2.3795    0.1527 H.spc      1 <1>        0.000
     17 H          11.9231   -0.3590    0.5267 H.spc      1 <1>        0.000
     18 H          10.0455    0.7277   -1.6195 H.spc      1 <1>        0.000
     19 H          12.9812    1.4170   -0.9712 H.spc      1 <1>        0.000
     20 H          12.7007    3.5983   -1.6472 H.spc      1 <1>        0.000
     21 H           9.6716    5.3006   -2.8461 H.spc      1 <1>        0.000
     22 H          11.4279    5.1719   -2.9876 H.spc      1 <1>        0.000
@<TRIPOS>BOND
     1    6    7 1  
     2    3    4 2  
     3    2    3 1  
     4    9   11 am 
     5    5    6 2  
     6    9   10 2  
     7    4    5 1  
     8    7    8 2  
     9    8    9 1  
    10    1    2 2  
    11    1   12 1  
    12    1   13 1  
    13    2   14 1  
    14    3   15 1  
    15    4   16 1  
    16    5   17 1  
    17    6   18 1  
    18    7   19 1  
    19    8   20 1  
    20   11   21 1  
    21   11   22 1  
# Name:          frag3-242-3/31924 -- energy: -0.920570
# Creation time: Sat Jun  5 12:52:37 2010


@<TRIPOS>MOLECULE
frag3-242-3/31924 -- energy: -0.920570
   22    21     1     1     1
SMALL
USER_CHARGES


@<TRIPOS>ATOM
      1 C38         6.9877   -2.5509   -0.3323 C.2        1 <1>        0.000
      2 C39         7.5650   -2.0174    0.7499 C.2        1 <1>        0.000
      3 C41         8.4778   -0.8718    0.6955 C.2        1 <1>        0.000
      4 C42         9.5874   -0.8386   -0.0591 C.2        1 <1>        0.000
      5 C43        10.5001    0.3052   -0.1327 C.2        1 <1>        0.000
      6 C44        11.3081    0.5583   -1.1735 C.2        1 <1>        0.000
      7 C45        12.2140    1.7130   -1.2408 C.2        1 <1>        0.000
      8 C46        11.9030    3.0003   -1.4829 C.2        1 <1>        0.000
      9 C47        10.5610    3.5803   -1.7273 C.2        1 <1>        0.000
     10 O14        10.4340    4.7957   -1.7953 O.2        1 <1>        0.000
     11 N4          9.4928    2.7739   -1.8820 N.am       1 <1>        0.000
     12 H           7.1880   -2.1328   -1.3188 H.spc      1 <1>        0.000
     13 H           6.3170   -3.4037   -0.2277 H.spc      1 <1>        0.000
     14 H           7.3453   -2.4573    1.7227 H.spc      1 <1>        0.000
     15 H           8.2422    0.0026    1.3021 H.spc      1 <1>        0.000
     16 H           9.8248   -1.7194   -0.6556 H.spc      1 <1>        0.000
     17 H          10.5242    0.9942    0.7116 H.spc      1 <1>        0.000
     18 H          11.2915   -0.1319   -2.0170 H.spc      1 <1>        0.000
     19 H          13.2700    1.5009   -1.0738 H.spc      1 <1>        0.000
     20 H          12.7385    3.7001   -1.5014 H.spc      1 <1>        0.000
     21 H           8.5717    3.1755   -2.0569 H.spc      1 <1>        0.000
     22 H           9.6052    1.7618   -1.8242 H.spc      1 <1>        0.000
@<TRIPOS>BOND
     1    6    7 1  
     2    3    4 2  
     3    2    3 1  
     4    9   11 am 
     5    5    6 2  
     6    9   10 2  
     7    4    5 1  
     8    7    8 2  
     9    8    9 1  
    10    1    2 2  
    11    1   12 1  
    12    1   13 1  
    13    2   14 1  
    14    3   15 1  
    15    4   16 1  
    16    5   17 1  
    17    6   18 1  
    18    7   19 1  
    19    8   20 1  
    20   11   21 1  
    21   11   22 1  
# Name:          frag3-242-3/31924 -- energy: -1.853730
# Creation time: Sat Jun  5 12:52:37 2010


@<TRIPOS>MOLECULE
frag3-242-3/31924 -- energy: -1.853730
   22    21     1     1     1
SMALL
USER_CHARGES


@<TRIPOS>ATOM
      1 C38         7.1017   -3.6313    0.7432 C.2        1 <1>        0.000
      2 C39         7.3327   -2.3163    0.7875 C.2        1 <1>        0.000
      3 C41         8.6522   -1.7154    0.5880 C.2        1 <1>        0.000
      4 C42         8.8536   -0.4905    0.0835 C.2        1 <1>        0.000
      5 C43        10.1701    0.1167   -0.1157 C.2        1 <1>        0.000
      6 C44        10.4415    1.0490   -1.0405 C.2        1 <1>        0.000
      7 C45        11.7649    1.6525   -1.2330 C.2        1 <1>        0.000
      8 C46        12.0671    2.8867   -1.6776 C.2        1 <1>        0.000
      9 C47        11.1249    3.9634   -2.0668 C.2        1 <1>        0.000
     10 O14         9.9712    3.6892   -2.3564 O.2        1 <1>        0.000
     11 N4         11.5513    5.2440   -2.0928 N.am       1 <1>        0.000
     12 H           7.9219   -4.3225    0.5495 H.spc      1 <1>        0.000
     13 H           6.0930   -4.0131    0.9008 H.spc      1 <1>        0.000
     14 H           6.4903   -1.6529    0.9834 H.spc      1 <1>        0.000
     15 H           9.5273   -2.3020    0.8678 H.spc      1 <1>        0.000
     16 H           7.9772    0.0934   -0.1977 H.spc      1 <1>        0.000
     17 H          10.9843   -0.2107    0.5308 H.spc      1 <1>        0.000
     18 H           9.6295    1.3786   -1.6887 H.spc      1 <1>        0.000
     19 H          12.6153    1.0180   -0.9831 H.spc      1 <1>        0.000
     20 H          13.1281    3.1219   -1.7612 H.spc      1 <1>        0.000
     21 H          10.9079    5.9905   -2.3558 H.spc      1 <1>        0.000
     22 H          12.5169    5.4651   -1.8495 H.spc      1 <1>        0.000
@<TRIPOS>BOND
     1    6    7 1  
     2    3    4 2  
     3    2    3 1  
     4    9   11 am 
     5    5    6 2  
     6    9   10 2  
     7    4    5 1  
     8    7    8 2  
     9    8    9 1  
    10    1    2 2  
    11    1   12 1  
    12    1   13 1  
    13    2   14 1  
    14    3   15 1  
    15    4   16 1  
    16    5   17 1  
    17    6   18 1  
    18    7   19 1  
    19    8   20 1  
    20   11   21 1  
    21   11   22 1  
# Name:          frag3-242-3/31924 -- energy: -2.032282
# Creation time: Sat Jun  5 12:52:37 2010


@<TRIPOS>MOLECULE
frag3-242-3/31924 -- energy: -2.032282
   22    21     1     1     1
SMALL
USER_CHARGES


@<TRIPOS>ATOM
      1 C38         6.4346   -2.3535    0.1628 C.2        1 <1>        0.000
      2 C39         7.6863   -2.2228    0.6119 C.2        1 <1>        0.000
      3 C41         8.7291   -1.4755   -0.0976 C.2        1 <1>        0.000
      4 C42         9.8725   -1.0634    0.4679 C.2        1 <1>        0.000
      5 C43        10.9184   -0.3192   -0.2402 C.2        1 <1>        0.000
      6 C44        10.8469    0.9925   -0.5177 C.2        1 <1>        0.000
      7 C45        11.8952    1.7335   -1.2322 C.2        1 <1>        0.000
      8 C46        11.8111    2.9375   -1.8250 C.2        1 <1>        0.000
      9 C47        10.6366    3.8407   -1.8816 C.2        1 <1>        0.000
     10 O14        10.8075    5.0517   -1.8714 O.2        1 <1>        0.000
     11 N4          9.3930    3.3266   -1.9573 N.am       1 <1>        0.000
     12 H           6.1426   -1.8904   -0.7798 H.spc      1 <1>        0.000
     13 H           5.7055   -2.9232    0.7390 H.spc      1 <1>        0.000
     14 H           7.9463   -2.6979    1.5578 H.spc      1 <1>        0.000
     15 H           8.5646   -1.2406   -1.1492 H.spc      1 <1>        0.000
     16 H          10.0348   -1.2963    1.5203 H.spc      1 <1>        0.000
     17 H          11.8070   -0.8632   -0.5605 H.spc      1 <1>        0.000
     18 H           9.9607    1.5387   -0.1945 H.spc      1 <1>        0.000
     19 H          12.8673    1.2437   -1.2891 H.spc      1 <1>        0.000
     20 H          12.7136    3.2916   -2.3231 H.spc      1 <1>        0.000
     21 H           8.5861    3.9486   -2.0066 H.spc      1 <1>        0.000
     22 H           9.2587    2.3155   -1.9653 H.spc      1 <1>        0.000
@<TRIPOS>BOND
     1    6    7 1  
     2    3    4 2  
     3    2    3 1  
     4    9   11 am 
     5    5    6 2  
     6    9   10 2  
     7    4    5 1  
     8    7    8 2  
     9    8    9 1  
    10    1    2 2  
    11    1   12 1  
    12    1   13 1  
    13    2   14 1  
    14    3   15 1  
    15    4   16 1  
    16    5   17 1  
    17    6   18 1  
    18    7   19 1  
    19    8   20 1  
    20   11   21 1  
    21   11   22 1  
# Name:          frag3-242-3/31924 -- energy: -0.843321
# Creation time: Sat Jun  5 12:52:37 2010


@<TRIPOS>MOLECULE
frag3-242-3/31924 -- energy: -0.843321
   22    21     1     1     1
SMALL
USER_CHARGES


@<TRIPOS>ATOM
      1 C38         7.3896   -3.2040    1.3182 C.2        1 <1>        0.000
      2 C39         7.5025   -2.2839    0.3557 C.2        1 <1>        0.000
      3 C41         8.7483   -1.5697    0.0582 C.2        1 <1>        0.000
      4 C42         8.8334   -0.5317   -0.7858 C.2        1 <1>        0.000
      5 C43        10.0756    0.1921   -1.0750 C.2        1 <1>        0.000
      6 C44        10.6223    1.0993   -0.2492 C.2        1 <1>        0.000
      7 C45        11.8699    1.8189   -0.5425 C.2        1 <1>        0.000
      8 C46        12.0294    2.9498   -1.2543 C.2        1 <1>        0.000
      9 C47        10.9789    3.7759   -1.8954 C.2        1 <1>        0.000
     10 O14        11.3026    4.7432   -2.5714 O.2        1 <1>        0.000
     11 N4          9.6785    3.4581   -1.7390 N.am       1 <1>        0.000
     12 H           8.2532   -3.4590    1.9324 H.spc      1 <1>        0.000
     13 H           6.4339   -3.6995    1.4891 H.spc      1 <1>        0.000
     14 H           6.6204   -2.0515   -0.2409 H.spc      1 <1>        0.000
     15 H           9.6603   -1.9031    0.5533 H.spc      1 <1>        0.000
     16 H           7.9228   -0.2054   -1.2883 H.spc      1 <1>        0.000
     17 H          10.5851   -0.0185   -2.0153 H.spc      1 <1>        0.000
     18 H          10.1127    1.3137    0.6902 H.spc      1 <1>        0.000
     19 H          12.7801    1.3817   -0.1320 H.spc      1 <1>        0.000
     20 H          13.0545    3.3005   -1.3738 H.spc      1 <1>        0.000
     21 H           8.9577    4.0251   -2.1854 H.spc      1 <1>        0.000
     22 H           9.4152    2.6505   -1.1743 H.spc      1 <1>        0.000
@<TRIPOS>BOND
     1    6    7 1  
     2    3    4 2  
     3    2    3 1  
     4    9   11 am 
     5    5    6 2  
     6    9   10 2  
     7    4    5 1  
     8    7    8 2  
     9    8    9 1  
    10    1    2 2  
    11    1   12 1  
    12    1   13 1  
    13    2   14 1  
    14    3   15 1  
    15    4   16 1  
    16    5   17 1  
    17    6   18 1  
    18    7   19 1  
    19    8   20 1  
    20   11   21 1  
    21   11   22 1  
# Name:          frag3-242-3/31924 -- energy: -2.481585
# Creation time: Sat Jun  5 12:52:37 2010


@<TRIPOS>MOLECULE
frag3-242-3/31924 -- energy: -2.481585
   22    21     1     1     1
SMALL
USER_CHARGES


@<TRIPOS>ATOM
      1 C38         7.1831   -3.3028    0.4554 C.2        1 <1>        0.000
      2 C39         7.5808   -2.0517    0.7035 C.2        1 <1>        0.000
      3 C41         8.4909   -1.3011   -0.1653 C.2        1 <1>        0.000
      4 C42         9.0375   -0.1213    0.1595 C.2        1 <1>        0.000
      5 C43         9.9582    0.6252   -0.7006 C.2        1 <1>        0.000
      6 C44        11.2665    0.7846   -0.4434 C.2        1 <1>        0.000
      7 C45        12.1831    1.5298   -1.3155 C.2        1 <1>        0.000
      8 C46        11.9796    2.7255   -1.9036 C.2        1 <1>        0.000
      9 C47        10.7886    3.6010   -1.7903 C.2        1 <1>        0.000
     10 O14        10.1812    3.9271   -2.8006 O.2        1 <1>        0.000
     11 N4         10.3816    4.0319   -0.5797 N.am       1 <1>        0.000
     12 H           7.5383   -3.8211   -0.4353 H.spc      1 <1>        0.000
     13 H           6.5035   -3.8052    1.1437 H.spc      1 <1>        0.000
     14 H           7.2072   -1.5619    1.6028 H.spc      1 <1>        0.000
     15 H           8.7390   -1.7290   -1.1366 H.spc      1 <1>        0.000
     16 H           8.7801    0.3107    1.1266 H.spc      1 <1>        0.000
     17 H           9.5564    1.0798   -1.6061 H.spc      1 <1>        0.000
     18 H          11.6708    0.3355    0.4638 H.spc      1 <1>        0.000
     19 H          13.1461    1.0583   -1.5113 H.spc      1 <1>        0.000
     20 H          12.7866    3.0923   -2.5378 H.spc      1 <1>        0.000
     21 H           9.5620    4.6341   -0.5017 H.spc      1 <1>        0.000
     22 H          10.8932    3.7558    0.2584 H.spc      1 <1>        0.000
@<TRIPOS>BOND
     1    6    7 1  
     2    3    4 2  
     3    2    3 1  
     4    9   11 am 
     5    5    6 2  
     6    9   10 2  
     7    4    5 1  
     8    7    8 2  
     9    8    9 1  
    10    1    2 2  
    11    1   12 1  
    12    1   13 1  
    13    2   14 1  
    14    3   15 1  
    15    4   16 1  
    16    5   17 1  
    17    6   18 1  
    18    7   19 1  
    19    8   20 1  
    20   11   21 1  
    21   11   22 1  
# Name:          frag3-242-3/31924 -- energy: -2.172104
# Creation time: Sat Jun  5 12:52:37 2010


@<TRIPOS>MOLECULE
frag3-242-3/31924 -- energy: -2.172104
   22    21     1     1     1
SMALL
USER_CHARGES


@<TRIPOS>ATOM
      1 C38         7.2453   -2.3584    1.4128 C.2        1 <1>        0.000
      2 C39         7.2979   -1.8751    0.1667 C.2        1 <1>        0.000
      3 C41         8.3954   -1.0524   -0.3340 C.2        1 <1>        0.000
      4 C42         9.6874   -1.2466   -0.0105 C.2        1 <1>        0.000
      5 C43        10.7915   -0.4309   -0.5060 C.2        1 <1>        0.000
      6 C44        10.8212    0.9122   -0.4468 C.2        1 <1>        0.000
      7 C45        11.9252    1.7317   -0.9495 C.2        1 <1>        0.000
      8 C46        11.8701    2.9155   -1.5888 C.2        1 <1>        0.000
      9 C47        10.6612    3.7092   -1.9162 C.2        1 <1>        0.000
     10 O14         9.7355    3.7653   -1.1216 O.2        1 <1>        0.000
     11 N4         10.6006    4.3774   -3.0865 N.am       1 <1>        0.000
     12 H           8.0506   -2.1433    2.1152 H.spc      1 <1>        0.000
     13 H           6.3972   -2.9673    1.7258 H.spc      1 <1>        0.000
     14 H           6.4771   -2.1080   -0.5117 H.spc      1 <1>        0.000
     15 H           8.1540   -0.2321   -1.0100 H.spc      1 <1>        0.000
     16 H           9.9248   -2.0674    0.6663 H.spc      1 <1>        0.000
     17 H          11.6449   -0.9420   -0.9517 H.spc      1 <1>        0.000
     18 H           9.9700    1.4227    0.0037 H.spc      1 <1>        0.000
     19 H          12.9250    1.3301   -0.7843 H.spc      1 <1>        0.000
     20 H          12.8244    3.3392   -1.9018 H.spc      1 <1>        0.000
     21 H           9.7771    4.9349   -3.3134 H.spc      1 <1>        0.000
     22 H          11.3782    4.3251   -3.7445 H.spc      1 <1>        0.000
@<TRIPOS>BOND
     1    6    7 1  
     2    3    4 2  
     3    2    3 1  
     4    9   11 am 
     5    5    6 2  
     6    9   10 2  
     7    4    5 1  
     8    7    8 2  
     9    8    9 1  
    10    1    2 2  
    11    1   12 1  
    12    1   13 1  
    13    2   14 1  
    14    3   15 1  
    15    4   16 1  
    16    5   17 1  
    17    6   18 1  
    18    7   19 1  
    19    8   20 1  
    20   11   21 1  
    21   11   22 1  
# Name:          frag3-242-3/31924 -- energy: -1.944025
# Creation time: Sat Jun  5 12:52:37 2010


@<TRIPOS>MOLECULE
frag3-242-3/31924 -- energy: -1.944025
   22    21     1     1     1
SMALL
USER_CHARGES


@<TRIPOS>ATOM
      1 C38         6.6809   -2.5495   -0.2388 C.2        1 <1>        0.000
      2 C39         7.7669   -2.2663    0.4863 C.2        1 <1>        0.000
      3 C41         8.8707   -1.4344    0.0035 C.2        1 <1>        0.000
      4 C42         9.5696   -0.5896    0.7771 C.2        1 <1>        0.000
      5 C43        10.6765    0.2397    0.2948 C.2        1 <1>        0.000
      6 C44        10.7665    0.7094   -0.9614 C.2        1 <1>        0.000
      7 C45        11.8749    1.5414   -1.4441 C.2        1 <1>        0.000
      8 C46        11.8443    2.8309   -1.8270 C.2        1 <1>        0.000
      9 C47        10.6777    3.7452   -1.8418 C.2        1 <1>        0.000
     10 O14        10.6795    4.7115   -2.5929 O.2        1 <1>        0.000
     11 N4          9.6238    3.5099   -1.0362 N.am       1 <1>        0.000
     12 H           6.5821   -2.1538   -1.2496 H.spc      1 <1>        0.000
     13 H           5.8938   -3.1762    0.1805 H.spc      1 <1>        0.000
     14 H           7.8348   -2.6776    1.4934 H.spc      1 <1>        0.000
     15 H           9.1416   -1.5057   -1.0499 H.spc      1 <1>        0.000
     16 H           9.2967   -0.5159    1.8298 H.spc      1 <1>        0.000
     17 H          11.4733    0.4904    0.9951 H.spc      1 <1>        0.000
     18 H           9.9703    0.4578   -1.6620 H.spc      1 <1>        0.000
     19 H          12.8473    1.0521   -1.4995 H.spc      1 <1>        0.000
     20 H          12.7899    3.2535   -2.1667 H.spc      1 <1>        0.000
     21 H           8.8210    4.1389   -1.0499 H.spc      1 <1>        0.000
     22 H           9.6287    2.7027   -0.4126 H.spc      1 <1>        0.000
@<TRIPOS>BOND
     1    6    7 1  
     2    3    4 2  
     3    2    3 1  
     4    9   11 am 
     5    5    6 2  
     6    9   10 2  
     7    4    5 1  
     8    7    8 2  
     9    8    9 1  
    10    1    2 2  
    11    1   12 1  
    12    1   13 1  
    13    2   14 1  
    14    3   15 1  
    15    4   16 1  
    16    5   17 1  
    17    6   18 1  
    18    7   19 1  
    19    8   20 1  
    20   11   21 1  
    21   11   22 1  
# Name:          frag3-242-3/31924 -- energy: -2.591623
# Creation time: Sat Jun  5 12:52:37 2010


@<TRIPOS>MOLECULE
frag3-242-3/31924 -- energy: -2.591623
   22    21     1     1     1
SMALL
USER_CHARGES


@<TRIPOS>ATOM
      1 C38         6.8808   -2.1002    1.0378 C.2        1 <1>        0.000
      2 C39         7.9875   -2.4901    0.3975 C.2        1 <1>        0.000
      3 C41         9.0854   -1.5891    0.0579 C.2        1 <1>        0.000
      4 C42         9.0134   -0.6397   -0.8914 C.2        1 <1>        0.000
      5 C43        10.1021    0.2753   -1.2231 C.2        1 <1>        0.000
      6 C44        10.9243    0.8274   -0.3119 C.2        1 <1>        0.000
      7 C45        12.0180    1.7416   -0.6452 C.2        1 <1>        0.000
      8 C46        11.9434    2.9361   -1.2672 C.2        1 <1>        0.000
      9 C47        10.7238    3.6356   -1.7387 C.2        1 <1>        0.000
     10 O14        10.7253    4.1737   -2.8378 O.2        1 <1>        0.000
     11 N4          9.6272    3.6775   -0.9585 N.am       1 <1>        0.000
     12 H           6.7621   -1.0585    1.3360 H.spc      1 <1>        0.000
     13 H           6.0971   -2.8239    1.2617 H.spc      1 <1>        0.000
     14 H           8.0753   -3.5387    0.1131 H.spc      1 <1>        0.000
     15 H          10.0208   -1.6926    0.6078 H.spc      1 <1>        0.000
     16 H           8.0818   -0.5470   -1.4497 H.spc      1 <1>        0.000
     17 H          10.2582    0.5263   -2.2723 H.spc      1 <1>        0.000
     18 H          10.7664    0.5789    0.7376 H.spc      1 <1>        0.000
     19 H          13.0170    1.4165   -0.3545 H.spc      1 <1>        0.000
     20 H          12.8900    3.4468   -1.4439 H.spc      1 <1>        0.000
     21 H           8.7891    4.1604   -1.2822 H.spc      1 <1>        0.000
     22 H           9.6346    3.2263   -0.0437 H.spc      1 <1>        0.000
@<TRIPOS>BOND
     1    6    7 1  
     2    3    4 2  
     3    2    3 1  
     4    9   11 am 
     5    5    6 2  
     6    9   10 2  
     7    4    5 1  
     8    7    8 2  
     9    8    9 1  
    10    1    2 2  
    11    1   12 1  
    12    1   13 1  
    13    2   14 1  
    14    3   15 1  
    15    4   16 1  
    16    5   17 1  
    17    6   18 1  
    18    7   19 1  
    19    8   20 1  
    20   11   21 1  
    21   11   22 1  
# Name:          frag3-242-3/31924 -- energy: -2.188559
# Creation time: Sat Jun  5 12:52:37 2010


@<TRIPOS>MOLECULE
frag3-242-3/31924 -- energy: -2.188559
   22    21     1     1     1
SMALL
USER_CHARGES


@<TRIPOS>ATOM
      1 C38         6.4820   -2.2224    0.5486 C.2        1 <1>        0.000
      2 C39         7.7476   -2.6385    0.6624 C.2        1 <1>        0.000
      3 C41         8.8938   -1.7287    0.7400 C.2        1 <1>        0.000
      4 C42         9.4027   -1.0774   -0.3168 C.2        1 <1>        0.000
      5 C43        10.5385   -0.1540   -0.2482 C.2        1 <1>        0.000
      6 C44        10.7126    0.8889   -1.0735 C.2        1 <1>        0.000
      7 C45        11.8510    1.8132   -0.9937 C.2        1 <1>        0.000
      8 C46        11.9054    3.1053   -1.3612 C.2        1 <1>        0.000
      9 C47        10.8132    3.9359   -1.9229 C.2        1 <1>        0.000
     10 O14        10.4982    4.9766   -1.3634 O.2        1 <1>        0.000
     11 N4         10.1861    3.5492   -3.0517 N.am       1 <1>        0.000
     12 H           6.2604   -1.1559    0.5090 H.spc      1 <1>        0.000
     13 H           5.6719   -2.9497    0.4954 H.spc      1 <1>        0.000
     14 H           7.9368   -3.7113    0.6994 H.spc      1 <1>        0.000
     15 H           9.3599   -1.5720    1.7128 H.spc      1 <1>        0.000
     16 H           8.9413   -1.2461   -1.2898 H.spc      1 <1>        0.000
     17 H          11.2898   -0.3256    0.5227 H.spc      1 <1>        0.000
     18 H           9.9656    1.0604   -1.8486 H.spc      1 <1>        0.000
     19 H          12.7713    1.3977   -0.5832 H.spc      1 <1>        0.000
     20 H          12.8671    3.6014   -1.2306 H.spc      1 <1>        0.000
     21 H           9.4427    4.1261   -3.4454 H.spc      1 <1>        0.000
     22 H          10.4549    2.6797   -3.5122 H.spc      1 <1>        0.000
@<TRIPOS>BOND
     1    6    7 1  
     2    3    4 2  
     3    2    3 1  
     4    9   11 am 
     5    5    6 2  
     6    9   10 2  
     7    4    5 1  
     8    7    8 2  
     9    8    9 1  
    10    1    2 2  
    11    1   12 1  
    12    1   13 1  
    13    2   14 1  
    14    3   15 1  
    15    4   16 1  
    16    5   17 1  
    17    6   18 1  
    18    7   19 1  
    19    8   20 1  
    20   11   21 1  
    21   11   22 1  
# Name:          frag3-242-3/31924 -- energy: -1.993430
# Creation time: Sat Jun  5 12:52:37 2010


@<TRIPOS>MOLECULE
frag3-242-3/31924 -- energy: -1.993430
   22    21     1     1     1
SMALL
USER_CHARGES


@<TRIPOS>ATOM
      1 C38         6.9831   -3.4472    0.6040 C.2        1 <1>        0.000
      2 C39         7.3608   -2.1717    0.7270 C.2        1 <1>        0.000
      3 C41         8.5971   -1.6317    0.1582 C.2        1 <1>        0.000
      4 C42         9.2169   -0.5330    0.6113 C.2        1 <1>        0.000
      5 C43        10.4567    0.0058    0.0497 C.2        1 <1>        0.000
      6 C44        10.5192    1.0997   -0.7255 C.2        1 <1>        0.000
      7 C45        11.7644    1.6338   -1.2890 C.2        1 <1>        0.000
      8 C46        11.9723    2.8200   -1.8895 C.2        1 <1>        0.000
      9 C47        10.9883    3.9069   -2.1104 C.2        1 <1>        0.000
     10 O14        10.2906    4.2928   -1.1854 O.2        1 <1>        0.000
     11 N4         10.8817    4.4726   -3.3308 N.am       1 <1>        0.000
     12 H           7.6092   -4.1505    0.0549 H.spc      1 <1>        0.000
     13 H           6.0488   -3.7846    1.0527 H.spc      1 <1>        0.000
     14 H           6.7117   -1.4946    1.2823 H.spc      1 <1>        0.000
     15 H           9.0417   -2.1565   -0.6874 H.spc      1 <1>        0.000
     16 H           8.7682   -0.0060    1.4534 H.spc      1 <1>        0.000
     17 H          11.3878   -0.5141    0.2753 H.spc      1 <1>        0.000
     18 H           9.5895    1.6226   -0.9499 H.spc      1 <1>        0.000
     19 H          12.6360    0.9839   -1.2109 H.spc      1 <1>        0.000
     20 H          12.9822    3.0032   -2.2564 H.spc      1 <1>        0.000
     21 H          10.2146    5.2284   -3.4861 H.spc      1 <1>        0.000
     22 H          11.4682    4.1444   -4.0981 H.spc      1 <1>        0.000
@<TRIPOS>BOND
     1    6    7 1  
     2    3    4 2  
     3    2    3 1  
     4    9   11 am 
     5    5    6 2  
     6    9   10 2  
     7    4    5 1  
     8    7    8 2  
     9    8    9 1  
    10    1    2 2  
    11    1   12 1  
    12    1   13 1  
    13    2   14 1  
    14    3   15 1  
    15    4   16 1  
    16    5   17 1  
    17    6   18 1  
    18    7   19 1  
    19    8   20 1  
    20   11   21 1  
    21   11   22 1  
# Name:          frag3-242-3/31924 -- energy: -1.918624
# Creation time: Sat Jun  5 12:52:37 2010


@<TRIPOS>MOLECULE
frag3-242-3/31924 -- energy: -1.918624
   22    21     1     1     1
SMALL
USER_CHARGES


@<TRIPOS>ATOM
      1 C38         7.2428   -2.7339    1.1536 C.2        1 <1>        0.000
      2 C39         7.3005   -2.0225    0.0222 C.2        1 <1>        0.000
      3 C41         8.4722   -1.2620   -0.3936 C.2        1 <1>        0.000
      4 C42         9.5123   -0.9784    0.4147 C.2        1 <1>        0.000
      5 C43        10.6903   -0.2256    0.0076 C.2        1 <1>        0.000
      6 C44        10.6543    0.8648   -0.7798 C.2        1 <1>        0.000
      7 C45        11.8332    1.6223   -1.1937 C.2        1 <1>        0.000
      8 C46        11.9030    2.8714   -1.6917 C.2        1 <1>        0.000
      9 C47        10.7792    3.8096   -1.9280 C.2        1 <1>        0.000
     10 O14         9.8600    3.4855   -2.6643 O.2        1 <1>        0.000
     11 N4         10.7833    5.0167   -1.3274 N.am       1 <1>        0.000
     12 H           8.1034   -2.7659    1.8217 H.spc      1 <1>        0.000
     13 H           6.3352   -3.2815    1.4073 H.spc      1 <1>        0.000
     14 H           6.4230   -2.0110   -0.6243 H.spc      1 <1>        0.000
     15 H           8.5094   -0.9006   -1.4213 H.spc      1 <1>        0.000
     16 H           9.4689   -1.3369    1.4432 H.spc      1 <1>        0.000
     17 H          11.6625   -0.5669    0.3631 H.spc      1 <1>        0.000
     18 H           9.6809    1.2058   -1.1324 H.spc      1 <1>        0.000
     19 H          12.7867    1.1055   -1.0844 H.spc      1 <1>        0.000
     20 H          12.8979    3.2338   -1.9503 H.spc      1 <1>        0.000
     21 H          10.0145    5.6680   -1.4862 H.spc      1 <1>        0.000
     22 H          11.5552    5.2786   -0.7142 H.spc      1 <1>        0.000
@<TRIPOS>BOND
     1    6    7 1  
     2    3    4 2  
     3    2    3 1  
     4    9   11 am 
     5    5    6 2  
     6    9   10 2  
     7    4    5 1  
     8    7    8 2  
     9    8    9 1  
    10    1    2 2  
    11    1   12 1  
    12    1   13 1  
    13    2   14 1  
    14    3   15 1  
    15    4   16 1  
    16    5   17 1  
    17    6   18 1  
    18    7   19 1  
    19    8   20 1  
    20   11   21 1  
    21   11   22 1  
# Name:          frag3-242-3/31924 -- energy: -2.240027
# Creation time: Sat Jun  5 12:52:37 2010


@<TRIPOS>MOLECULE
frag3-242-3/31924 -- energy: -2.240027
   22    21     1     1     1
SMALL
USER_CHARGES


@<TRIPOS>ATOM
      1 C38         7.2027   -3.3000    0.7297 C.2        1 <1>        0.000
      2 C39         7.5130   -2.0036    0.8182 C.2        1 <1>        0.000
      3 C41         8.4752   -1.3362   -0.0607 C.2        1 <1>        0.000
      4 C42         9.0268   -0.1422    0.1960 C.2        1 <1>        0.000
      5 C43         9.9997    0.5220   -0.6726 C.2        1 <1>        0.000
      6 C44        11.2134    0.9325   -0.2712 C.2        1 <1>        0.000
      7 C45        12.1838    1.5932   -1.1521 C.2        1 <1>        0.000
      8 C46        12.0102    2.7076   -1.8912 C.2        1 <1>        0.000
      9 C47        10.8034    3.5649   -1.9691 C.2        1 <1>        0.000
     10 O14        10.0375    3.6275   -1.0200 O.2        1 <1>        0.000
     11 N4         10.5654    4.2823   -3.0875 N.am       1 <1>        0.000
     12 H           7.6756   -3.9230   -0.0295 H.spc      1 <1>        0.000
     13 H           6.4766   -3.7347    1.4166 H.spc      1 <1>        0.000
     14 H           7.0219   -1.4089    1.5885 H.spc      1 <1>        0.000
     15 H           8.7611   -1.8428   -0.9825 H.spc      1 <1>        0.000
     16 H           8.7313    0.3683    1.1126 H.spc      1 <1>        0.000
     17 H           9.7210    0.6945   -1.7122 H.spc      1 <1>        0.000
     18 H          11.4942    0.7655    0.7687 H.spc      1 <1>        0.000
     19 H          13.1661    1.1253   -1.2169 H.spc      1 <1>        0.000
     20 H          12.8578    3.0144   -2.5040 H.spc      1 <1>        0.000
     21 H           9.7417    4.8813   -3.1435 H.spc      1 <1>        0.000
     22 H          11.2092    4.2254   -3.8766 H.spc      1 <1>        0.000
@<TRIPOS>BOND
     1    6    7 1  
     2    3    4 2  
     3    2    3 1  
     4    9   11 am 
     5    5    6 2  
     6    9   10 2  
     7    4    5 1  
     8    7    8 2  
     9    8    9 1  
    10    1    2 2  
    11    1   12 1  
    12    1   13 1  
    13    2   14 1  
    14    3   15 1  
    15    4   16 1  
    16    5   17 1  
    17    6   18 1  
    18    7   19 1  
    19    8   20 1  
    20   11   21 1  
    21   11   22 1  
# Name:          frag3-242-3/31924 -- energy: -2.012801
# Creation time: Sat Jun  5 12:52:37 2010


@<TRIPOS>MOLECULE
frag3-242-3/31924 -- energy: -2.012801
   22    21     1     1     1
SMALL
USER_CHARGES


@<TRIPOS>ATOM
      1 C38         6.9328   -1.9323    1.3781 C.2        1 <1>        0.000
      2 C39         7.6095   -2.4897    0.3675 C.2        1 <1>        0.000
      3 C41         8.6094   -1.7756   -0.4247 C.2        1 <1>        0.000
      4 C42         9.3348   -0.7440    0.0395 C.2        1 <1>        0.000
      5 C43        10.3418   -0.0236   -0.7358 C.2        1 <1>        0.000
      6 C44        11.0683    1.0032   -0.2697 C.2        1 <1>        0.000
      7 C45        12.0758    1.7187   -1.0581 C.2        1 <1>        0.000
      8 C46        11.9274    2.8509   -1.7743 C.2        1 <1>        0.000
      9 C47        10.7064    3.6799   -1.9120 C.2        1 <1>        0.000
     10 O14         9.6417    3.2784   -1.4697 O.2        1 <1>        0.000
     11 N4         10.7831    4.8822   -2.5212 N.am       1 <1>        0.000
     12 H           7.1154   -0.8922    1.6482 H.spc      1 <1>        0.000
     13 H           6.1989   -2.5183    1.9314 H.spc      1 <1>        0.000
     14 H           7.4044   -3.5316    0.1217 H.spc      1 <1>        0.000
     15 H           8.7763   -2.0989   -1.4522 H.spc      1 <1>        0.000
     16 H           9.1596   -0.4223    1.0661 H.spc      1 <1>        0.000
     17 H          10.5147   -0.3424   -1.7637 H.spc      1 <1>        0.000
     18 H          10.8991    1.3251    0.7579 H.spc      1 <1>        0.000
     19 H          13.0730    1.2787   -1.0663 H.spc      1 <1>        0.000
     20 H          12.8080    3.1972   -2.3153 H.spc      1 <1>        0.000
     21 H           9.9484    5.4610   -2.6141 H.spc      1 <1>        0.000
     22 H          11.6758    5.2118   -2.8886 H.spc      1 <1>        0.000
@<TRIPOS>BOND
     1    6    7 1  
     2    3    4 2  
     3    2    3 1  
     4    9   11 am 
     5    5    6 2  
     6    9   10 2  
     7    4    5 1  
     8    7    8 2  
     9    8    9 1  
    10    1    2 2  
    11    1   12 1  
    12    1   13 1  
    13    2   14 1  
    14    3   15 1  
    15    4   16 1  
    16    5   17 1  
    17    6   18 1  
    18    7   19 1  
    19    8   20 1  
    20   11   21 1  
    21   11   22 1  
# Name:          frag3-242-3/31924 -- energy: -2.444942
# Creation time: Sat Jun  5 12:52:37 2010


@<TRIPOS>MOLECULE
frag3-242-3/31924 -- energy: -2.444942
   22    21     1     1     1
SMALL
USER_CHARGES


@<TRIPOS>ATOM
      1 C38         7.6536   -2.8424    1.0389 C.2        1 <1>        0.000
      2 C39         7.3569   -1.5933    0.6654 C.2        1 <1>        0.000
      3 C41         8.3563   -0.6166    0.2459 C.2        1 <1>        0.000
      4 C42         9.2477   -0.8273   -0.7397 C.2        1 <1>        0.000
      5 C43        10.2505    0.1419   -1.1647 C.2        1 <1>        0.000
      6 C44        11.1502    0.7088   -0.3397 C.2        1 <1>        0.000
      7 C45        12.1509    1.6867   -0.7671 C.2        1 <1>        0.000
      8 C46        11.9514    2.8531   -1.4177 C.2        1 <1>        0.000
      9 C47        10.6564    3.4490   -1.8268 C.2        1 <1>        0.000
     10 O14         9.6197    3.0824   -1.2970 O.2        1 <1>        0.000
     11 N4         10.6376    4.4057   -2.7780 N.am       1 <1>        0.000
     12 H           8.6903   -3.1790    1.0405 H.spc      1 <1>        0.000
     13 H           6.8588   -3.5240    1.3417 H.spc      1 <1>        0.000
     14 H           6.3106   -1.2878    0.6748 H.spc      1 <1>        0.000
     15 H           8.3824    0.3427    0.7627 H.spc      1 <1>        0.000
     16 H           9.2181   -1.7873   -1.2551 H.spc      1 <1>        0.000
     17 H          10.2730    0.4253   -2.2170 H.spc      1 <1>        0.000
     18 H          11.1322    0.4216    0.7116 H.spc      1 <1>        0.000
     19 H          13.1868    1.4434   -0.5309 H.spc      1 <1>        0.000
     20 H          12.8455    3.4225   -1.6715 H.spc      1 <1>        0.000
     21 H           9.7527    4.8281   -3.0591 H.spc      1 <1>        0.000
     22 H          11.5083    4.7066   -3.2160 H.spc      1 <1>        0.000
@<TRIPOS>BOND
     1    6    7 1  
     2    3    4 2  
     3    2    3 1  
     4    9   11 am 
     5    5    6 2  
     6    9   10 2  
     7    4    5 1  
     8    7    8 2  
     9    8    9 1  
    10    1    2 2  
    11    1   12 1  
    12    1   13 1  
    13    2   14 1  
    14    3   15 1  
    15    4   16 1  
    16    5   17 1  
    17    6   18 1  
    18    7   19 1  
    19    8   20 1  
    20   11   21 1  
    21   11   22 1  
# Name:          frag3-242-3/31924 -- energy: -2.409967
# Creation time: Sat Jun  5 12:52:37 2010


@<TRIPOS>MOLECULE
frag3-242-3/31924 -- energy: -2.409967
   22    21     1     1     1
SMALL
USER_CHARGES


@<TRIPOS>ATOM
      1 C38         6.9387   -2.7713   -0.2191 C.2        1 <1>        0.000
      2 C39         7.8277   -2.1017    0.5189 C.2        1 <1>        0.000
      3 C41         8.7817   -1.1414   -0.0288 C.2        1 <1>        0.000
      4 C42         9.3269   -0.1325    0.6684 C.2        1 <1>        0.000
      5 C43        10.2873    0.8212    0.1221 C.2        1 <1>        0.000
      6 C44        11.1712    0.5260   -0.8496 C.2        1 <1>        0.000
      7 C45        12.1283    1.4851   -1.4039 C.2        1 <1>        0.000
      8 C46        11.8953    2.7484   -1.8132 C.2        1 <1>        0.000
      9 C47        10.6095    3.4871   -1.7899 C.2        1 <1>        0.000
     10 O14        10.6172    4.7024   -1.6451 O.2        1 <1>        0.000
     11 N4          9.4473    2.8248   -1.9403 N.am       1 <1>        0.000
     12 H           6.8968   -2.6146   -1.2970 H.spc      1 <1>        0.000
     13 H           6.2550   -3.4745    0.2564 H.spc      1 <1>        0.000
     14 H           7.8421   -2.2827    1.5937 H.spc      1 <1>        0.000
     15 H           9.0704   -1.2514   -1.0741 H.spc      1 <1>        0.000
     16 H           9.0330   -0.0177    1.7117 H.spc      1 <1>        0.000
     17 H          10.2890    1.8339    0.5253 H.spc      1 <1>        0.000
     18 H          11.1744   -0.4887   -1.2477 H.spc      1 <1>        0.000
     19 H          13.1562    1.1346   -1.4972 H.spc      1 <1>        0.000
     20 H          12.7540    3.2913   -2.2082 H.spc      1 <1>        0.000
     21 H           8.5646    3.3358   -1.9341 H.spc      1 <1>        0.000
     22 H           9.4494    1.8119   -2.0605 H.spc      1 <1>        0.000
@<TRIPOS>BOND
     1    6    7 1  
     2    3    4 2  
     3    2    3 1  
     4    9   11 am 
     5    5    6 2  
     6    9   10 2  
     7    4    5 1  
     8    7    8 2  
     9    8    9 1  
    10    1    2 2  
    11    1   12 1  
    12    1   13 1  
    13    2   14 1  
    14    3   15 1  
    15    4   16 1  
    16    5   17 1  
    17    6   18 1  
    18    7   19 1  
    19    8   20 1  
    20   11   21 1  
    21   11   22 1  
# Name:          frag3-242-3/31924 -- energy: -2.333984
# Creation time: Sat Jun  5 12:52:37 2010


@<TRIPOS>MOLECULE
frag3-242-3/31924 -- energy: -2.333984
   22    21     1     1     1
SMALL
USER_CHARGES


@<TRIPOS>ATOM
      1 C38         7.5656   -3.0711    1.3418 C.2        1 <1>        0.000
      2 C39         7.5599   -2.1039    0.4217 C.2        1 <1>        0.000
      3 C41         8.7185   -1.2813    0.0954 C.2        1 <1>        0.000
      4 C42         8.7505   -0.3635   -0.8835 C.2        1 <1>        0.000
      5 C43         9.9081    0.4642   -1.2000 C.2        1 <1>        0.000
      6 C44        10.8380    0.8368   -0.3001 C.2        1 <1>        0.000
      7 C45        12.0006    1.6635   -0.6183 C.2        1 <1>        0.000
      8 C46        12.0303    2.8320   -1.2919 C.2        1 <1>        0.000
      9 C47        10.8800    3.5840   -1.8496 C.2        1 <1>        0.000
     10 O14        10.3528    3.2070   -2.8859 O.2        1 <1>        0.000
     11 N4         10.4271    4.6803   -1.2100 N.am       1 <1>        0.000
     12 H           8.4759   -3.2851    1.9019 H.spc      1 <1>        0.000
     13 H           6.6600   -3.6468    1.5330 H.spc      1 <1>        0.000
     14 H           6.6319   -1.9177   -0.1189 H.spc      1 <1>        0.000
     15 H           9.6224   -1.4215    0.6881 H.spc      1 <1>        0.000
     16 H           7.8499   -0.2278   -1.4824 H.spc      1 <1>        0.000
     17 H          10.0284    0.8025   -2.2292 H.spc      1 <1>        0.000
     18 H          10.7161    0.5010    0.7297 H.spc      1 <1>        0.000
     19 H          12.9627    1.2896   -0.2680 H.spc      1 <1>        0.000
     20 H          13.0145    3.2751   -1.4440 H.spc      1 <1>        0.000
     21 H           9.6380    5.2030   -1.5901 H.spc      1 <1>        0.000
     22 H          10.8734    4.9874   -0.3457 H.spc      1 <1>        0.000
@<TRIPOS>BOND
     1    6    7 1  
     2    3    4 2  
     3    2    3 1  
     4    9   11 am 
     5    5    6 2  
     6    9   10 2  
     7    4    5 1  
     8    7    8 2  
     9    8    9 1  
    10    1    2 2  
    11    1   12 1  
    12    1   13 1  
    13    2   14 1  
    14    3   15 1  
    15    4   16 1  
    16    5   17 1  
    17    6   18 1  
    18    7   19 1  
    19    8   20 1  
    20   11   21 1  
    21   11   22 1  
# Name:          frag3-242-3/31924 -- energy: -2.294359
# Creation time: Sat Jun  5 12:52:37 2010


@<TRIPOS>MOLECULE
frag3-242-3/31924 -- energy: -2.294359
   22    21     1     1     1
SMALL
USER_CHARGES


@<TRIPOS>ATOM
      1 C38         7.2851   -2.5208    1.1797 C.2        1 <1>        0.000
      2 C39         7.3155   -1.8814    0.0053 C.2        1 <1>        0.000
      3 C41         8.4090   -1.0038   -0.4073 C.2        1 <1>        0.000
      4 C42         9.7103   -1.2903   -0.2221 C.2        1 <1>        0.000
      5 C43        10.8099   -0.4198   -0.6326 C.2        1 <1>        0.000
      6 C44        10.8354    0.9079   -0.4220 C.2        1 <1>        0.000
      7 C45        11.9350    1.7821   -0.8381 C.2        1 <1>        0.000
      8 C46        11.8681    2.9859   -1.4349 C.2        1 <1>        0.000
      9 C47        10.6503    3.7504   -1.7964 C.2        1 <1>        0.000
     10 O14        10.5794    4.2880   -2.8932 O.2        1 <1>        0.000
     11 N4          9.6331    3.8501   -0.9189 N.am       1 <1>        0.000
     12 H           8.1054   -2.4003    1.8872 H.spc      1 <1>        0.000
     13 H           6.4400   -3.1624    1.4292 H.spc      1 <1>        0.000
     14 H           6.4802   -2.0223   -0.6806 H.spc      1 <1>        0.000
     15 H           8.1552   -0.0619   -0.8936 H.spc      1 <1>        0.000
     16 H           9.9606   -2.2324    0.2656 H.spc      1 <1>        0.000
     17 H          11.6608   -0.8742   -1.1401 H.spc      1 <1>        0.000
     18 H           9.9864    1.3614    0.0894 H.spc      1 <1>        0.000
     19 H          12.9390    1.4080   -0.6378 H.spc      1 <1>        0.000
     20 H          12.8210    3.4541   -1.6816 H.spc      1 <1>        0.000
     21 H           8.7955    4.3769   -1.1667 H.spc      1 <1>        0.000
     22 H           9.7004    3.3988   -0.0066 H.spc      1 <1>        0.000
@<TRIPOS>BOND
     1    6    7 1  
     2    3    4 2  
     3    2    3 1  
     4    9   11 am 
     5    5    6 2  
     6    9   10 2  
     7    4    5 1  
     8    7    8 2  
     9    8    9 1  
    10    1    2 2  
    11    1   12 1  
    12    1   13 1  
    13    2   14 1  
    14    3   15 1  
    15    4   16 1  
    16    5   17 1  
    17    6   18 1  
    18    7   19 1  
    19    8   20 1  
    20   11   21 1  
    21   11   22 1  
# Name:          frag3-242-3/31924 -- energy: -2.298281
# Creation time: Sat Jun  5 12:52:37 2010


@<TRIPOS>MOLECULE
frag3-242-3/31924 -- energy: -2.298281
   22    21     1     1     1
SMALL
USER_CHARGES


@<TRIPOS>ATOM
      1 C38         7.2603   -2.1246    1.4175 C.2        1 <1>        0.000
      2 C39         7.4703   -2.2205    0.0999 C.2        1 <1>        0.000
      3 C41         8.3515   -1.3244   -0.6441 C.2        1 <1>        0.000
      4 C42         9.4079   -0.6924   -0.1043 C.2        1 <1>        0.000
      5 C43        10.3022    0.2008   -0.8325 C.2        1 <1>        0.000
      6 C44        11.3585    0.8288   -0.2936 C.2        1 <1>        0.000
      7 C45        12.2479    1.7227   -1.0374 C.2        1 <1>        0.000
      8 C46        11.9319    2.8653   -1.6827 C.2        1 <1>        0.000
      9 C47        10.6023    3.5167   -1.7659 C.2        1 <1>        0.000
     10 O14         9.7230    3.0173   -2.4517 O.2        1 <1>        0.000
     11 N4         10.3754    4.6585   -1.0858 N.am       1 <1>        0.000
     12 H           7.7598   -1.3458    1.9937 H.spc      1 <1>        0.000
     13 H           6.5897   -2.8253    1.9149 H.spc      1 <1>        0.000
     14 H           6.9560   -3.0100   -0.4480 H.spc      1 <1>        0.000
     15 H           8.1398   -1.1582   -1.7003 H.spc      1 <1>        0.000
     16 H           9.6109   -0.8593    0.9535 H.spc      1 <1>        0.000
     17 H          10.0979    0.3702   -1.8897 H.spc      1 <1>        0.000
     18 H          11.5673    0.6631    0.7633 H.spc      1 <1>        0.000
     19 H          13.2968    1.4286   -1.0747 H.spc      1 <1>        0.000
     20 H          12.7481    3.3670   -2.2026 H.spc      1 <1>        0.000
     21 H           9.4637    5.1126   -1.1413 H.spc      1 <1>        0.000
     22 H          11.1154    5.0682   -0.5158 H.spc      1 <1>        0.000
@<TRIPOS>BOND
     1    6    7 1  
     2    3    4 2  
     3    2    3 1  
     4    9   11 am 
     5    5    6 2  
     6    9   10 2  
     7    4    5 1  
     8    7    8 2  
     9    8    9 1  
    10    1    2 2  
    11    1   12 1  
    12    1   13 1  
    13    2   14 1  
    14    3   15 1  
    15    4   16 1  
    16    5   17 1  
    17    6   18 1  
    18    7   19 1  
    19    8   20 1  
    20   11   21 1  
    21   11   22 1  
# Name:          frag3-242-3/31924 -- energy: -2.212367
# Creation time: Sat Jun  5 12:52:37 2010


@<TRIPOS>MOLECULE
frag3-242-3/31924 -- energy: -2.212367
   22    21     1     1     1
SMALL
USER_CHARGES


@<TRIPOS>ATOM
      1 C38         6.6917   -2.9565    0.5748 C.2        1 <1>        0.000
      2 C39         7.6269   -2.0624    0.9069 C.2        1 <1>        0.000
      3 C41         8.4504   -1.3461   -0.0678 C.2        1 <1>        0.000
      4 C42         9.4013   -0.4593    0.2550 C.2        1 <1>        0.000
      5 C43        10.2345    0.2522   -0.7144 C.2        1 <1>        0.000
      6 C44        11.3603    0.9135   -0.4050 C.2        1 <1>        0.000
      7 C45        12.1881    1.6216   -1.3872 C.2        1 <1>        0.000
      8 C46        11.9119    2.7720   -2.0345 C.2        1 <1>        0.000
      9 C47        10.7110    3.6281   -1.8844 C.2        1 <1>        0.000
     10 O14         9.5971    3.1327   -1.9560 O.2        1 <1>        0.000
     11 N4         10.8579    4.9521   -1.6680 N.am       1 <1>        0.000
     12 H           6.5071   -3.1881   -0.4742 H.spc      1 <1>        0.000
     13 H           6.1131   -3.4545    1.3528 H.spc      1 <1>        0.000
     14 H           7.7858   -1.8544    1.9650 H.spc      1 <1>        0.000
     15 H           8.2790   -1.5471   -1.1253 H.spc      1 <1>        0.000
     16 H           9.5655   -0.2538    1.3128 H.spc      1 <1>        0.000
     17 H           9.9197    0.2446   -1.7579 H.spc      1 <1>        0.000
     18 H          11.6783    0.9252    0.6375 H.spc      1 <1>        0.000
     19 H          13.1469    1.1601   -1.6236 H.spc      1 <1>        0.000
     20 H          12.6589    3.1120   -2.7518 H.spc      1 <1>        0.000
     21 H          10.0353    5.5461   -1.5631 H.spc      1 <1>        0.000
     22 H          11.7915    5.3588   -1.6094 H.spc      1 <1>        0.000
@<TRIPOS>BOND
     1    6    7 1  
     2    3    4 2  
     3    2    3 1  
     4    9   11 am 
     5    5    6 2  
     6    9   10 2  
     7    4    5 1  
     8    7    8 2  
     9    8    9 1  
    10    1    2 2  
    11    1   12 1  
    12    1   13 1  
    13    2   14 1  
    14    3   15 1  
    15    4   16 1  
    16    5   17 1  
    17    6   18 1  
    18    7   19 1  
    19    8   20 1  
    20   11   21 1  
    21   11   22 1  
# Name:          frag3-242-3/31924 -- energy: -2.207231
# Creation time: Sat Jun  5 12:52:37 2010


@<TRIPOS>MOLECULE
frag3-242-3/31924 -- energy: -2.207231
   22    21     1     1     1
SMALL
USER_CHARGES


@<TRIPOS>ATOM
      1 C38         7.1335   -2.6564   -0.1320 C.2        1 <1>        0.000
      2 C39         7.4860   -1.7987    0.8314 C.2        1 <1>        0.000
      3 C41         8.3447   -0.6378    0.6060 C.2        1 <1>        0.000
      4 C42         9.5979   -0.7129    0.1286 C.2        1 <1>        0.000
      5 C43        10.4615    0.4385   -0.1170 C.2        1 <1>        0.000
      6 C44        11.4188    0.4845   -1.0568 C.2        1 <1>        0.000
      7 C45        12.2731    1.6499   -1.3002 C.2        1 <1>        0.000
      8 C46        11.8986    2.9013   -1.6392 C.2        1 <1>        0.000
      9 C47        10.5206    3.4108   -1.8364 C.2        1 <1>        0.000
     10 O14         9.5632    2.6819   -1.6310 O.2        1 <1>        0.000
     11 N4         10.3333    4.6870   -2.2339 N.am       1 <1>        0.000
     12 H           7.4904   -2.5080   -1.1512 H.spc      1 <1>        0.000
     13 H           6.4893   -3.5040    0.1019 H.spc      1 <1>        0.000
     14 H           7.1124   -1.9750    1.8401 H.spc      1 <1>        0.000
     15 H           7.9439    0.3486    0.8394 H.spc      1 <1>        0.000
     16 H           9.9982   -1.7027   -0.0908 H.spc      1 <1>        0.000
     17 H          10.3190    1.3216    0.5058 H.spc      1 <1>        0.000
     18 H          11.5699   -0.3991   -1.6769 H.spc      1 <1>        0.000
     19 H          13.3454    1.4854   -1.1942 H.spc      1 <1>        0.000
     20 H          12.7035    3.6217   -1.7851 H.spc      1 <1>        0.000
     21 H           9.3879    5.0471   -2.3642 H.spc      1 <1>        0.000
     22 H          11.1372    5.2914   -2.4040 H.spc      1 <1>        0.000
@<TRIPOS>BOND
     1    6    7 1  
     2    3    4 2  
     3    2    3 1  
     4    9   11 am 
     5    5    6 2  
     6    9   10 2  
     7    4    5 1  
     8    7    8 2  
     9    8    9 1  
    10    1    2 2  
    11    1   12 1  
    12    1   13 1  
    13    2   14 1  
    14    3   15 1  
    15    4   16 1  
    16    5   17 1  
    17    6   18 1  
    18    7   19 1  
    19    8   20 1  
    20   11   21 1  
    21   11   22 1  
# Name:          frag3-242-3/31924 -- energy: -2.414057
# Creation time: Sat Jun  5 12:52:37 2010


@<TRIPOS>MOLECULE
frag3-242-3/31924 -- energy: -2.414057
   22    21     1     1     1
SMALL
USER_CHARGES


@<TRIPOS>ATOM
      1 C38         7.0752   -2.2575    1.5402 C.2        1 <1>        0.000
      2 C39         7.7398   -2.1133    0.3911 C.2        1 <1>        0.000
      3 C41         8.7333   -1.0723    0.1493 C.2        1 <1>        0.000
      4 C42         9.2003   -0.7339   -1.0627 C.2        1 <1>        0.000
      5 C43        10.1878    0.3134   -1.3021 C.2        1 <1>        0.000
      6 C44        11.1296    0.6781   -0.4118 C.2        1 <1>        0.000
      7 C45        12.1179    1.7296   -0.6515 C.2        1 <1>        0.000
      8 C46        11.9284    2.9318   -1.2364 C.2        1 <1>        0.000
      9 C47        10.6573    3.4960   -1.7505 C.2        1 <1>        0.000
     10 O14         9.8141    3.9056   -0.9660 O.2        1 <1>        0.000
     11 N4         10.4475    3.5705   -3.0801 N.am       1 <1>        0.000
     12 H           7.2624   -1.5731    2.3676 H.spc      1 <1>        0.000
     13 H           6.3455   -3.0596    1.6508 H.spc      1 <1>        0.000
     14 H           7.5274   -2.8156   -0.4150 H.spc      1 <1>        0.000
     15 H           9.1230   -0.5324    1.0123 H.spc      1 <1>        0.000
     16 H           8.8163   -1.2777   -1.9258 H.spc      1 <1>        0.000
     17 H          10.1613    0.8322   -2.2604 H.spc      1 <1>        0.000
     18 H          11.1574    0.1582    0.5458 H.spc      1 <1>        0.000
     19 H          13.1330    1.5162   -0.3165 H.spc      1 <1>        0.000
     20 H          12.8125    3.5604   -1.3430 H.spc      1 <1>        0.000
     21 H           9.5803    3.9708   -3.4379 H.spc      1 <1>        0.000
     22 H          11.1560    3.2265   -3.7283 H.spc      1 <1>        0.000
@<TRIPOS>BOND
     1    6    7 1  
     2    3    4 2  
     3    2    3 1  
     4    9   11 am 
     5    5    6 2  
     6    9   10 2  
     7    4    5 1  
     8    7    8 2  
     9    8    9 1  
    10    1    2 2  
    11    1   12 1  
    12    1   13 1  
    13    2   14 1  
    14    3   15 1  
    15    4   16 1  
    16    5   17 1  
    17    6   18 1  
    18    7   19 1  
    19    8   20 1  
    20   11   21 1  
    21   11   22 1  
# Name:          frag3-242-3/31924 -- energy: -2.086591
# Creation time: Sat Jun  5 12:52:37 2010


@<TRIPOS>MOLECULE
frag3-242-3/31924 -- energy: -2.086591
   22    21     1     1     1
SMALL
USER_CHARGES


@<TRIPOS>ATOM
      1 C38         7.1568   -2.6871    1.6642 C.2        1 <1>        0.000
      2 C39         7.4702   -2.1107    0.5009 C.2        1 <1>        0.000
      3 C41         8.6787   -1.3178    0.2849 C.2        1 <1>        0.000
      4 C42         9.1586   -0.9833   -0.9226 C.2        1 <1>        0.000
      5 C43        10.3622   -0.1819   -1.1371 C.2        1 <1>        0.000
      6 C44        10.6333    0.9573   -0.4759 C.2        1 <1>        0.000
      7 C45        11.8413    1.7590   -0.6880 C.2        1 <1>        0.000
      8 C46        11.9578    2.9485   -1.3104 C.2        1 <1>        0.000
      9 C47        10.8751    3.7654   -1.9082 C.2        1 <1>        0.000
     10 O14         9.7188    3.6021   -1.5511 O.2        1 <1>        0.000
     11 N4         11.1783    4.6965   -2.8372 N.am       1 <1>        0.000
     12 H           7.8202   -2.5789    2.5223 H.spc      1 <1>        0.000
     13 H           6.2376   -3.2658    1.7556 H.spc      1 <1>        0.000
     14 H           6.7844   -2.2392   -0.3365 H.spc      1 <1>        0.000
     15 H           9.2265   -0.9755    1.1629 H.spc      1 <1>        0.000
     16 H           8.6155   -1.3319   -1.8010 H.spc      1 <1>        0.000
     17 H          11.0832   -0.5285   -1.8774 H.spc      1 <1>        0.000
     18 H           9.9108    1.3053    0.2624 H.spc      1 <1>        0.000
     19 H          12.7653    1.3388   -0.2909 H.spc      1 <1>        0.000
     20 H          12.9656    3.3575   -1.3826 H.spc      1 <1>        0.000
     21 H          10.4395    5.2690   -3.2455 H.spc      1 <1>        0.000
     22 H          12.1463    4.8276   -3.1309 H.spc      1 <1>        0.000
@<TRIPOS>BOND
     1    6    7 1  
     2    3    4 2  
     3    2    3 1  
     4    9   11 am 
     5    5    6 2  
     6    9   10 2  
     7    4    5 1  
     8    7    8 2  
     9    8    9 1  
    10    1    2 2  
    11    1   12 1  
    12    1   13 1  
    13    2   14 1  
    14    3   15 1  
    15    4   16 1  
    16    5   17 1  
    17    6   18 1  
    18    7   19 1  
    19    8   20 1  
    20   11   21 1  
    21   11   22 1  
# Name:          frag3-242-3/31924 -- energy: -2.403095
# Creation time: Sat Jun  5 12:52:37 2010


@<TRIPOS>MOLECULE
frag3-242-3/31924 -- energy: -2.403095
   22    21     1     1     1
SMALL
USER_CHARGES


@<TRIPOS>ATOM
      1 C38         6.7660   -2.3234    0.1662 C.2        1 <1>        0.000
      2 C39         7.9946   -2.4603    0.6758 C.2        1 <1>        0.000
      3 C41         9.1019   -1.5627    0.3670 C.2        1 <1>        0.000
      4 C42         9.0152   -0.2200    0.4027 C.2        1 <1>        0.000
      5 C43        10.1161    0.6846    0.0954 C.2        1 <1>        0.000
      6 C44        10.9015    0.5761   -0.9916 C.2        1 <1>        0.000
      7 C45        12.0066    1.4829   -1.2994 C.2        1 <1>        0.000
      8 C46        11.9436    2.7668   -1.7085 C.2        1 <1>        0.000
      9 C47        10.7273    3.5847   -1.9335 C.2        1 <1>        0.000
     10 O14         9.8476    3.6146   -1.0867 O.2        1 <1>        0.000
     11 N4         10.6108    4.3049   -3.0678 N.am       1 <1>        0.000
     12 H           6.5490   -1.5055   -0.5209 H.spc      1 <1>        0.000
     13 H           5.9815   -3.0297    0.4379 H.spc      1 <1>        0.000
     14 H           8.1788   -3.2886    1.3599 H.spc      1 <1>        0.000
     15 H          10.0583   -2.0064    0.0903 H.spc      1 <1>        0.000
     16 H           8.0575    0.2205    0.6800 H.spc      1 <1>        0.000
     17 H          10.3156    1.5005    0.7901 H.spc      1 <1>        0.000
     18 H          10.7014   -0.2393   -1.6867 H.spc      1 <1>        0.000
     19 H          13.0083    1.0689   -1.1836 H.spc      1 <1>        0.000
     20 H          12.8974    3.2603   -1.8953 H.spc      1 <1>        0.000
     21 H           9.7832    4.8804   -3.2238 H.spc      1 <1>        0.000
     22 H          11.3503    4.2741   -3.7697 H.spc      1 <1>        0.000
@<TRIPOS>BOND
     1    6    7 1  
     2    3    4 2  
     3    2    3 1  
     4    9   11 am 
     5    5    6 2  
     6    9   10 2  
     7    4    5 1  
     8    7    8 2  
     9    8    9 1  
    10    1    2 2  
    11    1   12 1  
    12    1   13 1  
    13    2   14 1  
    14    3   15 1  
    15    4   16 1  
    16    5   17 1  
    17    6   18 1  
    18    7   19 1  
    19    8   20 1  
    20   11   21 1  
    21   11   22 1  
# Name:          frag3-242-3/31924 -- energy: -2.406033
# Creation time: Sat Jun  5 12:52:37 2010


@<TRIPOS>MOLECULE
frag3-242-3/31924 -- energy: -2.406033
   22    21     1     1     1
SMALL
USER_CHARGES


@<TRIPOS>ATOM
      1 C38         6.7528   -1.9179    1.1161 C.2        1 <1>        0.000
      2 C39         7.6991   -2.3335    0.2680 C.2        1 <1>        0.000
      3 C41         8.5393   -1.4249   -0.5146 C.2        1 <1>        0.000
      4 C42         9.5908   -0.7595   -0.0129 C.2        1 <1>        0.000
      5 C43        10.4395    0.1488   -0.7860 C.2        1 <1>        0.000
      6 C44        11.4156    0.9038   -0.2595 C.2        1 <1>        0.000
      7 C45        12.2594    1.8112   -1.0456 C.2        1 <1>        0.000
      8 C46        11.8905    2.9277   -1.7026 C.2        1 <1>        0.000
      9 C47        10.5417    3.5402   -1.7661 C.2        1 <1>        0.000
     10 O14        10.2579    4.4563   -1.0082 O.2        1 <1>        0.000
     11 N4          9.6446    3.0958   -2.6691 N.am       1 <1>        0.000
     12 H           6.5742   -0.8514    1.2533 H.spc      1 <1>        0.000
     13 H           6.1599   -2.6455    1.6703 H.spc      1 <1>        0.000
     14 H           7.8534   -3.4064    0.1530 H.spc      1 <1>        0.000
     15 H           8.2961   -1.2805   -1.5673 H.spc      1 <1>        0.000
     16 H           9.8290   -0.9050    1.0408 H.spc      1 <1>        0.000
     17 H          10.2671    0.2162   -1.8602 H.spc      1 <1>        0.000
     18 H          11.5920    0.8395    0.8142 H.spc      1 <1>        0.000
     19 H          13.3158    1.5492   -1.1053 H.spc      1 <1>        0.000
     20 H          12.6777    3.4425   -2.2535 H.spc      1 <1>        0.000
     21 H           8.7207    3.5245   -2.7237 H.spc      1 <1>        0.000
     22 H           9.8898    2.3309   -3.2977 H.spc      1 <1>        0.000
@<TRIPOS>BOND
     1    6    7 1  
     2    3    4 2  
     3    2    3 1  
     4    9   11 am 
     5    5    6 2  
     6    9   10 2  
     7    4    5 1  
     8    7    8 2  
     9    8    9 1  
    10    1    2 2  
    11    1   12 1  
    12    1   13 1  
    13    2   14 1  
    14    3   15 1  
    15    4   16 1  
    16    5   17 1  
    17    6   18 1  
    18    7   19 1  
    19    8   20 1  
    20   11   21 1  
    21   11   22 1  
# Name:          frag3-242-3/31924 -- energy: -2.570430
# Creation time: Sat Jun  5 12:52:37 2010


@<TRIPOS>MOLECULE
frag3-242-3/31924 -- energy: -2.570430
   22    21     1     1     1
SMALL
USER_CHARGES


@<TRIPOS>ATOM
      1 C38         7.4716   -3.0543   -0.0080 C.2        1 <1>        0.000
      2 C39         7.3669   -1.7523    0.2763 C.2        1 <1>        0.000
      3 C41         8.3730   -0.7589   -0.0989 C.2        1 <1>        0.000
      4 C42         9.5008   -0.5342    0.5957 C.2        1 <1>        0.000
      5 C43        10.5181    0.4456    0.2153 C.2        1 <1>        0.000
      6 C44        11.0687    0.5185   -1.0090 C.2        1 <1>        0.000
      7 C45        12.0818    1.5069   -1.3915 C.2        1 <1>        0.000
      8 C46        11.9003    2.8007   -1.7204 C.2        1 <1>        0.000
      9 C47        10.6240    3.5531   -1.7651 C.2        1 <1>        0.000
     10 O14        10.3437    4.2067   -2.7610 O.2        1 <1>        0.000
     11 N4          9.7823    3.5164   -0.7138 N.am       1 <1>        0.000
     12 H           8.3426   -3.4260   -0.5478 H.spc      1 <1>        0.000
     13 H           6.6860   -3.7443    0.2999 H.spc      1 <1>        0.000
     14 H           6.4837   -1.4124    0.8172 H.spc      1 <1>        0.000
     15 H           8.1971   -0.1653   -0.9960 H.spc      1 <1>        0.000
     16 H           9.6684   -1.1191    1.5001 H.spc      1 <1>        0.000
     17 H          10.8496    1.1593    0.9696 H.spc      1 <1>        0.000
     18 H          10.7427   -0.1995   -1.7616 H.spc      1 <1>        0.000
     19 H          13.1115    1.1500   -1.4124 H.spc      1 <1>        0.000
     20 H          12.7977    3.3601   -1.9848 H.spc      1 <1>        0.000
     21 H           8.9048    4.0355   -0.7446 H.spc      1 <1>        0.000
     22 H          10.0225    2.9695    0.1130 H.spc      1 <1>        0.000
@<TRIPOS>BOND
     1    6    7 1  
     2    3    4 2  
     3    2    3 1  
     4    9   11 am 
     5    5    6 2  
     6    9   10 2  
     7    4    5 1  
     8    7    8 2  
     9    8    9 1  
    10    1    2 2  
    11    1   12 1  
    12    1   13 1  
    13    2   14 1  
    14    3   15 1  
    15    4   16 1  
    16    5   17 1  
    17    6   18 1  
    18    7   19 1  
    19    8   20 1  
    20   11   21 1  
    21   11   22 1  
# Name:          frag3-242-3/31924 -- energy: -2.015594
# Creation time: Sat Jun  5 12:52:37 2010


@<TRIPOS>MOLECULE
frag3-242-3/31924 -- energy: -2.015594
   22    21     1     1     1
SMALL
USER_CHARGES


@<TRIPOS>ATOM
      1 C38         6.8729   -2.2682    0.9130 C.2        1 <1>        0.000
      2 C39         7.6424   -2.0994   -0.1672 C.2        1 <1>        0.000
      3 C41         8.4753   -0.9152   -0.3899 C.2        1 <1>        0.000
      4 C42         9.6688   -0.7205    0.1927 C.2        1 <1>        0.000
      5 C43        10.5110    0.4562   -0.0300 C.2        1 <1>        0.000
      6 C44        11.4481    0.5391   -0.9890 C.2        1 <1>        0.000
      7 C45        12.2817    1.7267   -1.2138 C.2        1 <1>        0.000
      8 C46        11.8806    2.9776   -1.5128 C.2        1 <1>        0.000
      9 C47        10.4921    3.4724   -1.6727 C.2        1 <1>        0.000
     10 O14        10.2647    4.6701   -1.5680 O.2        1 <1>        0.000
     11 N4          9.4936    2.6092   -1.9427 N.am       1 <1>        0.000
     12 H           6.8432   -1.5006    1.6863 H.spc      1 <1>        0.000
     13 H           6.2753   -3.1734    1.0203 H.spc      1 <1>        0.000
     14 H           7.6504   -2.8851   -0.9227 H.spc      1 <1>        0.000
     15 H           8.1042   -0.1471   -1.0685 H.spc      1 <1>        0.000
     16 H          10.0344   -1.4876    0.8753 H.spc      1 <1>        0.000
     17 H          10.3690    1.3178    0.6223 H.spc      1 <1>        0.000
     18 H          11.5981   -0.3244   -1.6371 H.spc      1 <1>        0.000
     19 H          13.3581    1.5779   -1.1282 H.spc      1 <1>        0.000
     20 H          12.6716    3.7141   -1.6541 H.spc      1 <1>        0.000
     21 H           8.5405    2.9528   -2.0613 H.spc      1 <1>        0.000
     22 H           9.6907    1.6121   -2.0286 H.spc      1 <1>        0.000
@<TRIPOS>BOND
     1    6    7 1  
     2    3    4 2  
     3    2    3 1  
     4    9   11 am 
     5    5    6 2  
     6    9   10 2  
     7    4    5 1  
     8    7    8 2  
     9    8    9 1  
    10    1    2 2  
    11    1   12 1  
    12    1   13 1  
    13    2   14 1  
    14    3   15 1  
    15    4   16 1  
    16    5   17 1  
    17    6   18 1  
    18    7   19 1  
    19    8   20 1  
    20   11   21 1  
    21   11   22 1  
# Name:          frag3-242-3/31924 -- energy: -2.137541
# Creation time: Sat Jun  5 12:52:37 2010


@<TRIPOS>MOLECULE
frag3-242-3/31924 -- energy: -2.137541
   22    21     1     1     1
SMALL
USER_CHARGES


@<TRIPOS>ATOM
      1 C38         7.1840   -3.0527    1.1001 C.2        1 <1>        0.000
      2 C39         7.3667   -2.1189    0.1619 C.2        1 <1>        0.000
      3 C41         8.2637   -0.9734    0.3219 C.2        1 <1>        0.000
      4 C42         9.3629   -0.7709   -0.4184 C.2        1 <1>        0.000
      5 C43        10.2628    0.3737   -0.2684 C.2        1 <1>        0.000
      6 C44        11.2997    0.6327   -1.0788 C.2        1 <1>        0.000
      7 C45        12.1925    1.7862   -0.9222 C.2        1 <1>        0.000
      8 C46        11.9600    3.0706   -1.2571 C.2        1 <1>        0.000
      9 C47        10.7321    3.6418   -1.8597 C.2        1 <1>        0.000
     10 O14        10.2123    3.0932   -2.8190 O.2        1 <1>        0.000
     11 N4         10.1945    4.7658   -1.3407 N.am       1 <1>        0.000
     12 H           7.7185   -2.9851    2.0477 H.spc      1 <1>        0.000
     13 H           6.5005   -3.8820    0.9178 H.spc      1 <1>        0.000
     14 H           6.8173   -2.2156   -0.7745 H.spc      1 <1>        0.000
     15 H           8.0230   -0.2393    1.0908 H.spc      1 <1>        0.000
     16 H           9.6028   -1.5087   -1.1840 H.spc      1 <1>        0.000
     17 H          10.0780    1.0614    0.5568 H.spc      1 <1>        0.000
     18 H          11.4904   -0.0548   -1.9028 H.spc      1 <1>        0.000
     19 H          13.1665    1.5782   -0.4792 H.spc      1 <1>        0.000
     20 H          12.7707    3.7725   -1.0618 H.spc      1 <1>        0.000
     21 H           9.3485    5.1625   -1.7498 H.spc      1 <1>        0.000
     22 H          10.6342    5.2185   -0.5394 H.spc      1 <1>        0.000
@<TRIPOS>BOND
     1    6    7 1  
     2    3    4 2  
     3    2    3 1  
     4    9   11 am 
     5    5    6 2  
     6    9   10 2  
     7    4    5 1  
     8    7    8 2  
     9    8    9 1  
    10    1    2 2  
    11    1   12 1  
    12    1   13 1  
    13    2   14 1  
    14    3   15 1  
    15    4   16 1  
    16    5   17 1  
    17    6   18 1  
    18    7   19 1  
    19    8   20 1  
    20   11   21 1  
    21   11   22 1  
# Name:          frag3-242-3/31924 -- energy: -2.236182
# Creation time: Sat Jun  5 12:52:37 2010


@<TRIPOS>MOLECULE
frag3-242-3/31924 -- energy: -2.236182
   22    21     1     1     1
SMALL
USER_CHARGES


@<TRIPOS>ATOM
      1 C38         6.8964   -3.0581    0.2394 C.2        1 <1>        0.000
      2 C39         7.6394   -2.3180    1.0696 C.2        1 <1>        0.000
      3 C41         8.9055   -1.6904    0.6766 C.2        1 <1>        0.000
      4 C42         9.0113   -0.7777   -0.3019 C.2        1 <1>        0.000
      5 C43        10.2709   -0.1384   -0.6963 C.2        1 <1>        0.000
      6 C44        10.5451    1.1610   -0.5025 C.2        1 <1>        0.000
      7 C45        11.8120    1.7935   -0.8967 C.2        1 <1>        0.000
      8 C46        11.9963    2.9591   -1.5413 C.2        1 <1>        0.000
      9 C47        10.9624    3.9205   -1.9927 C.2        1 <1>        0.000
     10 O14        11.0537    5.0977   -1.6735 O.2        1 <1>        0.000
     11 N4          9.9382    3.4990   -2.7613 N.am       1 <1>        0.000
     12 H           7.2240   -3.2200   -0.7875 H.spc      1 <1>        0.000
     13 H           5.9633   -3.4993    0.5898 H.spc      1 <1>        0.000
     14 H           7.2859   -2.1739    2.0906 H.spc      1 <1>        0.000
     15 H           9.8111   -1.9814    1.2089 H.spc      1 <1>        0.000
     16 H           8.1048   -0.4941   -0.8366 H.spc      1 <1>        0.000
     17 H          11.0303   -0.7560   -1.1759 H.spc      1 <1>        0.000
     18 H           9.7862    1.7818   -0.0263 H.spc      1 <1>        0.000
     19 H          12.7180    1.2479   -0.6327 H.spc      1 <1>        0.000
     20 H          13.0298    3.2293   -1.7578 H.spc      1 <1>        0.000
     21 H           9.2331    4.1633   -3.0805 H.spc      1 <1>        0.000
     22 H           9.8684    2.5158   -3.0236 H.spc      1 <1>        0.000
@<TRIPOS>BOND
     1    6    7 1  
     2    3    4 2  
     3    2    3 1  
     4    9   11 am 
     5    5    6 2  
     6    9   10 2  
     7    4    5 1  
     8    7    8 2  
     9    8    9 1  
    10    1    2 2  
    11    1   12 1  
    12    1   13 1  
    13    2   14 1  
    14    3   15 1  
    15    4   16 1  
    16    5   17 1  
    17    6   18 1  
    18    7   19 1  
    19    8   20 1  
    20   11   21 1  
    21   11   22 1  
# Name:          frag3-242-3/31924 -- energy: -2.274013
# Creation time: Sat Jun  5 12:52:37 2010


@<TRIPOS>MOLECULE
frag3-242-3/31924 -- energy: -2.274013
   22    21     1     1     1
SMALL
USER_CHARGES


@<TRIPOS>ATOM
      1 C38         7.4376   -2.5761    1.1158 C.2        1 <1>        0.000
      2 C39         7.5562   -2.0725   -0.1177 C.2        1 <1>        0.000
      3 C41         8.5228   -1.0430   -0.4796 C.2        1 <1>        0.000
      4 C42         9.2033   -0.3010    0.4151 C.2        1 <1>        0.000
      5 C43        10.1811    0.7192    0.0660 C.2        1 <1>        0.000
      6 C44        11.2101    0.5232   -0.7787 C.2        1 <1>        0.000
      7 C45        12.1846    1.5512   -1.1379 C.2        1 <1>        0.000
      8 C46        11.9488    2.7965   -1.6021 C.2        1 <1>        0.000
      9 C47        10.6333    3.4347   -1.8478 C.2        1 <1>        0.000
     10 O14        10.0054    3.9094   -0.9114 O.2        1 <1>        0.000
     11 N4         10.1479    3.5063   -3.1022 N.am       1 <1>        0.000
     12 H           8.0852   -2.2171    1.9157 H.spc      1 <1>        0.000
     13 H           6.6933   -3.3455    1.3211 H.spc      1 <1>        0.000
     14 H           6.8936   -2.4529   -0.8951 H.spc      1 <1>        0.000
     15 H           8.7060   -0.8627   -1.5389 H.spc      1 <1>        0.000
     16 H           9.0084   -0.4765    1.4731 H.spc      1 <1>        0.000
     17 H          10.0729    1.7052    0.5178 H.spc      1 <1>        0.000
     18 H          11.3240   -0.4654   -1.2234 H.spc      1 <1>        0.000
     19 H          13.2328    1.2783   -1.0157 H.spc      1 <1>        0.000
     20 H          12.8273    3.4032   -1.8218 H.spc      1 <1>        0.000
     21 H           9.2506    3.9588   -3.2768 H.spc      1 <1>        0.000
     22 H          10.6776    3.1080   -3.8775 H.spc      1 <1>        0.000
@<TRIPOS>BOND
     1    6    7 1  
     2    3    4 2  
     3    2    3 1  
     4    9   11 am 
     5    5    6 2  
     6    9   10 2  
     7    4    5 1  
     8    7    8 2  
     9    8    9 1  
    10    1    2 2  
    11    1   12 1  
    12    1   13 1  
    13    2   14 1  
    14    3   15 1  
    15    4   16 1  
    16    5   17 1  
    17    6   18 1  
    18    7   19 1  
    19    8   20 1  
    20   11   21 1  
    21   11   22 1  
# Name:          frag3-242-3/31924 -- energy: -2.217281
# Creation time: Sat Jun  5 12:52:37 2010


@<TRIPOS>MOLECULE
frag3-242-3/31924 -- energy: -2.217281
   22    21     1     1     1
SMALL
USER_CHARGES


@<TRIPOS>ATOM
      1 C38         6.8401   -2.4670    0.0430 C.2        1 <1>        0.000
      2 C39         7.9176   -2.4487    0.8352 C.2        1 <1>        0.000
      3 C41         9.0492   -1.5478    0.6380 C.2        1 <1>        0.000
      4 C42         8.9372   -0.2942    0.1628 C.2        1 <1>        0.000
      5 C43        10.0588    0.6156   -0.0389 C.2        1 <1>        0.000
      6 C44        10.8790    0.5819   -1.1030 C.2        1 <1>        0.000
      7 C45        12.0056    1.4951   -1.3005 C.2        1 <1>        0.000
      8 C46        11.9739    2.7978   -1.6511 C.2        1 <1>        0.000
      9 C47        10.7779    3.6327   -1.9152 C.2        1 <1>        0.000
     10 O14         9.6789    3.1118   -2.0230 O.2        1 <1>        0.000
     11 N4         10.9131    4.9708   -2.0278 N.am       1 <1>        0.000
     12 H           6.7746   -1.7839   -0.8038 H.spc      1 <1>        0.000
     13 H           6.0275   -3.1650    0.2442 H.spc      1 <1>        0.000
     14 H           7.9527   -3.1443    1.6737 H.spc      1 <1>        0.000
     15 H          10.0447   -1.9127    0.8910 H.spc      1 <1>        0.000
     16 H           7.9397    0.0661   -0.0887 H.spc      1 <1>        0.000
     17 H          10.2441    1.3725    0.7232 H.spc      1 <1>        0.000
     18 H          10.6935   -0.1730   -1.8670 H.spc      1 <1>        0.000
     19 H          12.9965    1.0686   -1.1445 H.spc      1 <1>        0.000
     20 H          12.9395    3.2935   -1.7517 H.spc      1 <1>        0.000
     21 H          10.0944    5.5531   -2.2040 H.spc      1 <1>        0.000
     22 H          11.8340    5.3998   -1.9367 H.spc      1 <1>        0.000
@<TRIPOS>BOND
     1    6    7 1  
     2    3    4 2  
     3    2    3 1  
     4    9   11 am 
     5    5    6 2  
     6    9   10 2  
     7    4    5 1  
     8    7    8 2  
     9    8    9 1  
    10    1    2 2  
    11    1   12 1  
    12    1   13 1  
    13    2   14 1  
    14    3   15 1  
    15    4   16 1  
    16    5   17 1  
    17    6   18 1  
    18    7   19 1  
    19    8   20 1  
    20   11   21 1  
    21   11   22 1  
# Name:          frag3-242-3/31924 -- energy: -2.251338
# Creation time: Sat Jun  5 12:52:37 2010


@<TRIPOS>MOLECULE
frag3-242-3/31924 -- energy: -2.251338
   22    21     1     1     1
SMALL
USER_CHARGES


@<TRIPOS>ATOM
      1 C38         7.0810   -2.8754    0.2189 C.2        1 <1>        0.000
      2 C39         7.7009   -1.9896    1.0065 C.2        1 <1>        0.000
      3 C41         8.8550   -1.2035    0.5836 C.2        1 <1>        0.000
      4 C42         9.1046   -0.8623   -0.6949 C.2        1 <1>        0.000
      5 C43        10.2505   -0.0698   -1.1262 C.2        1 <1>        0.000
      6 C44        10.8012    0.9166   -0.3950 C.2        1 <1>        0.000
      7 C45        11.9520    1.7107   -0.8238 C.2        1 <1>        0.000
      8 C46        11.9582    2.9045   -1.4488 C.2        1 <1>        0.000
      9 C47        10.7873    3.7321   -1.8250 C.2        1 <1>        0.000
     10 O14        10.6101    4.0285   -2.9991 O.2        1 <1>        0.000
     11 N4          9.9304    4.1564   -0.8768 N.am       1 <1>        0.000
     12 H           7.4343   -3.0406   -0.7989 H.spc      1 <1>        0.000
     13 H           6.2226   -3.4320    0.5949 H.spc      1 <1>        0.000
     14 H           7.3234   -1.8473    2.0191 H.spc      1 <1>        0.000
     15 H           9.5574   -0.8725    1.3486 H.spc      1 <1>        0.000
     16 H           8.4038   -1.2008   -1.4580 H.spc      1 <1>        0.000
     17 H          10.6875   -0.2899   -2.1002 H.spc      1 <1>        0.000
     18 H          10.3620    1.1376    0.5778 H.spc      1 <1>        0.000
     19 H          12.9310    1.2816   -0.6103 H.spc      1 <1>        0.000
     20 H          12.9371    3.3082   -1.7076 H.spc      1 <1>        0.000
     21 H           9.1268    4.7291   -1.1350 H.spc      1 <1>        0.000
     22 H          10.0850    3.9051    0.0996 H.spc      1 <1>        0.000
@<TRIPOS>BOND
     1    6    7 1  
     2    3    4 2  
     3    2    3 1  
     4    9   11 am 
     5    5    6 2  
     6    9   10 2  
     7    4    5 1  
     8    7    8 2  
     9    8    9 1  
    10    1    2 2  
    11    1   12 1  
    12    1   13 1  
    13    2   14 1  
    14    3   15 1  
    15    4   16 1  
    16    5   17 1  
    17    6   18 1  
    18    7   19 1  
    19    8   20 1  
    20   11   21 1  
    21   11   22 1  
# Name:          frag3-242-3/31924 -- energy: -2.042219
# Creation time: Sat Jun  5 12:52:37 2010


@<TRIPOS>MOLECULE
frag3-242-3/31924 -- energy: -2.042219
   22    21     1     1     1
SMALL
USER_CHARGES


@<TRIPOS>ATOM
      1 C38         6.6939   -2.0184    1.3523 C.2        1 <1>        0.000
      2 C39         7.6488   -2.1903    0.4353 C.2        1 <1>        0.000
      3 C41         8.7704   -1.2777    0.2447 C.2        1 <1>        0.000
      4 C42         9.6367   -1.3393   -0.7788 C.2        1 <1>        0.000
      5 C43        10.7507   -0.4170   -0.9725 C.2        1 <1>        0.000
      6 C44        10.7432    0.8678   -0.5724 C.2        1 <1>        0.000
      7 C45        11.8589    1.7938   -0.7635 C.2        1 <1>        0.000
      8 C46        11.8470    3.0209   -1.3187 C.2        1 <1>        0.000
      9 C47        10.6776    3.7572   -1.8549 C.2        1 <1>        0.000
     10 O14         9.6737    3.1495   -2.1921 O.2        1 <1>        0.000
     11 N4         10.7302    5.1016   -1.9599 N.am       1 <1>        0.000
     12 H           6.7243   -1.1537    2.0153 H.spc      1 <1>        0.000
     13 H           5.8839   -2.7427    1.4380 H.spc      1 <1>        0.000
     14 H           7.5864   -3.0662   -0.2104 H.spc      1 <1>        0.000
     15 H           8.9153   -0.4908    0.9849 H.spc      1 <1>        0.000
     16 H           9.4987   -2.1315   -1.5147 H.spc      1 <1>        0.000
     17 H          11.6440   -0.7918   -1.4721 H.spc      1 <1>        0.000
     18 H           9.8488    1.2421   -0.0743 H.spc      1 <1>        0.000
     19 H          12.8289    1.4445   -0.4096 H.spc      1 <1>        0.000
     20 H          12.8081    3.5313   -1.3809 H.spc      1 <1>        0.000
     21 H           9.9280    5.6166   -2.3228 H.spc      1 <1>        0.000
     22 H          11.5721    5.6028   -1.6763 H.spc      1 <1>        0.000
@<TRIPOS>BOND
     1    6    7 1  
     2    3    4 2  
     3    2    3 1  
     4    9   11 am 
     5    5    6 2  
     6    9   10 2  
     7    4    5 1  
     8    7    8 2  
     9    8    9 1  
    10    1    2 2  
    11    1   12 1  
    12    1   13 1  
    13    2   14 1  
    14    3   15 1  
    15    4   16 1  
    16    5   17 1  
    17    6   18 1  
    18    7   19 1  
    19    8   20 1  
    20   11   21 1  
    21   11   22 1  
# Name:          frag3-242-3/31924 -- energy: -2.511491
# Creation time: Sat Jun  5 12:52:37 2010


@<TRIPOS>MOLECULE
frag3-242-3/31924 -- energy: -2.511491
   22    21     1     1     1
SMALL
USER_CHARGES


@<TRIPOS>ATOM
      1 C38         7.0663   -2.3251    0.9255 C.2        1 <1>        0.000
      2 C39         7.6987   -2.2101   -0.2475 C.2        1 <1>        0.000
      3 C41         8.6548   -1.1517   -0.5481 C.2        1 <1>        0.000
      4 C42         9.3833   -0.5074    0.3840 C.2        1 <1>        0.000
      5 C43        10.3474    0.5447    0.0932 C.2        1 <1>        0.000
      6 C44        11.1975    0.5221   -0.9498 C.2        1 <1>        0.000
      7 C45        12.1586    1.5814   -1.2486 C.2        1 <1>        0.000
      8 C46        11.9084    2.8630   -1.5866 C.2        1 <1>        0.000
      9 C47        10.5855    3.5180   -1.7286 C.2        1 <1>        0.000
     10 O14        10.1133    3.6921   -2.8431 O.2        1 <1>        0.000
     11 N4          9.9173    3.9211   -0.6308 N.am       1 <1>        0.000
     12 H           7.2555   -1.6030    1.7197 H.spc      1 <1>        0.000
     13 H           6.3618   -3.1410    1.0871 H.spc      1 <1>        0.000
     14 H           7.4875   -2.9484   -1.0211 H.spc      1 <1>        0.000
     15 H           8.7885   -0.8640   -1.5909 H.spc      1 <1>        0.000
     16 H           9.2416   -0.7928    1.4264 H.spc      1 <1>        0.000
     17 H          10.3826    1.4044    0.7623 H.spc      1 <1>        0.000
     18 H          11.1672   -0.3415   -1.6141 H.spc      1 <1>        0.000
     19 H          13.2102    1.3005   -1.1911 H.spc      1 <1>        0.000
     20 H          12.7794    3.4899   -1.7775 H.spc      1 <1>        0.000
     21 H           9.0092    4.3760   -0.7248 H.spc      1 <1>        0.000
     22 H          10.3194    3.7715    0.2946 H.spc      1 <1>        0.000
@<TRIPOS>BOND
     1    6    7 1  
     2    3    4 2  
     3    2    3 1  
     4    9   11 am 
     5    5    6 2  
     6    9   10 2  
     7    4    5 1  
     8    7    8 2  
     9    8    9 1  
    10    1    2 2  
    11    1   12 1  
    12    1   13 1  
    13    2   14 1  
    14    3   15 1  
    15    4   16 1  
    16    5   17 1  
    17    6   18 1  
    18    7   19 1  
    19    8   20 1  
    20   11   21 1  
    21   11   22 1  
# Name:          frag3-242-3/31924 -- energy: -2.027971
# Creation time: Sat Jun  5 12:52:37 2010


@<TRIPOS>MOLECULE
frag3-242-3/31924 -- energy: -2.027971
   22    21     1     1     1
SMALL
USER_CHARGES


@<TRIPOS>ATOM
      1 C38         6.4887   -2.2439    0.6362 C.2        1 <1>        0.000
      2 C39         7.8191   -2.1310    0.6010 C.2        1 <1>        0.000
      3 C41         8.5300   -1.1325   -0.1951 C.2        1 <1>        0.000
      4 C42         9.6529   -0.5140    0.1954 C.2        1 <1>        0.000
      5 C43        10.3725    0.4782   -0.5977 C.2        1 <1>        0.000
      6 C44        11.6715    0.7797   -0.4439 C.2        1 <1>        0.000
      7 C45        12.3822    1.7752   -1.2506 C.2        1 <1>        0.000
      8 C46        11.8763    2.8767   -1.8460 C.2        1 <1>        0.000
      9 C47        10.4771    3.3669   -1.8028 C.2        1 <1>        0.000
     10 O14         9.8538    3.3394   -0.7527 O.2        1 <1>        0.000
     11 N4          9.9072    3.8534   -2.9242 N.am       1 <1>        0.000
     12 H           5.8686   -1.5672    0.0483 H.spc      1 <1>        0.000
     13 H           6.0231   -3.0128    1.2528 H.spc      1 <1>        0.000
     14 H           8.4090   -2.8239    1.2010 H.spc      1 <1>        0.000
     15 H           8.1196   -0.8737   -1.1712 H.spc      1 <1>        0.000
     16 H          10.0576   -0.7699    1.1746 H.spc      1 <1>        0.000
     17 H           9.8161    1.0114   -1.3686 H.spc      1 <1>        0.000
     18 H          12.2316    0.2519    0.3280 H.spc      1 <1>        0.000
     19 H          13.4503    1.6059   -1.3869 H.spc      1 <1>        0.000
     20 H          12.5783    3.4756   -2.4262 H.spc      1 <1>        0.000
     21 H           8.9489    4.2019   -2.8994 H.spc      1 <1>        0.000
     22 H          10.4345    3.8729   -3.7971 H.spc      1 <1>        0.000
@<TRIPOS>BOND
     1    6    7 1  
     2    3    4 2  
     3    2    3 1  
     4    9   11 am 
     5    5    6 2  
     6    9   10 2  
     7    4    5 1  
     8    7    8 2  
     9    8    9 1  
    10    1    2 2  
    11    1   12 1  
    12    1   13 1  
    13    2   14 1  
    14    3   15 1  
    15    4   16 1  
    16    5   17 1  
    17    6   18 1  
    18    7   19 1  
    19    8   20 1  
    20   11   21 1  
    21   11   22 1  
# Name:          frag3-242-3/31924 -- energy: -2.474230
# Creation time: Sat Jun  5 12:52:37 2010


@<TRIPOS>MOLECULE
frag3-242-3/31924 -- energy: -2.474230
   22    21     1     1     1
SMALL
USER_CHARGES


@<TRIPOS>ATOM
      1 C38         7.6804   -2.9336    0.6919 C.2        1 <1>        0.000
      2 C39         7.2318   -1.7446    0.2739 C.2        1 <1>        0.000
      3 C41         8.0864   -0.5693    0.1185 C.2        1 <1>        0.000
      4 C42         9.4082   -0.6302   -0.1175 C.2        1 <1>        0.000
      5 C43        10.2748    0.5324   -0.2836 C.2        1 <1>        0.000
      6 C44        11.4620    0.5134   -0.9089 C.2        1 <1>        0.000
      7 C45        12.3191    1.6897   -1.0757 C.2        1 <1>        0.000
      8 C46        11.9579    2.9364   -1.4461 C.2        1 <1>        0.000
      9 C47        10.5941    3.4270   -1.7583 C.2        1 <1>        0.000
     10 O14        10.0865    4.2874   -1.0511 O.2        1 <1>        0.000
     11 N4          9.9301    2.9395   -2.8236 N.am       1 <1>        0.000
     12 H           8.7346   -3.0629    0.9370 H.spc      1 <1>        0.000
     13 H           6.9917   -3.7731    0.7874 H.spc      1 <1>        0.000
     14 H           6.1724   -1.6472    0.0366 H.spc      1 <1>        0.000
     15 H           7.6246    0.4148    0.1987 H.spc      1 <1>        0.000
     16 H           9.8650   -1.6172   -0.1899 H.spc      1 <1>        0.000
     17 H           9.9340    1.4820    0.1289 H.spc      1 <1>        0.000
     18 H          11.8099   -0.4353   -1.3177 H.spc      1 <1>        0.000
     19 H          13.3801    1.5395   -0.8759 H.spc      1 <1>        0.000
     20 H          12.7625    3.6675   -1.5248 H.spc      1 <1>        0.000
     21 H           8.9973    3.2872   -3.0460 H.spc      1 <1>        0.000
     22 H          10.3599    2.2226   -3.4081 H.spc      1 <1>        0.000
@<TRIPOS>BOND
     1    6    7 1  
     2    3    4 2  
     3    2    3 1  
     4    9   11 am 
     5    5    6 2  
     6    9   10 2  
     7    4    5 1  
     8    7    8 2  
     9    8    9 1  
    10    1    2 2  
    11    1   12 1  
    12    1   13 1  
    13    2   14 1  
    14    3   15 1  
    15    4   16 1  
    16    5   17 1  
    17    6   18 1  
    18    7   19 1  
    19    8   20 1  
    20   11   21 1  
    21   11   22 1  
# Name:          frag3-242-3/31924 -- energy: -2.077354
# Creation time: Sat Jun  5 12:52:37 2010


@<TRIPOS>MOLECULE
frag3-242-3/31924 -- energy: -2.077354
   22    21     1     1     1
SMALL
USER_CHARGES


@<TRIPOS>ATOM
      1 C38         7.2419   -3.0887    0.0727 C.2        1 <1>        0.000
      2 C39         7.5150   -1.8706    0.5454 C.2        1 <1>        0.000
      3 C41         8.5666   -1.0099    0.0234 C.2        1 <1>        0.000
      4 C42         9.3525   -0.2214    0.7750 C.2        1 <1>        0.000
      5 C43        10.4139    0.6273    0.2507 C.2        1 <1>        0.000
      6 C44        10.9225    0.5205   -0.9915 C.2        1 <1>        0.000
      7 C45        11.9803    1.3738   -1.5246 C.2        1 <1>        0.000
      8 C46        11.8985    2.6635   -1.9147 C.2        1 <1>        0.000
      9 C47        10.7006    3.5374   -1.8913 C.2        1 <1>        0.000
     10 O14         9.6090    3.0875   -2.2017 O.2        1 <1>        0.000
     11 N4         10.8303    4.8289   -1.5239 N.am       1 <1>        0.000
     12 H           7.8230   -3.4950   -0.7551 H.spc      1 <1>        0.000
     13 H           6.4377   -3.6771    0.5145 H.spc      1 <1>        0.000
     14 H           6.9131   -1.4971    1.3739 H.spc      1 <1>        0.000
     15 H           8.7278   -1.0049   -1.0546 H.spc      1 <1>        0.000
     16 H           9.1843   -0.2163    1.8519 H.spc      1 <1>        0.000
     17 H          10.8222    1.3974    0.9052 H.spc      1 <1>        0.000
     18 H          10.5175   -0.2545   -1.6422 H.spc      1 <1>        0.000
     19 H          12.9621    0.9100   -1.6199 H.spc      1 <1>        0.000
     20 H          12.8176    3.1139   -2.2896 H.spc      1 <1>        0.000
     21 H          10.0124    5.4380   -1.5039 H.spc      1 <1>        0.000
     22 H          11.7463    5.1963   -1.2661 H.spc      1 <1>        0.000
@<TRIPOS>BOND
     1    6    7 1  
     2    3    4 2  
     3    2    3 1  
     4    9   11 am 
     5    5    6 2  
     6    9   10 2  
     7    4    5 1  
     8    7    8 2  
     9    8    9 1  
    10    1    2 2  
    11    1   12 1  
    12    1   13 1  
    13    2   14 1  
    14    3   15 1  
    15    4   16 1  
    16    5   17 1  
    17    6   18 1  
    18    7   19 1  
    19    8   20 1  
    20   11   21 1  
    21   11   22 1  
