#      Rotatable Fragment
#      Build by yxyuan
#
# Name:          frag4-470-34/48856
# Creation time: Sat Jun  5 12:52:49 2010


@<TRIPOS>MOLECULE
frag4-470-34/48856
   13    13     1     1     1
SMALL
USER_CHARGES


@<TRIPOS>ATOM
      1 S1         -5.2997   -3.2703   -1.3413 S.3        1 <1>        0.000
      2 C1         -3.6011   -3.1124   -0.7809 C.3        1 <1>        0.000
      3 C2         -3.4759   -1.6016   -0.5302 C.3        1 <1>        0.000
      4 N1         -4.7395   -0.8230   -0.5302 N.4        1 <1>        0.000
      5 C3         -5.8425   -1.7448   -0.7098 C.3        1 <1>        0.000
      6 H          -2.8756   -3.4882   -1.5023 H.spc      1 <1>        0.000
      7 H          -3.3843   -3.7124    0.1029 H.spc      1 <1>        0.000
      8 H          -2.8788   -1.2077   -1.3527 H.spc      1 <1>        0.000
      9 H          -3.0562   -1.4955    0.4701 H.spc      1 <1>        0.000
     10 H          -4.7287   -0.1390   -1.2868 H.spc      1 <1>        0.000
     11 H          -4.8420   -0.3229    0.3528 H.spc      1 <1>        0.000
     12 H          -6.3092   -1.9184    0.2598 H.spc      1 <1>        0.000
     13 H          -6.5461   -1.3080   -1.4185 H.spc      1 <1>        0.000
@<TRIPOS>BOND
     1    1    2 1  
     2    1    5 1  
     3    2    3 1  
     4    3    4 1  
     5    4    5 1  
     6    2    6 1  
     7    2    7 1  
     8    3    8 1  
     9    3    9 1  
    10    4   10 1  
    11    4   11 1  
    12    5   12 1  
    13    5   13 1  
# Name:          frag4-470-34/48856 -- energy: -0.674847
# Creation time: Sat Jun  5 12:52:49 2010


@<TRIPOS>MOLECULE
frag4-470-34/48856 -- energy: -0.674847
   13    13     1     1     1
SMALL
USER_CHARGES


@<TRIPOS>ATOM
      1 S1         -5.2997   -3.2703   -1.3413 S.3        1 <1>        0.000
      2 C1         -3.6011   -3.1124   -0.7809 C.3        1 <1>        0.000
      3 C2         -3.4759   -1.6016   -0.5302 C.3        1 <1>        0.000
      4 N1         -4.7395   -0.8230   -0.5302 N.4        1 <1>        0.000
      5 C3         -5.8425   -1.7448   -0.7098 C.3        1 <1>        0.000
      6 H          -2.8756   -3.4882   -1.5023 H.spc      1 <1>        0.000
      7 H          -3.3843   -3.7124    0.1029 H.spc      1 <1>        0.000
      8 H          -2.8788   -1.2077   -1.3527 H.spc      1 <1>        0.000
      9 H          -3.0562   -1.4955    0.4701 H.spc      1 <1>        0.000
     10 H          -4.7287   -0.1390   -1.2868 H.spc      1 <1>        0.000
     11 H          -4.8420   -0.3229    0.3528 H.spc      1 <1>        0.000
     12 H          -6.3092   -1.9184    0.2598 H.spc      1 <1>        0.000
     13 H          -6.5461   -1.3080   -1.4185 H.spc      1 <1>        0.000
@<TRIPOS>BOND
     1    1    2 1  
     2    1    5 1  
     3    2    3 1  
     4    3    4 1  
     5    4    5 1  
     6    2    6 1  
     7    2    7 1  
     8    3    8 1  
     9    3    9 1  
    10    4   10 1  
    11    4   11 1  
    12    5   12 1  
    13    5   13 1  
