#      Rotatable Fragment
#      Build by yxyuan
#
# Name:          frag3-133-33/31924
# Creation time: Sat Jun  5 12:52:03 2010


@<TRIPOS>MOLECULE
frag3-133-33/31924
   10     9     1     1     1
SMALL
USER_CHARGES


@<TRIPOS>ATOM
      1 N2          0.6429   -1.4855    0.0403 N.pl3      1 <1>        0.000
      2 C16         0.2309   -0.2142   -0.0654 C.cat      1 <1>        0.000
      3 N3          1.1116    0.7701   -0.1749 N.pl3      1 <1>        0.000
      4 C17         0.9484    2.0780   -0.3052 C.1        1 <1>        0.000
      5 N4          0.7580    3.2059   -0.4325 N.1        1 <1>        0.000
      6 N5         -1.0860    0.0319   -0.0424 N.pl3      1 <1>        0.000
      7 H          -0.0404   -2.2368    0.1353 H.spc      1 <1>        0.000
      8 H           1.6397   -1.7015    0.0257 H.spc      1 <1>        0.000
      9 H           2.0855    0.4675   -0.1554 H.spc      1 <1>        0.000
     10 H          -1.4269    0.9909   -0.1098 H.spc      1 <1>        0.000
@<TRIPOS>BOND
     1    1    2 ar 
     2    2    3 ar 
     3    2    6 ar 
     4    3    4 1  
     5    4    5 3  
     6    1    7 1  
     7    1    8 1  
     8    3    9 1  
     9    6   10 1  
# Name:          frag3-133-33/31924
# Creation time: Sat Jun  5 12:52:03 2010


@<TRIPOS>MOLECULE
frag3-133-33/31924
   10     9     1     1     1
SMALL
USER_CHARGES


@<TRIPOS>ATOM
      1 N2          1.0879   -0.8291   -0.3442 N.pl3      1 <1>        0.000
      2 C16         0.0025   -0.1214   -0.0142 C.cat      1 <1>        0.000
      3 N3          0.0637    1.1870    0.1828 N.pl3      1 <1>        0.000
      4 C17         0.9394    2.0719   -0.2561 C.1        1 <1>        0.000
      5 N4          1.6770    2.8511   -0.6840 N.1        1 <1>        0.000
      6 N5         -1.1648   -0.7731    0.1357 N.pl3      1 <1>        0.000
      7 H           1.0182   -1.8381   -0.4760 H.spc      1 <1>        0.000
      8 H           1.9856   -0.3599   -0.4641 H.spc      1 <1>        0.000
      9 H          -0.6817    1.5704    0.7640 H.spc      1 <1>        0.000
     10 H          -2.0051   -0.2596    0.4016 H.spc      1 <1>        0.000
@<TRIPOS>BOND
     1    1    2 ar 
     2    2    3 ar 
     3    2    6 ar 
     4    3    4 1  
     5    4    5 3  
     6    1    7 1  
     7    1    8 1  
     8    3    9 1  
     9    6   10 1  
# Name:          frag3-133-33/31924 -- energy: -0.464740
# Creation time: Sat Jun  5 12:52:03 2010


@<TRIPOS>MOLECULE
frag3-133-33/31924 -- energy: -0.464740
   10     9     1     1     1
SMALL
USER_CHARGES


@<TRIPOS>ATOM
      1 N2          0.6429   -1.4855    0.0403 N.pl3      1 <1>        0.000
      2 C16         0.2309   -0.2142   -0.0654 C.cat      1 <1>        0.000
      3 N3          1.1116    0.7701   -0.1749 N.pl3      1 <1>        0.000
      4 C17         0.9484    2.0780   -0.3052 C.1        1 <1>        0.000
      5 N4          0.7580    3.2059   -0.4325 N.1        1 <1>        0.000
      6 N5         -1.0860    0.0319   -0.0424 N.pl3      1 <1>        0.000
      7 H          -0.0404   -2.2368    0.1353 H.spc      1 <1>        0.000
      8 H           1.6397   -1.7015    0.0257 H.spc      1 <1>        0.000
      9 H           2.0855    0.4675   -0.1554 H.spc      1 <1>        0.000
     10 H          -1.4269    0.9909   -0.1098 H.spc      1 <1>        0.000
@<TRIPOS>BOND
     1    1    2 ar 
     2    2    3 ar 
     3    2    6 ar 
     4    3    4 1  
     5    4    5 3  
     6    1    7 1  
     7    1    8 1  
     8    3    9 1  
     9    6   10 1  
# Name:          frag3-133-33/31924 -- energy: -0.507828
# Creation time: Sat Jun  5 12:52:03 2010


@<TRIPOS>MOLECULE
frag3-133-33/31924 -- energy: -0.507828
   10     9     1     1     1
SMALL
USER_CHARGES


@<TRIPOS>ATOM
      1 N2          1.0879   -0.8291   -0.3442 N.pl3      1 <1>        0.000
      2 C16         0.0025   -0.1214   -0.0142 C.cat      1 <1>        0.000
      3 N3          0.0637    1.1870    0.1828 N.pl3      1 <1>        0.000
      4 C17         0.9394    2.0719   -0.2561 C.1        1 <1>        0.000
      5 N4          1.6770    2.8511   -0.6840 N.1        1 <1>        0.000
      6 N5         -1.1648   -0.7731    0.1357 N.pl3      1 <1>        0.000
      7 H           1.0182   -1.8381   -0.4760 H.spc      1 <1>        0.000
      8 H           1.9856   -0.3599   -0.4641 H.spc      1 <1>        0.000
      9 H          -0.6817    1.5704    0.7640 H.spc      1 <1>        0.000
     10 H          -2.0051   -0.2596    0.4016 H.spc      1 <1>        0.000
@<TRIPOS>BOND
     1    1    2 ar 
     2    2    3 ar 
     3    2    6 ar 
     4    3    4 1  
     5    4    5 3  
     6    1    7 1  
     7    1    8 1  
     8    3    9 1  
     9    6   10 1  
