#      Rotatable Fragment
#      Build by yxyuan
#
# Name:          frag3-148-17/31924
# Creation time: Sat Jun  5 12:52:04 2010


@<TRIPOS>MOLECULE
frag3-148-17/31924
    7     6     1     1     1
SMALL
USER_CHARGES


@<TRIPOS>ATOM
      1 C8          1.0538   -0.2937   -0.0298 C.2        1 <1>        0.000
      2 O6          1.1046   -1.4760   -0.2906 O.2        1 <1>        0.000
      3 C9         -0.2890    0.4168    0.0589 C.2        1 <1>        0.000
      4 O7         -0.4246    1.2191    0.9633 O.2        1 <1>        0.000
      5 O8         -1.0825    0.1445   -0.9840 O.3        1 <1>        0.000
      6 H           1.9746    0.2637    0.1421 H.spc      1 <1>        0.000
      7 H          -0.6832   -0.5474   -1.5164 H.spc      1 <1>        0.000
@<TRIPOS>BOND
     1    1    2 2  
     2    1    3 1  
     3    3    4 2  
     4    3    5 1  
     5    1    6 1  
     6    5    7 1  
# Name:          frag3-148-17/31924 -- energy: 0.152333
# Creation time: Sat Jun  5 12:52:04 2010


@<TRIPOS>MOLECULE
frag3-148-17/31924 -- energy: 0.152333
    7     6     1     1     1
SMALL
USER_CHARGES


@<TRIPOS>ATOM
      1 C8          1.0538   -0.2937   -0.0298 C.2        1 <1>        0.000
      2 O6          1.1046   -1.4760   -0.2906 O.2        1 <1>        0.000
      3 C9         -0.2890    0.4168    0.0589 C.2        1 <1>        0.000
      4 O7         -0.4246    1.2191    0.9633 O.2        1 <1>        0.000
      5 O8         -1.0825    0.1445   -0.9840 O.3        1 <1>        0.000
      6 H           1.9746    0.2637    0.1421 H.spc      1 <1>        0.000
      7 H          -0.6832   -0.5474   -1.5164 H.spc      1 <1>        0.000
@<TRIPOS>BOND
     1    1    2 2  
     2    1    3 1  
     3    3    4 2  
     4    3    5 1  
     5    1    6 1  
     6    5    7 1  
