#      Rotatable Fragment
#      Build by yxyuan
#
# Name:          frag2-078-2/319335
# Creation time: Sat Jun  5 12:51:59 2010


@<TRIPOS>MOLECULE
frag2-078-2/319335
   28    31     1     1     1
SMALL
USER_CHARGES


@<TRIPOS>ATOM
      1 C1          0.2539    0.5649    0.1750 C.ar       1 <1>        0.000
      2 C2          0.2217   -0.8291    0.2778 C.ar       1 <1>        0.000
      3 C3          1.4786    1.2385    0.0984 C.ar       1 <1>        0.000
      4 N1         -0.9102    1.2459    0.1448 N.ar       1 <1>        0.000
      5 C4          1.4138   -1.5503    0.3599 C.ar       1 <1>        0.000
      6 N2         -0.9629   -1.4741    0.2900 N.ar       1 <1>        0.000
      7 C5          2.6753    0.5086    0.1221 C.ar       1 <1>        0.000
      8 C6          1.5168    2.6340   -0.0068 C.ar       1 <1>        0.000
      9 C14        -3.3351   -1.4758    0.0546 C.ar       1 <1>        0.000
     10 C7         -2.0932    0.6019    0.0929 C.ar       1 <1>        0.000
     11 C8          2.6388   -0.8831    0.2747 C.ar       1 <1>        0.000
     12 C10        -2.1187   -0.7951    0.1483 C.ar       1 <1>        0.000
     13 C11         3.8986    1.1778   -0.0085 C.ar       1 <1>        0.000
     14 C12         2.7408    3.2983   -0.1214 C.ar       1 <1>        0.000
     15 C13        -3.2847    1.3226   -0.0195 C.ar       1 <1>        0.000
     16 C15         3.9323    2.5692   -0.1314 C.ar       1 <1>        0.000
     17 C16        -4.5034    0.6413   -0.0956 C.ar       1 <1>        0.000
     18 C18        -4.5278   -0.7564   -0.0693 C.ar       1 <1>        0.000
     19 H           1.3894   -2.6322    0.4903 H.spc      1 <1>        0.000
     20 H           0.5881    3.2046    0.0007 H.spc      1 <1>        0.000
     21 H          -3.3544   -2.5654    0.0780 H.spc      1 <1>        0.000
     22 H           3.5695   -1.4481    0.3272 H.spc      1 <1>        0.000
     23 H           4.8292    0.6103   -0.0143 H.spc      1 <1>        0.000
     24 H           2.7658    4.3850   -0.2030 H.spc      1 <1>        0.000
     25 H          -3.2644    2.4120   -0.0478 H.spc      1 <1>        0.000
     26 H           4.8869    3.0850   -0.2349 H.spc      1 <1>        0.000
     27 H          -5.4356    1.2006   -0.1755 H.spc      1 <1>        0.000
     28 H          -5.4775   -1.2858   -0.1455 H.spc      1 <1>        0.000
@<TRIPOS>BOND
     1    4   10 ar 
     2    3    8 ar 
     3    2    5 ar 
     4   15   17 ar 
     5    1    4 ar 
     6    5   11 ar 
     7   17   18 ar 
     8    7   13 ar 
     9    8   14 ar 
    10    1    2 ar 
    11    1    3 ar 
    12    6   12 ar 
    13    7   11 ar 
    14   10   12 ar 
    15   12    9 ar 
    16   14   16 ar 
    17   10   15 ar 
    18    9   18 ar 
    19    3    7 ar 
    20   13   16 ar 
    21    2    6 ar 
    22    5   19 1  
    23    8   20 1  
    24    9   21 1  
    25   11   22 1  
    26   13   23 1  
    27   14   24 1  
    28   15   25 1  
    29   16   26 1  
    30   17   27 1  
    31   18   28 1  
# Name:          frag2-078-2/319335 -- energy: -0.734904
# Creation time: Sat Jun  5 12:51:59 2010


@<TRIPOS>MOLECULE
frag2-078-2/319335 -- energy: -0.734904
   28    31     1     1     1
SMALL
USER_CHARGES


@<TRIPOS>ATOM
      1 C1          0.2539    0.5649    0.1750 C.ar       1 <1>        0.000
      2 C2          0.2217   -0.8291    0.2778 C.ar       1 <1>        0.000
      3 C3          1.4786    1.2385    0.0984 C.ar       1 <1>        0.000
      4 N1         -0.9102    1.2459    0.1448 N.ar       1 <1>        0.000
      5 C4          1.4138   -1.5503    0.3599 C.ar       1 <1>        0.000
      6 N2         -0.9629   -1.4741    0.2900 N.ar       1 <1>        0.000
      7 C5          2.6753    0.5086    0.1221 C.ar       1 <1>        0.000
      8 C6          1.5168    2.6340   -0.0068 C.ar       1 <1>        0.000
      9 C14        -3.3351   -1.4758    0.0546 C.ar       1 <1>        0.000
     10 C7         -2.0932    0.6019    0.0929 C.ar       1 <1>        0.000
     11 C8          2.6388   -0.8831    0.2747 C.ar       1 <1>        0.000
     12 C10        -2.1187   -0.7951    0.1483 C.ar       1 <1>        0.000
     13 C11         3.8986    1.1778   -0.0085 C.ar       1 <1>        0.000
     14 C12         2.7408    3.2983   -0.1214 C.ar       1 <1>        0.000
     15 C13        -3.2847    1.3226   -0.0195 C.ar       1 <1>        0.000
     16 C15         3.9323    2.5692   -0.1314 C.ar       1 <1>        0.000
     17 C16        -4.5034    0.6413   -0.0956 C.ar       1 <1>        0.000
     18 C18        -4.5278   -0.7564   -0.0693 C.ar       1 <1>        0.000
     19 H           1.3894   -2.6322    0.4903 H.spc      1 <1>        0.000
     20 H           0.5881    3.2046    0.0007 H.spc      1 <1>        0.000
     21 H          -3.3544   -2.5654    0.0780 H.spc      1 <1>        0.000
     22 H           3.5695   -1.4481    0.3272 H.spc      1 <1>        0.000
     23 H           4.8292    0.6103   -0.0143 H.spc      1 <1>        0.000
     24 H           2.7658    4.3850   -0.2030 H.spc      1 <1>        0.000
     25 H          -3.2644    2.4120   -0.0478 H.spc      1 <1>        0.000
     26 H           4.8869    3.0850   -0.2349 H.spc      1 <1>        0.000
     27 H          -5.4356    1.2006   -0.1755 H.spc      1 <1>        0.000
     28 H          -5.4775   -1.2858   -0.1455 H.spc      1 <1>        0.000
@<TRIPOS>BOND
     1    4   10 ar 
     2    3    8 ar 
     3    2    5 ar 
     4   15   17 ar 
     5    1    4 ar 
     6    5   11 ar 
     7   17   18 ar 
     8    7   13 ar 
     9    8   14 ar 
    10    1    2 ar 
    11    1    3 ar 
    12    6   12 ar 
    13    7   11 ar 
    14   10   12 ar 
    15   12    9 ar 
    16   14   16 ar 
    17   10   15 ar 
    18    9   18 ar 
    19    3    7 ar 
    20   13   16 ar 
    21    2    6 ar 
    22    5   19 1  
    23    8   20 1  
    24    9   21 1  
    25   11   22 1  
    26   13   23 1  
    27   14   24 1  
    28   15   25 1  
    29   16   26 1  
    30   17   27 1  
    31   18   28 1  
