#      Rotatable Fragment
#      Build by yxyuan
#
# Name:          frag5-563-152/138278
# Creation time: Sat Jun  5 12:53:44 2010


@<TRIPOS>MOLECULE
frag5-563-152/138278
   12    12     1     1     1
SMALL
USER_CHARGES


@<TRIPOS>ATOM
      1 C10         1.8889    0.7479    0.8311 C.3        1 <1>        0.000
      2 O5          3.2993    0.7477    0.7958 O.3        1 <1>        0.000
      3 C11         1.3305    1.9652    0.1471 C.3        1 <1>        0.000
      4 C12         3.6127    1.7990   -0.0172 C.2        1 <1>        0.000
      5 C13         2.5265    2.8068   -0.1617 C.3        1 <1>        0.000
      6 O6          4.6830    1.9069   -0.5864 O.2        1 <1>        0.000
      7 H           1.5660    0.7538    1.8722 H.spc      1 <1>        0.000
      8 H           1.5269   -0.1402    0.3131 H.spc      1 <1>        0.000
      9 H           0.6128    2.4924    0.7757 H.spc      1 <1>        0.000
     10 H           0.7713    1.7066   -0.7521 H.spc      1 <1>        0.000
     11 H           2.6376    3.6773    0.4848 H.spc      1 <1>        0.000
     12 H           2.4923    3.2879   -1.1392 H.spc      1 <1>        0.000
@<TRIPOS>BOND
     1    1    2 1  
     2    1    3 1  
     3    2    4 1  
     4    3    5 1  
     5    4    6 2  
     6    4    5 1  
     7    1    7 1  
     8    1    8 1  
     9    3    9 1  
    10    3   10 1  
    11    5   11 1  
    12    5   12 1  
# Name:          frag5-563-152/138278 -- energy: -0.697923
# Creation time: Sat Jun  5 12:53:44 2010


@<TRIPOS>MOLECULE
frag5-563-152/138278 -- energy: -0.697923
   12    12     1     1     1
SMALL
USER_CHARGES


@<TRIPOS>ATOM
      1 C10         1.8889    0.7479    0.8311 C.3        1 <1>        0.000
      2 O5          3.2993    0.7477    0.7958 O.3        1 <1>        0.000
      3 C11         1.3305    1.9652    0.1471 C.3        1 <1>        0.000
      4 C12         3.6127    1.7990   -0.0172 C.2        1 <1>        0.000
      5 C13         2.5265    2.8068   -0.1617 C.3        1 <1>        0.000
      6 O6          4.6830    1.9069   -0.5864 O.2        1 <1>        0.000
      7 H           1.5660    0.7538    1.8722 H.spc      1 <1>        0.000
      8 H           1.5269   -0.1402    0.3131 H.spc      1 <1>        0.000
      9 H           0.6128    2.4924    0.7757 H.spc      1 <1>        0.000
     10 H           0.7713    1.7066   -0.7521 H.spc      1 <1>        0.000
     11 H           2.6376    3.6773    0.4848 H.spc      1 <1>        0.000
     12 H           2.4923    3.2879   -1.1392 H.spc      1 <1>        0.000
@<TRIPOS>BOND
     1    1    2 1  
     2    1    3 1  
     3    2    4 1  
     4    3    5 1  
     5    4    6 2  
     6    4    5 1  
     7    1    7 1  
     8    1    8 1  
     9    3    9 1  
    10    3   10 1  
    11    5   11 1  
    12    5   12 1  
