#      Rotatable Fragment
#      Build by yxyuan
#
# Name:          frag3-156-13/31924
# Creation time: Sat Jun  5 12:52:05 2010


@<TRIPOS>MOLECULE
frag3-156-13/31924
   14    13     1     1     1
SMALL
USER_CHARGES


@<TRIPOS>ATOM
      1 N1          2.0840   -0.8032    0.2979 N.pl3      1 <1>        0.000
      2 C9          1.1776    0.0835   -0.1492 C.cat      1 <1>        0.000
      3 N2          0.0351   -0.2572   -0.6337 N.pl3      1 <1>        0.000
      4 N3          1.5413    1.3899   -0.1028 N.pl3      1 <1>        0.000
      5 C10         2.4682    2.2496    0.3685 C.cat      1 <1>        0.000
      6 N4          2.5795    3.4490   -0.0299 N.pl3      1 <1>        0.000
      7 N5          3.3064    1.8222    1.3211 N.pl3      1 <1>        0.000
      8 H           1.8807   -1.8021    0.2626 H.spc      1 <1>        0.000
      9 H           2.9749   -0.4770    0.6724 H.spc      1 <1>        0.000
     10 H          -0.6029    0.4565   -0.9857 H.spc      1 <1>        0.000
     11 H           0.8488    1.9281   -0.6236 H.spc      1 <1>        0.000
     12 H           3.2921    4.0566    0.3743 H.spc      1 <1>        0.000
     13 H           4.0082    2.4554    1.7045 H.spc      1 <1>        0.000
     14 H           3.2432    0.8634    1.6634 H.spc      1 <1>        0.000
@<TRIPOS>BOND
     1    1    2 ar 
     2    2    3 ar 
     3    2    4 ar 
     4    4    5 ar 
     5    5    6 ar 
     6    5    7 ar 
     7    1    8 1  
     8    1    9 1  
     9    3   10 1  
    10    4   11 1  
    11    6   12 1  
    12    7   13 1  
    13    7   14 1  
# Name:          frag3-156-13/31924
# Creation time: Sat Jun  5 12:52:05 2010


@<TRIPOS>MOLECULE
frag3-156-13/31924
   14    13     1     1     1
SMALL
USER_CHARGES


@<TRIPOS>ATOM
      1 N1          2.0790   -0.4865   -1.0428 N.pl3      1 <1>        0.000
      2 C9          1.2107    0.0805   -0.1959 C.cat      1 <1>        0.000
      3 N2          0.0796   -0.4709    0.0462 N.pl3      1 <1>        0.000
      4 N3          1.5275    1.2479    0.3872 N.pl3      1 <1>        0.000
      5 C10         2.4832    2.1876    0.5474 C.cat      1 <1>        0.000
      6 N4          3.6363    2.1095    0.0422 N.pl3      1 <1>        0.000
      7 N5          2.1756    3.2657    1.2876 N.pl3      1 <1>        0.000
      8 H           1.8428   -1.3659   -1.5024 H.spc      1 <1>        0.000
      9 H           2.9766   -0.0390   -1.2283 H.spc      1 <1>        0.000
     10 H          -0.5804   -0.0231    0.6820 H.spc      1 <1>        0.000
     11 H           0.7164    1.5455    0.9294 H.spc      1 <1>        0.000
     12 H           4.3135    2.8559    0.1992 H.spc      1 <1>        0.000
     13 H           2.8686    4.0002    1.4314 H.spc      1 <1>        0.000
     14 H           1.2491    3.3498    1.7057 H.spc      1 <1>        0.000
@<TRIPOS>BOND
     1    1    2 ar 
     2    2    3 ar 
     3    2    4 ar 
     4    4    5 ar 
     5    5    6 ar 
     6    5    7 ar 
     7    1    8 1  
     8    1    9 1  
     9    3   10 1  
    10    4   11 1  
    11    6   12 1  
    12    7   13 1  
    13    7   14 1  
# Name:          frag3-156-13/31924
# Creation time: Sat Jun  5 12:52:05 2010


@<TRIPOS>MOLECULE
frag3-156-13/31924
   14    13     1     1     1
SMALL
USER_CHARGES


@<TRIPOS>ATOM
      1 N1          1.5805   -0.7137    0.9021 N.pl3      1 <1>        0.000
      2 C9          1.1497    0.0646   -0.1187 C.cat      1 <1>        0.000
      3 N2          0.3683   -0.3700   -1.0476 N.pl3      1 <1>        0.000
      4 N3          1.5564    1.3807   -0.0997 N.pl3      1 <1>        0.000
      5 C10         2.5159    2.2755    0.3127 C.cat      1 <1>        0.000
      6 N4          2.2979    3.5326    0.4839 N.pl3      1 <1>        0.000
      7 N5          3.7234    1.7640    0.6392 N.pl3      1 <1>        0.000
      8 H           1.2870   -1.6889    0.9589 H.spc      1 <1>        0.000
      9 H           2.1986   -0.3248    1.6143 H.spc      1 <1>        0.000
     10 H           0.0444    0.2628   -1.7791 H.spc      1 <1>        0.000
     11 H           0.8489    1.9163   -0.6026 H.spc      1 <1>        0.000
     12 H           3.0324    4.1307    0.8622 H.spc      1 <1>        0.000
     13 H           4.4499    2.3724    1.0167 H.spc      1 <1>        0.000
     14 H           3.9083    0.7695    0.5082 H.spc      1 <1>        0.000
@<TRIPOS>BOND
     1    1    2 ar 
     2    2    3 ar 
     3    2    4 ar 
     4    4    5 ar 
     5    5    6 ar 
     6    5    7 ar 
     7    1    8 1  
     8    1    9 1  
     9    3   10 1  
    10    4   11 1  
    11    6   12 1  
    12    7   13 1  
    13    7   14 1  
# Name:          frag3-156-13/31924
# Creation time: Sat Jun  5 12:52:05 2010


@<TRIPOS>MOLECULE
frag3-156-13/31924
   14    13     1     1     1
SMALL
USER_CHARGES


@<TRIPOS>ATOM
      1 N1          1.4297   -1.2864    0.1434 N.pl3      1 <1>        0.000
      2 C9          1.2798    0.0392   -0.1220 C.cat      1 <1>        0.000
      3 N2          0.3556    0.4626   -0.8781 N.pl3      1 <1>        0.000
      4 N3          2.1417    0.9056    0.4755 N.pl3      1 <1>        0.000
      5 C10         2.4994    2.1875    0.4724 C.cat      1 <1>        0.000
      6 N4          1.8853    3.0900   -0.1989 N.pl3      1 <1>        0.000
      7 N5          3.6004    2.5352    1.1797 N.pl3      1 <1>        0.000
      8 H           0.7898   -1.9648   -0.2698 H.spc      1 <1>        0.000
      9 H           2.1820   -1.6021    0.7556 H.spc      1 <1>        0.000
     10 H           0.2513    1.4635   -1.0447 H.spc      1 <1>        0.000
     11 H           2.7062    0.4007    1.1587 H.spc      1 <1>        0.000
     12 H           2.2278    4.0508   -0.1941 H.spc      1 <1>        0.000
     13 H           3.9275    3.5013    1.1720 H.spc      1 <1>        0.000
     14 H           4.1027    1.8310    1.7202 H.spc      1 <1>        0.000
@<TRIPOS>BOND
     1    1    2 ar 
     2    2    3 ar 
     3    2    4 ar 
     4    4    5 ar 
     5    5    6 ar 
     6    5    7 ar 
     7    1    8 1  
     8    1    9 1  
     9    3   10 1  
    10    4   11 1  
    11    6   12 1  
    12    7   13 1  
    13    7   14 1  
# Name:          frag3-156-13/31924 -- energy: 1.393060
# Creation time: Sat Jun  5 12:52:05 2010


@<TRIPOS>MOLECULE
frag3-156-13/31924 -- energy: 1.393060
   14    13     1     1     1
SMALL
USER_CHARGES


@<TRIPOS>ATOM
      1 N1          2.0840   -0.8032    0.2979 N.pl3      1 <1>        0.000
      2 C9          1.1776    0.0835   -0.1492 C.cat      1 <1>        0.000
      3 N2          0.0351   -0.2572   -0.6337 N.pl3      1 <1>        0.000
      4 N3          1.5413    1.3899   -0.1028 N.pl3      1 <1>        0.000
      5 C10         2.4682    2.2496    0.3685 C.cat      1 <1>        0.000
      6 N4          2.5795    3.4490   -0.0299 N.pl3      1 <1>        0.000
      7 N5          3.3064    1.8222    1.3211 N.pl3      1 <1>        0.000
      8 H           1.8807   -1.8021    0.2626 H.spc      1 <1>        0.000
      9 H           2.9749   -0.4770    0.6724 H.spc      1 <1>        0.000
     10 H          -0.6029    0.4565   -0.9857 H.spc      1 <1>        0.000
     11 H           0.8488    1.9281   -0.6236 H.spc      1 <1>        0.000
     12 H           3.2921    4.0566    0.3743 H.spc      1 <1>        0.000
     13 H           4.0082    2.4554    1.7045 H.spc      1 <1>        0.000
     14 H           3.2432    0.8634    1.6634 H.spc      1 <1>        0.000
@<TRIPOS>BOND
     1    1    2 ar 
     2    2    3 ar 
     3    2    4 ar 
     4    4    5 ar 
     5    5    6 ar 
     6    5    7 ar 
     7    1    8 1  
     8    1    9 1  
     9    3   10 1  
    10    4   11 1  
    11    6   12 1  
    12    7   13 1  
    13    7   14 1  
# Name:          frag3-156-13/31924 -- energy: -0.571119
# Creation time: Sat Jun  5 12:52:05 2010


@<TRIPOS>MOLECULE
frag3-156-13/31924 -- energy: -0.571119
   14    13     1     1     1
SMALL
USER_CHARGES


@<TRIPOS>ATOM
      1 N1          2.0790   -0.4865   -1.0428 N.pl3      1 <1>        0.000
      2 C9          1.2107    0.0805   -0.1959 C.cat      1 <1>        0.000
      3 N2          0.0796   -0.4709    0.0462 N.pl3      1 <1>        0.000
      4 N3          1.5275    1.2479    0.3872 N.pl3      1 <1>        0.000
      5 C10         2.4832    2.1876    0.5474 C.cat      1 <1>        0.000
      6 N4          3.6363    2.1095    0.0422 N.pl3      1 <1>        0.000
      7 N5          2.1756    3.2657    1.2876 N.pl3      1 <1>        0.000
      8 H           1.8428   -1.3659   -1.5024 H.spc      1 <1>        0.000
      9 H           2.9766   -0.0390   -1.2283 H.spc      1 <1>        0.000
     10 H          -0.5804   -0.0231    0.6820 H.spc      1 <1>        0.000
     11 H           0.7164    1.5455    0.9294 H.spc      1 <1>        0.000
     12 H           4.3135    2.8559    0.1992 H.spc      1 <1>        0.000
     13 H           2.8686    4.0002    1.4314 H.spc      1 <1>        0.000
     14 H           1.2491    3.3498    1.7057 H.spc      1 <1>        0.000
@<TRIPOS>BOND
     1    1    2 ar 
     2    2    3 ar 
     3    2    4 ar 
     4    4    5 ar 
     5    5    6 ar 
     6    5    7 ar 
     7    1    8 1  
     8    1    9 1  
     9    3   10 1  
    10    4   11 1  
    11    6   12 1  
    12    7   13 1  
    13    7   14 1  
# Name:          frag3-156-13/31924 -- energy: -1.082616
# Creation time: Sat Jun  5 12:52:05 2010


@<TRIPOS>MOLECULE
frag3-156-13/31924 -- energy: -1.082616
   14    13     1     1     1
SMALL
USER_CHARGES


@<TRIPOS>ATOM
      1 N1          1.5805   -0.7137    0.9021 N.pl3      1 <1>        0.000
      2 C9          1.1497    0.0646   -0.1187 C.cat      1 <1>        0.000
      3 N2          0.3683   -0.3700   -1.0476 N.pl3      1 <1>        0.000
      4 N3          1.5564    1.3807   -0.0997 N.pl3      1 <1>        0.000
      5 C10         2.5159    2.2755    0.3127 C.cat      1 <1>        0.000
      6 N4          2.2979    3.5326    0.4839 N.pl3      1 <1>        0.000
      7 N5          3.7234    1.7640    0.6392 N.pl3      1 <1>        0.000
      8 H           1.2870   -1.6889    0.9589 H.spc      1 <1>        0.000
      9 H           2.1986   -0.3248    1.6143 H.spc      1 <1>        0.000
     10 H           0.0444    0.2628   -1.7791 H.spc      1 <1>        0.000
     11 H           0.8489    1.9163   -0.6026 H.spc      1 <1>        0.000
     12 H           3.0324    4.1307    0.8622 H.spc      1 <1>        0.000
     13 H           4.4499    2.3724    1.0167 H.spc      1 <1>        0.000
     14 H           3.9083    0.7695    0.5082 H.spc      1 <1>        0.000
@<TRIPOS>BOND
     1    1    2 ar 
     2    2    3 ar 
     3    2    4 ar 
     4    4    5 ar 
     5    5    6 ar 
     6    5    7 ar 
     7    1    8 1  
     8    1    9 1  
     9    3   10 1  
    10    4   11 1  
    11    6   12 1  
    12    7   13 1  
    13    7   14 1  
# Name:          frag3-156-13/31924 -- energy: -0.694656
# Creation time: Sat Jun  5 12:52:05 2010


@<TRIPOS>MOLECULE
frag3-156-13/31924 -- energy: -0.694656
   14    13     1     1     1
SMALL
USER_CHARGES


@<TRIPOS>ATOM
      1 N1          1.4297   -1.2864    0.1434 N.pl3      1 <1>        0.000
      2 C9          1.2798    0.0392   -0.1220 C.cat      1 <1>        0.000
      3 N2          0.3556    0.4626   -0.8781 N.pl3      1 <1>        0.000
      4 N3          2.1417    0.9056    0.4755 N.pl3      1 <1>        0.000
      5 C10         2.4994    2.1875    0.4724 C.cat      1 <1>        0.000
      6 N4          1.8853    3.0900   -0.1989 N.pl3      1 <1>        0.000
      7 N5          3.6004    2.5352    1.1797 N.pl3      1 <1>        0.000
      8 H           0.7898   -1.9648   -0.2698 H.spc      1 <1>        0.000
      9 H           2.1820   -1.6021    0.7556 H.spc      1 <1>        0.000
     10 H           0.2513    1.4635   -1.0447 H.spc      1 <1>        0.000
     11 H           2.7062    0.4007    1.1587 H.spc      1 <1>        0.000
     12 H           2.2278    4.0508   -0.1941 H.spc      1 <1>        0.000
     13 H           3.9275    3.5013    1.1720 H.spc      1 <1>        0.000
     14 H           4.1027    1.8310    1.7202 H.spc      1 <1>        0.000
@<TRIPOS>BOND
     1    1    2 ar 
     2    2    3 ar 
     3    2    4 ar 
     4    4    5 ar 
     5    5    6 ar 
     6    5    7 ar 
     7    1    8 1  
     8    1    9 1  
     9    3   10 1  
    10    4   11 1  
    11    6   12 1  
    12    7   13 1  
    13    7   14 1  
