#      Rotatable Fragment
#      Build by yxyuan
#
# Name:          frag4-351-385/150395
# Creation time: Sat Jun  5 12:53:31 2010


@<TRIPOS>MOLECULE
frag4-351-385/150395
   15    16     1     1     1
SMALL
USER_CHARGES


@<TRIPOS>ATOM
      1 C1          0.4012    0.8827    0.1681 C.2        1 <1>        0.000
      2 C2          0.7669   -0.5659    0.2346 C.2        1 <1>        0.000
      3 N1          1.5660    1.4593    0.0636 N.2        1 <1>        0.000
      4 C3         -1.0002    1.3231    0.1358 C.2        1 <1>        0.000
      5 O1          2.0858   -0.7105    0.2970 O.3        1 <1>        0.000
      6 C4         -0.1305   -1.4876   -0.0019 C.2        1 <1>        0.000
      7 C5          2.5355    0.4552   -0.0198 C.2        1 <1>        0.000
      8 C6         -1.9017    0.3259   -0.0102 C.2        1 <1>        0.000
      9 C7         -1.5358   -1.0992   -0.0798 C.3        1 <1>        0.000
     10 H          -1.2900    2.3703    0.2226 H.spc      1 <1>        0.000
     11 H           0.1656   -2.5277   -0.1385 H.spc      1 <1>        0.000
     12 H           3.5665    0.6394   -0.3219 H.spc      1 <1>        0.000
     13 H          -2.9566    0.5911   -0.0802 H.spc      1 <1>        0.000
     14 H          -1.9945   -1.5451    0.8027 H.spc      1 <1>        0.000
     15 H          -1.8554   -1.4179   -1.0720 H.spc      1 <1>        0.000
@<TRIPOS>BOND
     1    1    2 1  
     2    1    3 2  
     3    1    4 1  
     4    2    5 1  
     5    2    6 2  
     6    4    8 2  
     7    3    7 1  
     8    5    7 2  
     9    6    9 1  
    10    8    9 1  
    11    4   10 1  
    12    6   11 1  
    13    7   12 1  
    14    8   13 1  
    15    9   14 1  
    16    9   15 1  
# Name:          frag4-351-385/150395 -- energy: -0.708265
# Creation time: Sat Jun  5 12:53:31 2010


@<TRIPOS>MOLECULE
frag4-351-385/150395 -- energy: -0.708265
   15    16     1     1     1
SMALL
USER_CHARGES


@<TRIPOS>ATOM
      1 C1          0.4012    0.8827    0.1681 C.2        1 <1>        0.000
      2 C2          0.7669   -0.5659    0.2346 C.2        1 <1>        0.000
      3 N1          1.5660    1.4593    0.0636 N.2        1 <1>        0.000
      4 C3         -1.0002    1.3231    0.1358 C.2        1 <1>        0.000
      5 O1          2.0858   -0.7105    0.2970 O.3        1 <1>        0.000
      6 C4         -0.1305   -1.4876   -0.0019 C.2        1 <1>        0.000
      7 C5          2.5355    0.4552   -0.0198 C.2        1 <1>        0.000
      8 C6         -1.9017    0.3259   -0.0102 C.2        1 <1>        0.000
      9 C7         -1.5358   -1.0992   -0.0798 C.3        1 <1>        0.000
     10 H          -1.2900    2.3703    0.2226 H.spc      1 <1>        0.000
     11 H           0.1656   -2.5277   -0.1385 H.spc      1 <1>        0.000
     12 H           3.5665    0.6394   -0.3219 H.spc      1 <1>        0.000
     13 H          -2.9566    0.5911   -0.0802 H.spc      1 <1>        0.000
     14 H          -1.9945   -1.5451    0.8027 H.spc      1 <1>        0.000
     15 H          -1.8554   -1.4179   -1.0720 H.spc      1 <1>        0.000
@<TRIPOS>BOND
     1    1    2 1  
     2    1    3 2  
     3    1    4 1  
     4    2    5 1  
     5    2    6 2  
     6    4    8 2  
     7    3    7 1  
     8    5    7 2  
     9    6    9 1  
    10    8    9 1  
    11    4   10 1  
    12    6   11 1  
    13    7   12 1  
    14    8   13 1  
    15    9   14 1  
    16    9   15 1  
