#      Rotatable Fragment
#      Build by yxyuan
#
# Name:          frag3-129-34/31924
# Creation time: Sat Jun  5 12:52:03 2010


@<TRIPOS>MOLECULE
frag3-129-34/31924
   13    12     1     1     1
SMALL
USER_CHARGES


@<TRIPOS>ATOM
      1 C12        -2.1182   -2.0671    2.0569 C.2        1 <1>        0.000
      2 C13        -2.5600   -1.8082    0.8274 C.2        1 <1>        0.000
      3 C14        -3.7255   -1.0386    0.4681 C.2        1 <1>        0.000
      4 C15        -4.8164   -0.8402    1.2162 C.2        1 <1>        0.000
      5 C16        -5.9792   -0.0218    0.8044 C.2        1 <1>        0.000
      6 O3         -6.8955    0.1819    1.5810 O.2        1 <1>        0.000
      7 O4         -6.0419    0.4917   -0.4268 O.3        1 <1>        0.000
      8 H          -2.6567   -1.6806    2.9222 H.spc      1 <1>        0.000
      9 H          -1.2181   -2.6655    2.1978 H.spc      1 <1>        0.000
     10 H          -1.9780   -2.2226    0.0042 H.spc      1 <1>        0.000
     11 H          -3.7165   -0.5696   -0.5158 H.spc      1 <1>        0.000
     12 H          -4.8517   -1.3140    2.1972 H.spc      1 <1>        0.000
     13 H          -5.2528    0.2461   -0.9153 H.spc      1 <1>        0.000
@<TRIPOS>BOND
     1    1    2 2  
     2    2    3 1  
     3    3    4 2  
     4    4    5 1  
     5    5    6 2  
     6    5    7 1  
     7    1    8 1  
     8    1    9 1  
     9    2   10 1  
    10    3   11 1  
    11    4   12 1  
    12    7   13 1  
# Name:          frag3-129-34/31924
# Creation time: Sat Jun  5 12:52:03 2010


@<TRIPOS>MOLECULE
frag3-129-34/31924
   13    12     1     1     1
SMALL
USER_CHARGES


@<TRIPOS>ATOM
      1 C12        -1.8098   -2.5472    1.1324 C.2        1 <1>        0.000
      2 C13        -2.5884   -1.5355    1.5144 C.2        1 <1>        0.000
      3 C14        -3.8055   -1.0769    0.8894 C.2        1 <1>        0.000
      4 C15        -4.8151   -0.4145    1.4608 C.2        1 <1>        0.000
      5 C16        -6.0362    0.0229    0.7457 C.2        1 <1>        0.000
      6 O3         -7.0754    0.2046    1.3552 O.2        1 <1>        0.000
      7 O4         -6.0062    0.2443   -0.5707 O.3        1 <1>        0.000
      8 H          -2.0715   -3.1340    0.2519 H.spc      1 <1>        0.000
      9 H          -0.9112   -2.7879    1.7004 H.spc      1 <1>        0.000
     10 H          -2.2686   -0.9908    2.4027 H.spc      1 <1>        0.000
     11 H          -3.9137   -1.2966   -0.1727 H.spc      1 <1>        0.000
     12 H          -4.7350   -0.1807    2.5224 H.spc      1 <1>        0.000
     13 H          -5.1258    0.0586   -0.9053 H.spc      1 <1>        0.000
@<TRIPOS>BOND
     1    1    2 2  
     2    2    3 1  
     3    3    4 2  
     4    4    5 1  
     5    5    6 2  
     6    5    7 1  
     7    1    8 1  
     8    1    9 1  
     9    2   10 1  
    10    3   11 1  
    11    4   12 1  
    12    7   13 1  
# Name:          frag3-129-34/31924
# Creation time: Sat Jun  5 12:52:03 2010


@<TRIPOS>MOLECULE
frag3-129-34/31924
   13    12     1     1     1
SMALL
USER_CHARGES


@<TRIPOS>ATOM
      1 C12        -1.8827   -2.3831    2.0131 C.2        1 <1>        0.000
      2 C13        -2.5963   -1.7197    1.1046 C.2        1 <1>        0.000
      3 C14        -3.9221   -1.1783    1.2525 C.2        1 <1>        0.000
      4 C15        -4.6194   -0.4527    0.3525 C.2        1 <1>        0.000
      5 C16        -5.9825    0.0507    0.5834 C.2        1 <1>        0.000
      6 O3         -6.5116   -0.0273    1.6803 O.2        1 <1>        0.000
      7 O4         -6.6220    0.6081   -0.4593 O.3        1 <1>        0.000
      8 H          -2.2986   -2.5686    3.0034 H.spc      1 <1>        0.000
      9 H          -0.8830   -2.7404    1.7661 H.spc      1 <1>        0.000
     10 H          -2.1206   -1.5691    0.1355 H.spc      1 <1>        0.000
     11 H          -4.4207   -1.3773    2.2011 H.spc      1 <1>        0.000
     12 H          -4.1442   -0.2263   -0.6020 H.spc      1 <1>        0.000
     13 H          -6.0544    0.5809   -1.2330 H.spc      1 <1>        0.000
@<TRIPOS>BOND
     1    1    2 2  
     2    2    3 1  
     3    3    4 2  
     4    4    5 1  
     5    5    6 2  
     6    5    7 1  
     7    1    8 1  
     8    1    9 1  
     9    2   10 1  
    10    3   11 1  
    11    4   12 1  
    12    7   13 1  
# Name:          frag3-129-34/31924
# Creation time: Sat Jun  5 12:52:03 2010


@<TRIPOS>MOLECULE
frag3-129-34/31924
   13    12     1     1     1
SMALL
USER_CHARGES


@<TRIPOS>ATOM
      1 C12        -1.9913   -2.2270    0.8343 C.2        1 <1>        0.000
      2 C13        -2.7025   -1.7069    1.8352 C.2        1 <1>        0.000
      3 C14        -3.9535   -1.0012    1.7371 C.2        1 <1>        0.000
      4 C15        -4.6391   -0.7334    0.6010 C.2        1 <1>        0.000
      5 C16        -5.9254   -0.0221    0.5638 C.2        1 <1>        0.000
      6 O3         -6.5977    0.1197    1.5746 O.2        1 <1>        0.000
      7 O4         -6.3271    0.4685   -0.6188 O.3        1 <1>        0.000
      8 H          -2.3483   -2.1379   -0.1917 H.spc      1 <1>        0.000
      9 H          -1.0530   -2.7412    1.0422 H.spc      1 <1>        0.000
     10 H          -2.2917   -1.8295    2.8374 H.spc      1 <1>        0.000
     11 H          -4.3921   -0.6475    2.6702 H.spc      1 <1>        0.000
     12 H          -4.2111   -1.0656   -0.3448 H.spc      1 <1>        0.000
     13 H          -5.6729    0.2594   -1.2896 H.spc      1 <1>        0.000
@<TRIPOS>BOND
     1    1    2 2  
     2    2    3 1  
     3    3    4 2  
     4    4    5 1  
     5    5    6 2  
     6    5    7 1  
     7    1    8 1  
     8    1    9 1  
     9    2   10 1  
    10    3   11 1  
    11    4   12 1  
    12    7   13 1  
# Name:          frag3-129-34/31924 -- energy: 0.373514
# Creation time: Sat Jun  5 12:52:03 2010


@<TRIPOS>MOLECULE
frag3-129-34/31924 -- energy: 0.373514
   13    12     1     1     1
SMALL
USER_CHARGES


@<TRIPOS>ATOM
      1 C12        -2.1182   -2.0671    2.0569 C.2        1 <1>        0.000
      2 C13        -2.5600   -1.8082    0.8274 C.2        1 <1>        0.000
      3 C14        -3.7255   -1.0386    0.4681 C.2        1 <1>        0.000
      4 C15        -4.8164   -0.8402    1.2162 C.2        1 <1>        0.000
      5 C16        -5.9792   -0.0218    0.8044 C.2        1 <1>        0.000
      6 O3         -6.8955    0.1819    1.5810 O.2        1 <1>        0.000
      7 O4         -6.0419    0.4917   -0.4268 O.3        1 <1>        0.000
      8 H          -2.6567   -1.6806    2.9222 H.spc      1 <1>        0.000
      9 H          -1.2181   -2.6655    2.1978 H.spc      1 <1>        0.000
     10 H          -1.9780   -2.2226    0.0042 H.spc      1 <1>        0.000
     11 H          -3.7165   -0.5696   -0.5158 H.spc      1 <1>        0.000
     12 H          -4.8517   -1.3140    2.1972 H.spc      1 <1>        0.000
     13 H          -5.2528    0.2461   -0.9153 H.spc      1 <1>        0.000
@<TRIPOS>BOND
     1    1    2 2  
     2    2    3 1  
     3    3    4 2  
     4    4    5 1  
     5    5    6 2  
     6    5    7 1  
     7    1    8 1  
     8    1    9 1  
     9    2   10 1  
    10    3   11 1  
    11    4   12 1  
    12    7   13 1  
# Name:          frag3-129-34/31924 -- energy: -0.459656
# Creation time: Sat Jun  5 12:52:03 2010


@<TRIPOS>MOLECULE
frag3-129-34/31924 -- energy: -0.459656
   13    12     1     1     1
SMALL
USER_CHARGES


@<TRIPOS>ATOM
      1 C12        -1.8098   -2.5472    1.1324 C.2        1 <1>        0.000
      2 C13        -2.5884   -1.5355    1.5144 C.2        1 <1>        0.000
      3 C14        -3.8055   -1.0769    0.8894 C.2        1 <1>        0.000
      4 C15        -4.8151   -0.4145    1.4608 C.2        1 <1>        0.000
      5 C16        -6.0362    0.0229    0.7457 C.2        1 <1>        0.000
      6 O3         -7.0754    0.2046    1.3552 O.2        1 <1>        0.000
      7 O4         -6.0062    0.2443   -0.5707 O.3        1 <1>        0.000
      8 H          -2.0715   -3.1340    0.2519 H.spc      1 <1>        0.000
      9 H          -0.9112   -2.7879    1.7004 H.spc      1 <1>        0.000
     10 H          -2.2686   -0.9908    2.4027 H.spc      1 <1>        0.000
     11 H          -3.9137   -1.2966   -0.1727 H.spc      1 <1>        0.000
     12 H          -4.7350   -0.1807    2.5224 H.spc      1 <1>        0.000
     13 H          -5.1258    0.0586   -0.9053 H.spc      1 <1>        0.000
@<TRIPOS>BOND
     1    1    2 2  
     2    2    3 1  
     3    3    4 2  
     4    4    5 1  
     5    5    6 2  
     6    5    7 1  
     7    1    8 1  
     8    1    9 1  
     9    2   10 1  
    10    3   11 1  
    11    4   12 1  
    12    7   13 1  
# Name:          frag3-129-34/31924 -- energy: -0.616506
# Creation time: Sat Jun  5 12:52:03 2010


@<TRIPOS>MOLECULE
frag3-129-34/31924 -- energy: -0.616506
   13    12     1     1     1
SMALL
USER_CHARGES


@<TRIPOS>ATOM
      1 C12        -1.8827   -2.3831    2.0131 C.2        1 <1>        0.000
      2 C13        -2.5963   -1.7197    1.1046 C.2        1 <1>        0.000
      3 C14        -3.9221   -1.1783    1.2525 C.2        1 <1>        0.000
      4 C15        -4.6194   -0.4527    0.3525 C.2        1 <1>        0.000
      5 C16        -5.9825    0.0507    0.5834 C.2        1 <1>        0.000
      6 O3         -6.5116   -0.0273    1.6803 O.2        1 <1>        0.000
      7 O4         -6.6220    0.6081   -0.4593 O.3        1 <1>        0.000
      8 H          -2.2986   -2.5686    3.0034 H.spc      1 <1>        0.000
      9 H          -0.8830   -2.7404    1.7661 H.spc      1 <1>        0.000
     10 H          -2.1206   -1.5691    0.1355 H.spc      1 <1>        0.000
     11 H          -4.4207   -1.3773    2.2011 H.spc      1 <1>        0.000
     12 H          -4.1442   -0.2263   -0.6020 H.spc      1 <1>        0.000
     13 H          -6.0544    0.5809   -1.2330 H.spc      1 <1>        0.000
@<TRIPOS>BOND
     1    1    2 2  
     2    2    3 1  
     3    3    4 2  
     4    4    5 1  
     5    5    6 2  
     6    5    7 1  
     7    1    8 1  
     8    1    9 1  
     9    2   10 1  
    10    3   11 1  
    11    4   12 1  
    12    7   13 1  
# Name:          frag3-129-34/31924 -- energy: -0.668565
# Creation time: Sat Jun  5 12:52:03 2010


@<TRIPOS>MOLECULE
frag3-129-34/31924 -- energy: -0.668565
   13    12     1     1     1
SMALL
USER_CHARGES


@<TRIPOS>ATOM
      1 C12        -1.9913   -2.2270    0.8343 C.2        1 <1>        0.000
      2 C13        -2.7025   -1.7069    1.8352 C.2        1 <1>        0.000
      3 C14        -3.9535   -1.0012    1.7371 C.2        1 <1>        0.000
      4 C15        -4.6391   -0.7334    0.6010 C.2        1 <1>        0.000
      5 C16        -5.9254   -0.0221    0.5638 C.2        1 <1>        0.000
      6 O3         -6.5977    0.1197    1.5746 O.2        1 <1>        0.000
      7 O4         -6.3271    0.4685   -0.6188 O.3        1 <1>        0.000
      8 H          -2.3483   -2.1379   -0.1917 H.spc      1 <1>        0.000
      9 H          -1.0530   -2.7412    1.0422 H.spc      1 <1>        0.000
     10 H          -2.2917   -1.8295    2.8374 H.spc      1 <1>        0.000
     11 H          -4.3921   -0.6475    2.6702 H.spc      1 <1>        0.000
     12 H          -4.2111   -1.0656   -0.3448 H.spc      1 <1>        0.000
     13 H          -5.6729    0.2594   -1.2896 H.spc      1 <1>        0.000
@<TRIPOS>BOND
     1    1    2 2  
     2    2    3 1  
     3    3    4 2  
     4    4    5 1  
     5    5    6 2  
     6    5    7 1  
     7    1    8 1  
     8    1    9 1  
     9    2   10 1  
    10    3   11 1  
    11    4   12 1  
    12    7   13 1  
