#      Rotatable Fragment
#      Build by yxyuan
#
# Name:          frag4-425-48/48856
# Creation time: Sat Jun  5 12:52:21 2010


@<TRIPOS>MOLECULE
frag4-425-48/48856
   14    14     1     1     1
SMALL
USER_CHARGES


@<TRIPOS>ATOM
      1 N1          4.0491   -1.1465   -2.1925 N.pl3      1 <1>        0.000
      2 N2          3.0494   -0.5143   -1.6089 N.2        1 <1>        0.000
      3 C1          2.3512   -0.9532   -0.6227 C.2        1 <1>        0.000
      4 C2          2.6111   -2.2990    0.0020 C.3        1 <1>        0.000
      5 C3          3.7434   -3.0811   -0.6157 C.3        1 <1>        0.000
      6 C4          4.4289   -2.4087   -1.7429 C.3        1 <1>        0.000
      7 H           4.5432   -0.7117   -2.9718 H.spc      1 <1>        0.000
      8 H           1.5471   -0.3329   -0.2267 H.spc      1 <1>        0.000
      9 H           1.7067   -2.8909   -0.1385 H.spc      1 <1>        0.000
     10 H           2.8854   -2.1158    1.0409 H.spc      1 <1>        0.000
     11 H           3.3106   -3.9989   -1.0138 H.spc      1 <1>        0.000
     12 H           4.4898   -3.2234    0.1658 H.spc      1 <1>        0.000
     13 H           5.4414   -2.2533   -1.3702 H.spc      1 <1>        0.000
     14 H           4.2183   -3.0570   -2.5934 H.spc      1 <1>        0.000
@<TRIPOS>BOND
     1    1    2 1  
     2    1    6 1  
     3    2    3 2  
     4    3    4 1  
     5    4    5 1  
     6    5    6 1  
     7    1    7 1  
     8    3    8 1  
     9    4    9 1  
    10    4   10 1  
    11    5   11 1  
    12    5   12 1  
    13    6   13 1  
    14    6   14 1  
# Name:          frag4-425-48/48856 -- energy: -0.430485
# Creation time: Sat Jun  5 12:52:21 2010


@<TRIPOS>MOLECULE
frag4-425-48/48856 -- energy: -0.430485
   14    14     1     1     1
SMALL
USER_CHARGES


@<TRIPOS>ATOM
      1 N1          4.0491   -1.1465   -2.1925 N.pl3      1 <1>        0.000
      2 N2          3.0494   -0.5143   -1.6089 N.2        1 <1>        0.000
      3 C1          2.3512   -0.9532   -0.6227 C.2        1 <1>        0.000
      4 C2          2.6111   -2.2990    0.0020 C.3        1 <1>        0.000
      5 C3          3.7434   -3.0811   -0.6157 C.3        1 <1>        0.000
      6 C4          4.4289   -2.4087   -1.7429 C.3        1 <1>        0.000
      7 H           4.5432   -0.7117   -2.9718 H.spc      1 <1>        0.000
      8 H           1.5471   -0.3329   -0.2267 H.spc      1 <1>        0.000
      9 H           1.7067   -2.8909   -0.1385 H.spc      1 <1>        0.000
     10 H           2.8854   -2.1158    1.0409 H.spc      1 <1>        0.000
     11 H           3.3106   -3.9989   -1.0138 H.spc      1 <1>        0.000
     12 H           4.4898   -3.2234    0.1658 H.spc      1 <1>        0.000
     13 H           5.4414   -2.2533   -1.3702 H.spc      1 <1>        0.000
     14 H           4.2183   -3.0570   -2.5934 H.spc      1 <1>        0.000
@<TRIPOS>BOND
     1    1    2 1  
     2    1    6 1  
     3    2    3 2  
     4    3    4 1  
     5    4    5 1  
     6    5    6 1  
     7    1    7 1  
     8    3    8 1  
     9    4    9 1  
    10    4   10 1  
    11    5   11 1  
    12    5   12 1  
    13    6   13 1  
    14    6   14 1  
