#      Rotatable Fragment
#      Build by yxyuan
#
# Name:          frag3-216-4/31924
# Creation time: Sat Jun  5 12:52:21 2010


@<TRIPOS>MOLECULE
frag3-216-4/31924
   13    12     1     1     1
SMALL
USER_CHARGES


@<TRIPOS>ATOM
      1 N1          2.7457    0.1679   -0.1385 N.am       1 <1>        0.000
      2 C9          1.6233   -0.1386    0.5446 C.2        1 <1>        0.000
      3 O1          1.6536   -0.6408    1.6550 O.2        1 <1>        0.000
      4 C10         0.3576    0.1462   -0.1408 C.2        1 <1>        0.000
      5 C11        -0.8110   -0.2882    0.3519 C.2        1 <1>        0.000
      6 C12        -2.0620    0.0339   -0.3294 C.2        1 <1>        0.000
      7 O2         -3.1386   -0.2617    0.1724 O.2        1 <1>        0.000
      8 O3         -1.9920    0.6935   -1.4894 O.3        1 <1>        0.000
      9 H           3.6602   -0.0199    0.2725 H.spc      1 <1>        0.000
     10 H           2.6798    0.5874   -1.0659 H.spc      1 <1>        0.000
     11 H           0.3677    0.7211   -1.0668 H.spc      1 <1>        0.000
     12 H          -0.8276   -0.8841    1.2645 H.spc      1 <1>        0.000
     13 H          -1.0711    0.8342   -1.7212 H.spc      1 <1>        0.000
@<TRIPOS>BOND
     1    1    2 am 
     2    2    4 1  
     3    2    3 2  
     4    4    5 2  
     5    5    6 1  
     6    6    7 2  
     7    6    8 1  
     8    1    9 1  
     9    1   10 1  
    10    4   11 1  
    11    5   12 1  
    12    8   13 1  
# Name:          frag3-216-4/31924
# Creation time: Sat Jun  5 12:52:21 2010


@<TRIPOS>MOLECULE
frag3-216-4/31924
   13    12     1     1     1
SMALL
USER_CHARGES


@<TRIPOS>ATOM
      1 N1          2.2958    0.7307    0.1615 N.am       1 <1>        0.000
      2 C9          1.5472   -0.2370    0.7435 C.2        1 <1>        0.000
      3 O1          2.0413   -1.2276    1.2512 O.2        1 <1>        0.000
      4 C10         0.0967   -0.0595    0.7466 C.2        1 <1>        0.000
      5 C11        -0.5148    0.0005   -0.4460 C.2        1 <1>        0.000
      6 C12        -1.9624    0.1511   -0.5228 C.2        1 <1>        0.000
      7 O2         -2.6607    0.5299    0.4034 O.2        1 <1>        0.000
      8 O3         -2.4664   -0.1756   -1.7115 O.3        1 <1>        0.000
      9 H           3.3119    0.6444    0.1377 H.spc      1 <1>        0.000
     10 H           1.8433    1.5455   -0.2529 H.spc      1 <1>        0.000
     11 H          -0.4642    0.0207    1.6777 H.spc      1 <1>        0.000
     12 H           0.0735   -0.0637   -1.3614 H.spc      1 <1>        0.000
     13 H          -1.7546   -0.4456   -2.2963 H.spc      1 <1>        0.000
@<TRIPOS>BOND
     1    1    2 am 
     2    2    4 1  
     3    2    3 2  
     4    4    5 2  
     5    5    6 1  
     6    6    7 2  
     7    6    8 1  
     8    1    9 1  
     9    1   10 1  
    10    4   11 1  
    11    5   12 1  
    12    8   13 1  
# Name:          frag3-216-4/31924
# Creation time: Sat Jun  5 12:52:21 2010


@<TRIPOS>MOLECULE
frag3-216-4/31924
   13    12     1     1     1
SMALL
USER_CHARGES


@<TRIPOS>ATOM
      1 N1          2.1869   -0.8741   -0.2682 N.am       1 <1>        0.000
      2 C9          1.5885   -0.0908    0.6612 C.2        1 <1>        0.000
      3 O1          2.1437    0.2636    1.6826 O.2        1 <1>        0.000
      4 C10         0.2261    0.3774    0.3863 C.2        1 <1>        0.000
      5 C11        -0.6702   -0.4681   -0.1442 C.2        1 <1>        0.000
      6 C12        -2.0086   -0.0005   -0.4530 C.2        1 <1>        0.000
      7 O2         -2.9733   -0.7359   -0.3205 O.2        1 <1>        0.000
      8 O3         -2.1165    1.2410   -0.9183 O.3        1 <1>        0.000
      9 H           3.1454   -1.1927   -0.1260 H.spc      1 <1>        0.000
     10 H           1.6790   -1.1452   -1.1101 H.spc      1 <1>        0.000
     11 H          -0.0564    1.4058    0.6116 H.spc      1 <1>        0.000
     12 H          -0.3938   -1.5036   -0.3427 H.spc      1 <1>        0.000
     13 H          -1.2475    1.6482   -0.9451 H.spc      1 <1>        0.000
@<TRIPOS>BOND
     1    1    2 am 
     2    2    4 1  
     3    2    3 2  
     4    4    5 2  
     5    5    6 1  
     6    6    7 2  
     7    6    8 1  
     8    1    9 1  
     9    1   10 1  
    10    4   11 1  
    11    5   12 1  
    12    8   13 1  
# Name:          frag3-216-4/31924
# Creation time: Sat Jun  5 12:52:21 2010


@<TRIPOS>MOLECULE
frag3-216-4/31924
   13    12     1     1     1
SMALL
USER_CHARGES


@<TRIPOS>ATOM
      1 N1          2.6962   -0.7410   -0.0779 N.am       1 <1>        0.000
      2 C9          1.6150   -0.2353    0.5573 C.2        1 <1>        0.000
      3 O1          1.7078    0.3994    1.6015 O.2        1 <1>        0.000
      4 C10         0.3094   -0.4624   -0.0767 C.2        1 <1>        0.000
      5 C11        -0.7266    0.3321    0.2453 C.2        1 <1>        0.000
      6 C12        -2.0286    0.1335   -0.3928 C.2        1 <1>        0.000
      7 O2         -2.3063   -0.8336   -1.0755 O.2        1 <1>        0.000
      8 O3         -2.8902    1.1197   -0.1555 O.3        1 <1>        0.000
      9 H           3.6286   -0.5992    0.3107 H.spc      1 <1>        0.000
     10 H           2.5795   -1.2643   -0.9456 H.spc      1 <1>        0.000
     11 H           0.1817   -1.2669   -0.8009 H.spc      1 <1>        0.000
     12 H          -0.5965    1.1247    0.9822 H.spc      1 <1>        0.000
     13 H          -2.4729    1.7804    0.4021 H.spc      1 <1>        0.000
@<TRIPOS>BOND
     1    1    2 am 
     2    2    4 1  
     3    2    3 2  
     4    4    5 2  
     5    5    6 1  
     6    6    7 2  
     7    6    8 1  
     8    1    9 1  
     9    1   10 1  
    10    4   11 1  
    11    5   12 1  
    12    8   13 1  
# Name:          frag3-216-4/31924
# Creation time: Sat Jun  5 12:52:21 2010


@<TRIPOS>MOLECULE
frag3-216-4/31924
   13    12     1     1     1
SMALL
USER_CHARGES


@<TRIPOS>ATOM
      1 N1          2.5374    0.8189    0.4766 N.am       1 <1>        0.000
      2 C9          1.6181   -0.1799    0.5075 C.2        1 <1>        0.000
      3 O1          1.8041   -1.2551    1.0493 O.2        1 <1>        0.000
      4 C10         0.3588    0.1227   -0.1827 C.2        1 <1>        0.000
      5 C11        -0.8091   -0.2133    0.3895 C.2        1 <1>        0.000
      6 C12        -2.0615    0.0843   -0.2995 C.2        1 <1>        0.000
      7 O2         -3.0215    0.5460    0.2894 O.2        1 <1>        0.000
      8 O3         -2.0495   -0.2112   -1.6042 O.3        1 <1>        0.000
      9 H           3.4450    0.6907    0.9242 H.spc      1 <1>        0.000
     10 H           2.3204    1.6974    0.0058 H.spc      1 <1>        0.000
     11 H           0.3711    0.6172   -1.1540 H.spc      1 <1>        0.000
     12 H          -0.8218   -0.7051    1.3622 H.spc      1 <1>        0.000
     13 H          -1.1883   -0.5610   -1.8440 H.spc      1 <1>        0.000
@<TRIPOS>BOND
     1    1    2 am 
     2    2    4 1  
     3    2    3 2  
     4    4    5 2  
     5    5    6 1  
     6    6    7 2  
     7    6    8 1  
     8    1    9 1  
     9    1   10 1  
    10    4   11 1  
    11    5   12 1  
    12    8   13 1  
# Name:          frag3-216-4/31924 -- energy: -0.544310
# Creation time: Sat Jun  5 12:52:21 2010


@<TRIPOS>MOLECULE
frag3-216-4/31924 -- energy: -0.544310
   13    12     1     1     1
SMALL
USER_CHARGES


@<TRIPOS>ATOM
      1 N1          2.2958    0.7307    0.1615 N.am       1 <1>        0.000
      2 C9          1.5472   -0.2370    0.7435 C.2        1 <1>        0.000
      3 O1          2.0413   -1.2276    1.2512 O.2        1 <1>        0.000
      4 C10         0.0967   -0.0595    0.7466 C.2        1 <1>        0.000
      5 C11        -0.5148    0.0005   -0.4460 C.2        1 <1>        0.000
      6 C12        -1.9624    0.1511   -0.5228 C.2        1 <1>        0.000
      7 O2         -2.6607    0.5299    0.4034 O.2        1 <1>        0.000
      8 O3         -2.4664   -0.1756   -1.7115 O.3        1 <1>        0.000
      9 H           3.3119    0.6444    0.1377 H.spc      1 <1>        0.000
     10 H           1.8433    1.5455   -0.2529 H.spc      1 <1>        0.000
     11 H          -0.4642    0.0207    1.6777 H.spc      1 <1>        0.000
     12 H           0.0735   -0.0637   -1.3614 H.spc      1 <1>        0.000
     13 H          -1.7546   -0.4456   -2.2963 H.spc      1 <1>        0.000
@<TRIPOS>BOND
     1    1    2 am 
     2    2    4 1  
     3    2    3 2  
     4    4    5 2  
     5    5    6 1  
     6    6    7 2  
     7    6    8 1  
     8    1    9 1  
     9    1   10 1  
    10    4   11 1  
    11    5   12 1  
    12    8   13 1  
# Name:          frag3-216-4/31924 -- energy: -0.139378
# Creation time: Sat Jun  5 12:52:21 2010


@<TRIPOS>MOLECULE
frag3-216-4/31924 -- energy: -0.139378
   13    12     1     1     1
SMALL
USER_CHARGES


@<TRIPOS>ATOM
      1 N1          2.1869   -0.8741   -0.2682 N.am       1 <1>        0.000
      2 C9          1.5885   -0.0908    0.6612 C.2        1 <1>        0.000
      3 O1          2.1437    0.2636    1.6826 O.2        1 <1>        0.000
      4 C10         0.2261    0.3774    0.3863 C.2        1 <1>        0.000
      5 C11        -0.6702   -0.4681   -0.1442 C.2        1 <1>        0.000
      6 C12        -2.0086   -0.0005   -0.4530 C.2        1 <1>        0.000
      7 O2         -2.9733   -0.7359   -0.3205 O.2        1 <1>        0.000
      8 O3         -2.1165    1.2410   -0.9183 O.3        1 <1>        0.000
      9 H           3.1454   -1.1927   -0.1260 H.spc      1 <1>        0.000
     10 H           1.6790   -1.1452   -1.1101 H.spc      1 <1>        0.000
     11 H          -0.0564    1.4058    0.6116 H.spc      1 <1>        0.000
     12 H          -0.3938   -1.5036   -0.3427 H.spc      1 <1>        0.000
     13 H          -1.2475    1.6482   -0.9451 H.spc      1 <1>        0.000
@<TRIPOS>BOND
     1    1    2 am 
     2    2    4 1  
     3    2    3 2  
     4    4    5 2  
     5    5    6 1  
     6    6    7 2  
     7    6    8 1  
     8    1    9 1  
     9    1   10 1  
    10    4   11 1  
    11    5   12 1  
    12    8   13 1  
# Name:          frag3-216-4/31924 -- energy: -0.313554
# Creation time: Sat Jun  5 12:52:21 2010


@<TRIPOS>MOLECULE
frag3-216-4/31924 -- energy: -0.313554
   13    12     1     1     1
SMALL
USER_CHARGES


@<TRIPOS>ATOM
      1 N1          2.6962   -0.7410   -0.0779 N.am       1 <1>        0.000
      2 C9          1.6150   -0.2353    0.5573 C.2        1 <1>        0.000
      3 O1          1.7078    0.3994    1.6015 O.2        1 <1>        0.000
      4 C10         0.3094   -0.4624   -0.0767 C.2        1 <1>        0.000
      5 C11        -0.7266    0.3321    0.2453 C.2        1 <1>        0.000
      6 C12        -2.0286    0.1335   -0.3928 C.2        1 <1>        0.000
      7 O2         -2.3063   -0.8336   -1.0755 O.2        1 <1>        0.000
      8 O3         -2.8902    1.1197   -0.1555 O.3        1 <1>        0.000
      9 H           3.6286   -0.5992    0.3107 H.spc      1 <1>        0.000
     10 H           2.5795   -1.2643   -0.9456 H.spc      1 <1>        0.000
     11 H           0.1817   -1.2669   -0.8009 H.spc      1 <1>        0.000
     12 H          -0.5965    1.1247    0.9822 H.spc      1 <1>        0.000
     13 H          -2.4729    1.7804    0.4021 H.spc      1 <1>        0.000
@<TRIPOS>BOND
     1    1    2 am 
     2    2    4 1  
     3    2    3 2  
     4    4    5 2  
     5    5    6 1  
     6    6    7 2  
     7    6    8 1  
     8    1    9 1  
     9    1   10 1  
    10    4   11 1  
    11    5   12 1  
    12    8   13 1  
# Name:          frag3-216-4/31924 -- energy: -0.189101
# Creation time: Sat Jun  5 12:52:21 2010


@<TRIPOS>MOLECULE
frag3-216-4/31924 -- energy: -0.189101
   13    12     1     1     1
SMALL
USER_CHARGES


@<TRIPOS>ATOM
      1 N1          2.5374    0.8189    0.4766 N.am       1 <1>        0.000
      2 C9          1.6181   -0.1799    0.5075 C.2        1 <1>        0.000
      3 O1          1.8041   -1.2551    1.0493 O.2        1 <1>        0.000
      4 C10         0.3588    0.1227   -0.1827 C.2        1 <1>        0.000
      5 C11        -0.8091   -0.2133    0.3895 C.2        1 <1>        0.000
      6 C12        -2.0615    0.0843   -0.2995 C.2        1 <1>        0.000
      7 O2         -3.0215    0.5460    0.2894 O.2        1 <1>        0.000
      8 O3         -2.0495   -0.2112   -1.6042 O.3        1 <1>        0.000
      9 H           3.4450    0.6907    0.9242 H.spc      1 <1>        0.000
     10 H           2.3204    1.6974    0.0058 H.spc      1 <1>        0.000
     11 H           0.3711    0.6172   -1.1540 H.spc      1 <1>        0.000
     12 H          -0.8218   -0.7051    1.3622 H.spc      1 <1>        0.000
     13 H          -1.1883   -0.5610   -1.8440 H.spc      1 <1>        0.000
@<TRIPOS>BOND
     1    1    2 am 
     2    2    4 1  
     3    2    3 2  
     4    4    5 2  
     5    5    6 1  
     6    6    7 2  
     7    6    8 1  
     8    1    9 1  
     9    1   10 1  
    10    4   11 1  
    11    5   12 1  
    12    8   13 1  
