#      Rotatable Fragment
#      Build by yxyuan
#
# Name:          frag3-185-10/96164
# Creation time: Sat Jun  5 12:53:08 2010


@<TRIPOS>MOLECULE
frag3-185-10/96164
   10     9     1     1     1
SMALL
USER_CHARGES


@<TRIPOS>ATOM
      1 N1          1.8640    0.1591   -0.0109 N.am       1 <1>        0.000
      2 C4          0.5709   -0.3218    0.1679 C.2        1 <1>        0.000
      3 N2         -0.5921    0.2334   -0.3723 N.am       1 <1>        0.000
      4 O1          0.4561   -1.3622    0.8719 O.2        1 <1>        0.000
      5 N3         -0.5839    0.9968   -1.4811 N.3        1 <1>        0.000
      6 H           2.6524   -0.3263    0.4171 H.spc      1 <1>        0.000
      7 H           2.0237    0.9971   -0.5700 H.spc      1 <1>        0.000
      8 H          -1.4823    0.0531    0.0918 H.spc      1 <1>        0.000
      9 H          -1.5360    1.2938   -1.6950 H.spc      1 <1>        0.000
     10 H           0.0021    1.8167   -1.3236 H.spc      1 <1>        0.000
@<TRIPOS>BOND
     1    2    4 2  
     2    1    2 am 
     3    2    3 am 
     4    3    5 1  
     5    1    6 1  
     6    1    7 1  
     7    3    8 1  
     8    5    9 1  
     9    5   10 1  
# Name:          frag3-185-10/96164
# Creation time: Sat Jun  5 12:53:09 2010


@<TRIPOS>MOLECULE
frag3-185-10/96164
   10     9     1     1     1
SMALL
USER_CHARGES


@<TRIPOS>ATOM
      1 N1          2.1196   -0.0260    0.3898 N.am       1 <1>        0.000
      2 C4          0.7295   -0.2183    0.0799 C.2        1 <1>        0.000
      3 N2         -0.0051    0.6679   -0.7796 N.am       1 <1>        0.000
      4 O1          0.1557   -1.1947    0.5823 O.2        1 <1>        0.000
      5 N3         -1.2848    0.4764   -1.0969 N.3        1 <1>        0.000
      6 H           2.6005   -0.6823    1.0049 H.spc      1 <1>        0.000
      7 H           2.6253    0.7668   -0.0054 H.spc      1 <1>        0.000
      8 H           0.4752    1.4812   -1.1647 H.spc      1 <1>        0.000
      9 H          -1.5963    1.2255   -1.7152 H.spc      1 <1>        0.000
     10 H          -1.3857   -0.4212   -1.5707 H.spc      1 <1>        0.000
@<TRIPOS>BOND
     1    2    4 2  
     2    1    2 am 
     3    2    3 am 
     4    3    5 1  
     5    1    6 1  
     6    1    7 1  
     7    3    8 1  
     8    5    9 1  
     9    5   10 1  
# Name:          frag3-185-10/96164 -- energy: -0.508659
# Creation time: Sat Jun  5 12:53:09 2010


@<TRIPOS>MOLECULE
frag3-185-10/96164 -- energy: -0.508659
   10     9     1     1     1
SMALL
USER_CHARGES


@<TRIPOS>ATOM
      1 N1          1.8640    0.1591   -0.0109 N.am       1 <1>        0.000
      2 C4          0.5709   -0.3218    0.1679 C.2        1 <1>        0.000
      3 N2         -0.5921    0.2334   -0.3723 N.am       1 <1>        0.000
      4 O1          0.4561   -1.3622    0.8719 O.2        1 <1>        0.000
      5 N3         -0.5839    0.9968   -1.4811 N.3        1 <1>        0.000
      6 H           2.6524   -0.3263    0.4171 H.spc      1 <1>        0.000
      7 H           2.0237    0.9971   -0.5700 H.spc      1 <1>        0.000
      8 H          -1.4823    0.0531    0.0918 H.spc      1 <1>        0.000
      9 H          -1.5360    1.2938   -1.6950 H.spc      1 <1>        0.000
     10 H           0.0021    1.8167   -1.3236 H.spc      1 <1>        0.000
@<TRIPOS>BOND
     1    2    4 2  
     2    1    2 am 
     3    2    3 am 
     4    3    5 1  
     5    1    6 1  
     6    1    7 1  
     7    3    8 1  
     8    5    9 1  
     9    5   10 1  
# Name:          frag3-185-10/96164 -- energy: -0.426509
# Creation time: Sat Jun  5 12:53:09 2010


@<TRIPOS>MOLECULE
frag3-185-10/96164 -- energy: -0.426509
   10     9     1     1     1
SMALL
USER_CHARGES


@<TRIPOS>ATOM
      1 N1          2.1196   -0.0260    0.3898 N.am       1 <1>        0.000
      2 C4          0.7295   -0.2183    0.0799 C.2        1 <1>        0.000
      3 N2         -0.0051    0.6679   -0.7796 N.am       1 <1>        0.000
      4 O1          0.1557   -1.1947    0.5823 O.2        1 <1>        0.000
      5 N3         -1.2848    0.4764   -1.0969 N.3        1 <1>        0.000
      6 H           2.6005   -0.6823    1.0049 H.spc      1 <1>        0.000
      7 H           2.6253    0.7668   -0.0054 H.spc      1 <1>        0.000
      8 H           0.4752    1.4812   -1.1647 H.spc      1 <1>        0.000
      9 H          -1.5963    1.2255   -1.7152 H.spc      1 <1>        0.000
     10 H          -1.3857   -0.4212   -1.5707 H.spc      1 <1>        0.000
@<TRIPOS>BOND
     1    2    4 2  
     2    1    2 am 
     3    2    3 am 
     4    3    5 1  
     5    1    6 1  
     6    1    7 1  
     7    3    8 1  
     8    5    9 1  
     9    5   10 1  
