#      Rotatable Fragment
#      Build by yxyuan
#
# Name:          frag4-294-5932/48856
# Creation time: Sat Jun  5 12:52:47 2010


@<TRIPOS>MOLECULE
frag4-294-5932/48856
   16    16     1     1     1
SMALL
USER_CHARGES


@<TRIPOS>ATOM
      1 C10         2.0736   -0.1449   -1.1966 C.3        1 <1>        0.000
      2 O1          2.6731    0.0492    0.0417 O.3        1 <1>        0.000
      3 C11         3.3039    1.2299    0.4322 C.3        1 <1>        0.000
      4 C12         2.9865    2.3735   -0.5051 C.3        1 <1>        0.000
      5 C13         3.1189    2.0215   -1.9683 C.3        1 <1>        0.000
      6 C14         2.8829    0.5577   -2.2759 C.3        1 <1>        0.000
      7 H           1.0645    0.2666   -1.1772 H.spc      1 <1>        0.000
      8 H           2.0325   -1.2122   -1.4140 H.spc      1 <1>        0.000
      9 H           4.3811    1.0638    0.4172 H.spc      1 <1>        0.000
     10 H           2.9486    1.4947    1.4281 H.spc      1 <1>        0.000
     11 H           3.7010    3.1701   -0.2977 H.spc      1 <1>        0.000
     12 H           1.9478    2.6551   -0.3324 H.spc      1 <1>        0.000
     13 H           4.1423    2.2523   -2.2642 H.spc      1 <1>        0.000
     14 H           2.3609    2.5904   -2.5067 H.spc      1 <1>        0.000
     15 H           2.3214    0.4976   -3.2082 H.spc      1 <1>        0.000
     16 H           3.8545    0.0676   -2.3385 H.spc      1 <1>        0.000
@<TRIPOS>BOND
     1    1    2 1  
     2    1    6 1  
     3    2    3 1  
     4    3    4 1  
     5    4    5 1  
     6    5    6 1  
     7    1    7 1  
     8    1    8 1  
     9    3    9 1  
    10    3   10 1  
    11    4   11 1  
    12    4   12 1  
    13    5   13 1  
    14    5   14 1  
    15    6   15 1  
    16    6   16 1  
# Name:          frag4-294-5932/48856 -- energy: -0.908794
# Creation time: Sat Jun  5 12:52:47 2010


@<TRIPOS>MOLECULE
frag4-294-5932/48856 -- energy: -0.908794
   16    16     1     1     1
SMALL
USER_CHARGES


@<TRIPOS>ATOM
      1 C10         2.0736   -0.1449   -1.1966 C.3        1 <1>        0.000
      2 O1          2.6731    0.0492    0.0417 O.3        1 <1>        0.000
      3 C11         3.3039    1.2299    0.4322 C.3        1 <1>        0.000
      4 C12         2.9865    2.3735   -0.5051 C.3        1 <1>        0.000
      5 C13         3.1189    2.0215   -1.9683 C.3        1 <1>        0.000
      6 C14         2.8829    0.5577   -2.2759 C.3        1 <1>        0.000
      7 H           1.0645    0.2666   -1.1772 H.spc      1 <1>        0.000
      8 H           2.0325   -1.2122   -1.4140 H.spc      1 <1>        0.000
      9 H           4.3811    1.0638    0.4172 H.spc      1 <1>        0.000
     10 H           2.9486    1.4947    1.4281 H.spc      1 <1>        0.000
     11 H           3.7010    3.1701   -0.2977 H.spc      1 <1>        0.000
     12 H           1.9478    2.6551   -0.3324 H.spc      1 <1>        0.000
     13 H           4.1423    2.2523   -2.2642 H.spc      1 <1>        0.000
     14 H           2.3609    2.5904   -2.5067 H.spc      1 <1>        0.000
     15 H           2.3214    0.4976   -3.2082 H.spc      1 <1>        0.000
     16 H           3.8545    0.0676   -2.3385 H.spc      1 <1>        0.000
@<TRIPOS>BOND
     1    1    2 1  
     2    1    6 1  
     3    2    3 1  
     4    3    4 1  
     5    4    5 1  
     6    5    6 1  
     7    1    7 1  
     8    1    8 1  
     9    3    9 1  
    10    3   10 1  
    11    4   11 1  
    12    4   12 1  
    13    5   13 1  
    14    5   14 1  
    15    6   15 1  
    16    6   16 1  
