#      Rotatable Fragment
#      Build by yxyuan
#
# Name:          frag4-339-147/48856
# Creation time: Sat Jun  5 12:52:57 2010


@<TRIPOS>MOLECULE
frag4-339-147/48856
   10    10     1     1     1
SMALL
USER_CHARGES


@<TRIPOS>ATOM
      1 C1         -1.1738   -0.7118    0.0872 C.ar       1 <1>        0.000
      2 C2          0.1159   -1.0820   -0.0836 C.ar       1 <1>        0.000
      3 N1          1.2420   -0.2425   -0.1477 N.ar       1 <1>        0.000
      4 C3          1.0596    0.9905    0.0325 C.ar       1 <1>        0.000
      5 N2         -0.1562    1.5118    0.2457 N.ar       1 <1>        0.000
      6 C4         -1.2135    0.7742    0.1497 C.ar       1 <1>        0.000
      7 H          -2.0301   -1.3817    0.1651 H.spc      1 <1>        0.000
      8 H           0.3033   -2.1512   -0.1827 H.spc      1 <1>        0.000
      9 H           1.9216    1.6574    0.0144 H.spc      1 <1>        0.000
     10 H          -2.1851    1.2668    0.1126 H.spc      1 <1>        0.000
@<TRIPOS>BOND
     1    1    2 ar 
     2    1    6 ar 
     3    2    3 ar 
     4    3    4 ar 
     5    4    5 ar 
     6    5    6 ar 
     7    1    7 1  
     8    2    8 1  
     9    4    9 1  
    10    6   10 1  
# Name:          frag4-339-147/48856 -- energy: 0.373487
# Creation time: Sat Jun  5 12:52:57 2010


@<TRIPOS>MOLECULE
frag4-339-147/48856 -- energy: 0.373487
   10    10     1     1     1
SMALL
USER_CHARGES


@<TRIPOS>ATOM
      1 C1         -1.1738   -0.7118    0.0872 C.ar       1 <1>        0.000
      2 C2          0.1159   -1.0820   -0.0836 C.ar       1 <1>        0.000
      3 N1          1.2420   -0.2425   -0.1477 N.ar       1 <1>        0.000
      4 C3          1.0596    0.9905    0.0325 C.ar       1 <1>        0.000
      5 N2         -0.1562    1.5118    0.2457 N.ar       1 <1>        0.000
      6 C4         -1.2135    0.7742    0.1497 C.ar       1 <1>        0.000
      7 H          -2.0301   -1.3817    0.1651 H.spc      1 <1>        0.000
      8 H           0.3033   -2.1512   -0.1827 H.spc      1 <1>        0.000
      9 H           1.9216    1.6574    0.0144 H.spc      1 <1>        0.000
     10 H          -2.1851    1.2668    0.1126 H.spc      1 <1>        0.000
@<TRIPOS>BOND
     1    1    2 ar 
     2    1    6 ar 
     3    2    3 ar 
     4    3    4 ar 
     5    4    5 ar 
     6    5    6 ar 
     7    1    7 1  
     8    2    8 1  
     9    4    9 1  
    10    6   10 1  
