#      Rotatable Fragment
#      Build by yxyuan
#
# Name:          frag4-405-57/48856
# Creation time: Sat Jun  5 12:51:56 2010


@<TRIPOS>MOLECULE
frag4-405-57/48856
   17    18     1     1     1
SMALL
USER_CHARGES


@<TRIPOS>ATOM
      1 O1         -1.2229    2.0636    1.1622 O.3        1 <1>        0.000
      2 C1         -1.3977    1.1191    0.0705 C.3        1 <1>        0.000
      3 C2         -0.0179    0.5006   -0.1353 C.ar       1 <1>        0.000
      4 C3          0.8637    1.0543    0.7738 C.ar       1 <1>        0.000
      5 C4          2.2068    0.6834    0.8289 C.ar       1 <1>        0.000
      6 C5          2.6444   -0.2846   -0.0834 C.ar       1 <1>        0.000
      7 C6          1.7564   -0.8511   -1.0099 C.ar       1 <1>        0.000
      8 C7          0.4106   -0.4645   -1.0474 C.ar       1 <1>        0.000
      9 C8          0.0543    2.0374    1.5722 C.3        1 <1>        0.000
     10 H          -1.7624    1.6070   -0.8334 H.spc      1 <1>        0.000
     11 H          -2.1496    0.3650    0.3031 H.spc      1 <1>        0.000
     12 H           2.8887    1.1291    1.5531 H.spc      1 <1>        0.000
     13 H           3.6872   -0.6016   -0.0735 H.spc      1 <1>        0.000
     14 H           2.1189   -1.6030   -1.7108 H.spc      1 <1>        0.000
     15 H          -0.2805   -0.9039   -1.7667 H.spc      1 <1>        0.000
     16 H           0.0766    1.7359    2.6194 H.spc      1 <1>        0.000
     17 H           0.4827    3.0305    1.4371 H.spc      1 <1>        0.000
@<TRIPOS>BOND
     1    6    7 ar 
     2    7    8 ar 
     3    1    2 1  
     4    1    9 1  
     5    2    3 1  
     6    3    4 ar 
     7    3    8 ar 
     8    4    5 ar 
     9    4    9 1  
    10    5    6 ar 
    11    2   10 1  
    12    2   11 1  
    13    5   12 1  
    14    6   13 1  
    15    7   14 1  
    16    8   15 1  
    17    9   16 1  
    18    9   17 1  
# Name:          frag4-405-57/48856 -- energy: -0.745594
# Creation time: Sat Jun  5 12:51:56 2010


@<TRIPOS>MOLECULE
frag4-405-57/48856 -- energy: -0.745594
   17    18     1     1     1
SMALL
USER_CHARGES


@<TRIPOS>ATOM
      1 O1         -1.2229    2.0636    1.1622 O.3        1 <1>        0.000
      2 C1         -1.3977    1.1191    0.0705 C.3        1 <1>        0.000
      3 C2         -0.0179    0.5006   -0.1353 C.ar       1 <1>        0.000
      4 C3          0.8637    1.0543    0.7738 C.ar       1 <1>        0.000
      5 C4          2.2068    0.6834    0.8289 C.ar       1 <1>        0.000
      6 C5          2.6444   -0.2846   -0.0834 C.ar       1 <1>        0.000
      7 C6          1.7564   -0.8511   -1.0099 C.ar       1 <1>        0.000
      8 C7          0.4106   -0.4645   -1.0474 C.ar       1 <1>        0.000
      9 C8          0.0543    2.0374    1.5722 C.3        1 <1>        0.000
     10 H          -1.7624    1.6070   -0.8334 H.spc      1 <1>        0.000
     11 H          -2.1496    0.3650    0.3031 H.spc      1 <1>        0.000
     12 H           2.8887    1.1291    1.5531 H.spc      1 <1>        0.000
     13 H           3.6872   -0.6016   -0.0735 H.spc      1 <1>        0.000
     14 H           2.1189   -1.6030   -1.7108 H.spc      1 <1>        0.000
     15 H          -0.2805   -0.9039   -1.7667 H.spc      1 <1>        0.000
     16 H           0.0766    1.7359    2.6194 H.spc      1 <1>        0.000
     17 H           0.4827    3.0305    1.4371 H.spc      1 <1>        0.000
@<TRIPOS>BOND
     1    6    7 ar 
     2    7    8 ar 
     3    1    2 1  
     4    1    9 1  
     5    2    3 1  
     6    3    4 ar 
     7    3    8 ar 
     8    4    5 ar 
     9    4    9 1  
    10    5    6 ar 
    11    2   10 1  
    12    2   11 1  
    13    5   12 1  
    14    6   13 1  
    15    7   14 1  
    16    8   15 1  
    17    9   16 1  
    18    9   17 1  
