#      Rotatable Fragment
#      Build by yxyuan
#
# Name:          frag5-518-130/41815
# Creation time: Sat Jun  5 12:52:51 2010


@<TRIPOS>MOLECULE
frag5-518-130/41815
   14    14     1     1     1
SMALL
USER_CHARGES


@<TRIPOS>ATOM
      1 C11         2.9052    2.4733   -1.4453 C.3        1 <1>        0.000
      2 C12         4.0425    3.4989   -1.3301 C.3        1 <1>        0.000
      3 C13         3.5197    4.7176   -2.1060 C.3        1 <1>        0.000
      4 C14         2.6916    4.0506   -3.1689 C.2        1 <1>        0.000
      5 C15         2.4495    2.5899   -2.9080 C.3        1 <1>        0.000
      6 O4          2.2577    4.6382   -4.1485 O.2        1 <1>        0.000
      7 H           2.0960    2.6717   -0.7425 H.spc      1 <1>        0.000
      8 H           3.2305    1.4642   -1.1922 H.spc      1 <1>        0.000
      9 H           4.9823    3.1225   -1.7341 H.spc      1 <1>        0.000
     10 H           4.2808    3.7386   -0.2938 H.spc      1 <1>        0.000
     11 H           4.3076    5.3594   -2.5002 H.spc      1 <1>        0.000
     12 H           2.9613    5.4239   -1.4917 H.spc      1 <1>        0.000
     13 H           1.4187    2.2772   -3.0748 H.spc      1 <1>        0.000
     14 H           2.9815    1.9263   -3.5897 H.spc      1 <1>        0.000
@<TRIPOS>BOND
     1    1    2 1  
     2    1    5 1  
     3    2    3 1  
     4    3    4 1  
     5    4    5 1  
     6    4    6 2  
     7    1    7 1  
     8    1    8 1  
     9    2    9 1  
    10    2   10 1  
    11    3   11 1  
    12    3   12 1  
    13    5   13 1  
    14    5   14 1  
# Name:          frag5-518-130/41815 -- energy: -0.970104
# Creation time: Sat Jun  5 12:52:51 2010


@<TRIPOS>MOLECULE
frag5-518-130/41815 -- energy: -0.970104
   14    14     1     1     1
SMALL
USER_CHARGES


@<TRIPOS>ATOM
      1 C11         2.9052    2.4733   -1.4453 C.3        1 <1>        0.000
      2 C12         4.0425    3.4989   -1.3301 C.3        1 <1>        0.000
      3 C13         3.5197    4.7176   -2.1060 C.3        1 <1>        0.000
      4 C14         2.6916    4.0506   -3.1689 C.2        1 <1>        0.000
      5 C15         2.4495    2.5899   -2.9080 C.3        1 <1>        0.000
      6 O4          2.2577    4.6382   -4.1485 O.2        1 <1>        0.000
      7 H           2.0960    2.6717   -0.7425 H.spc      1 <1>        0.000
      8 H           3.2305    1.4642   -1.1922 H.spc      1 <1>        0.000
      9 H           4.9823    3.1225   -1.7341 H.spc      1 <1>        0.000
     10 H           4.2808    3.7386   -0.2938 H.spc      1 <1>        0.000
     11 H           4.3076    5.3594   -2.5002 H.spc      1 <1>        0.000
     12 H           2.9613    5.4239   -1.4917 H.spc      1 <1>        0.000
     13 H           1.4187    2.2772   -3.0748 H.spc      1 <1>        0.000
     14 H           2.9815    1.9263   -3.5897 H.spc      1 <1>        0.000
@<TRIPOS>BOND
     1    1    2 1  
     2    1    5 1  
     3    2    3 1  
     4    3    4 1  
     5    4    5 1  
     6    4    6 2  
     7    1    7 1  
     8    1    8 1  
     9    2    9 1  
    10    2   10 1  
    11    3   11 1  
    12    3   12 1  
    13    5   13 1  
    14    5   14 1  
