#      Rotatable Fragment
#      Build by yxyuan
#
# Name:          frag3-153-15/31924
# Creation time: Sat Jun  5 12:52:05 2010


@<TRIPOS>MOLECULE
frag3-153-15/31924
   12    11     1     1     1
SMALL
USER_CHARGES


@<TRIPOS>ATOM
      1 O2          2.9245    0.4064    0.2419 O.3        1 <1>        0.000
      2 C10         1.8416   -0.1710   -0.2704 C.2        1 <1>        0.000
      3 O3          1.9160   -1.0329   -1.1240 O.2        1 <1>        0.000
      4 C11         0.5883    0.3387    0.2576 C.2        1 <1>        0.000
      5 C12        -0.5503   -0.1786   -0.2315 C.2        1 <1>        0.000
      6 C13        -1.8546    0.3059    0.2124 C.2        1 <1>        0.000
      7 O4         -2.0441    0.9277    1.2458 O.2        1 <1>        0.000
      8 O5         -2.8178    0.0182   -0.6783 O.3        1 <1>        0.000
      9 H           2.6597    1.0565    0.8967 H.spc      1 <1>        0.000
     10 H           0.5725    1.1138    1.0238 H.spc      1 <1>        0.000
     11 H          -0.5001   -0.9752   -0.9738 H.spc      1 <1>        0.000
     12 H          -2.4390   -0.4756   -1.4093 H.spc      1 <1>        0.000
@<TRIPOS>BOND
     1    1    2 1  
     2    2    3 2  
     3    2    4 1  
     4    4    5 2  
     5    5    6 1  
     6    6    8 1  
     7    6    7 2  
     8    1    9 1  
     9    4   10 1  
    10    5   11 1  
    11    8   12 1  
# Name:          frag3-153-15/31924
# Creation time: Sat Jun  5 12:52:05 2010


@<TRIPOS>MOLECULE
frag3-153-15/31924
   12    11     1     1     1
SMALL
USER_CHARGES


@<TRIPOS>ATOM
      1 O2          2.7647    0.7504   -0.3750 O.3        1 <1>        0.000
      2 C10         1.8059   -0.1722   -0.3452 C.2        1 <1>        0.000
      3 O3          2.0428   -1.3643   -0.4423 O.2        1 <1>        0.000
      4 C11         0.4881    0.3811   -0.1482 C.2        1 <1>        0.000
      5 C12        -0.5579   -0.4186    0.1168 C.2        1 <1>        0.000
      6 C13        -1.8345    0.2687    0.2925 C.2        1 <1>        0.000
      7 O4         -2.4659    0.2012    1.3366 O.2        1 <1>        0.000
      8 O5         -2.2396    0.9682   -0.7817 O.3        1 <1>        0.000
      9 H           2.3719    1.6216   -0.2839 H.spc      1 <1>        0.000
     10 H           0.3399    1.4589   -0.2151 H.spc      1 <1>        0.000
     11 H          -0.4611   -1.5015    0.1950 H.spc      1 <1>        0.000
     12 H          -1.5905    0.8793   -1.4834 H.spc      1 <1>        0.000
@<TRIPOS>BOND
     1    1    2 1  
     2    2    3 2  
     3    2    4 1  
     4    4    5 2  
     5    5    6 1  
     6    6    8 1  
     7    6    7 2  
     8    1    9 1  
     9    4   10 1  
    10    5   11 1  
    11    8   12 1  
# Name:          frag3-153-15/31924
# Creation time: Sat Jun  5 12:52:05 2010


@<TRIPOS>MOLECULE
frag3-153-15/31924
   12    11     1     1     1
SMALL
USER_CHARGES


@<TRIPOS>ATOM
      1 O2          2.1995   -0.3726    0.7322 O.3        1 <1>        0.000
      2 C10         1.7802   -0.2676   -0.5255 C.2        1 <1>        0.000
      3 O3          2.5499   -0.2762   -1.4636 O.2        1 <1>        0.000
      4 C11         0.3311   -0.1577   -0.6414 C.2        1 <1>        0.000
      5 C12        -0.3365    0.3048    0.4300 C.2        1 <1>        0.000
      6 C13        -1.7878    0.4997    0.3926 C.2        1 <1>        0.000
      7 O4         -2.3600    1.4722    0.8597 O.2        1 <1>        0.000
      8 O5         -2.3728   -0.5880   -0.1304 O.3        1 <1>        0.000
      9 H           1.4438   -0.3455    1.3236 H.spc      1 <1>        0.000
     10 H          -0.1888   -0.4385   -1.5574 H.spc      1 <1>        0.000
     11 H           0.2118    0.5389    1.3425 H.spc      1 <1>        0.000
     12 H          -1.6971   -1.2027   -0.4255 H.spc      1 <1>        0.000
@<TRIPOS>BOND
     1    1    2 1  
     2    2    3 2  
     3    2    4 1  
     4    4    5 2  
     5    5    6 1  
     6    6    8 1  
     7    6    7 2  
     8    1    9 1  
     9    4   10 1  
    10    5   11 1  
    11    8   12 1  
# Name:          frag3-153-15/31924
# Creation time: Sat Jun  5 12:52:05 2010


@<TRIPOS>MOLECULE
frag3-153-15/31924
   12    11     1     1     1
SMALL
USER_CHARGES


@<TRIPOS>ATOM
      1 O2          2.4250    0.5900    0.2635 O.3        1 <1>        0.000
      2 C10         1.7779   -0.2823   -0.5051 C.2        1 <1>        0.000
      3 O3          2.3034   -1.2548   -1.0024 O.2        1 <1>        0.000
      4 C11         0.3580    0.0195   -0.6378 C.2        1 <1>        0.000
      5 C12        -0.3584    0.1040    0.4875 C.2        1 <1>        0.000
      6 C13        -1.7770    0.4093    0.4323 C.2        1 <1>        0.000
      7 O4         -2.4385    0.7009    1.4063 O.2        1 <1>        0.000
      8 O5         -2.2868    0.3279   -0.7906 O.3        1 <1>        0.000
      9 H           1.8176    1.2773    0.5469 H.spc      1 <1>        0.000
     10 H          -0.1009    0.1701   -1.6149 H.spc      1 <1>        0.000
     11 H           0.1246   -0.0570    1.4513 H.spc      1 <1>        0.000
     12 H          -1.5942    0.0848   -1.4093 H.spc      1 <1>        0.000
@<TRIPOS>BOND
     1    1    2 1  
     2    2    3 2  
     3    2    4 1  
     4    4    5 2  
     5    5    6 1  
     6    6    8 1  
     7    6    7 2  
     8    1    9 1  
     9    4   10 1  
    10    5   11 1  
    11    8   12 1  
# Name:          frag3-153-15/31924
# Creation time: Sat Jun  5 12:52:05 2010


@<TRIPOS>MOLECULE
frag3-153-15/31924
   12    11     1     1     1
SMALL
USER_CHARGES


@<TRIPOS>ATOM
      1 O2         -2.7974   -0.5813    0.3396 O.3        1 <1>        0.000
      2 C10        -1.8225    0.3124    0.2024 C.2        1 <1>        0.000
      3 O3         -2.0011    1.5048    0.3748 O.2        1 <1>        0.000
      4 C11        -0.5278   -0.2748   -0.1194 C.2        1 <1>        0.000
      5 C12         0.5577    0.5092   -0.0742 C.2        1 <1>        0.000
      6 C13         1.8572   -0.0877   -0.3386 C.2        1 <1>        0.000
      7 O4          2.5970    0.3347   -1.2076 O.2        1 <1>        0.000
      8 O5          2.1404   -1.1027    0.4765 O.3        1 <1>        0.000
      9 H          -2.4525   -1.4593    0.1614 H.spc      1 <1>        0.000
     10 H          -0.4447   -1.3273   -0.3905 H.spc      1 <1>        0.000
     11 H           0.4688    1.5710    0.1557 H.spc      1 <1>        0.000
     12 H           1.4027   -1.2476    1.0735 H.spc      1 <1>        0.000
@<TRIPOS>BOND
     1    1    2 1  
     2    2    3 2  
     3    2    4 1  
     4    4    5 2  
     5    5    6 1  
     6    6    8 1  
     7    6    7 2  
     8    1    9 1  
     9    4   10 1  
    10    5   11 1  
    11    8   12 1  
# Name:          frag3-153-15/31924
# Creation time: Sat Jun  5 12:52:05 2010


@<TRIPOS>MOLECULE
frag3-153-15/31924
   12    11     1     1     1
SMALL
USER_CHARGES


@<TRIPOS>ATOM
      1 O2          2.7482   -0.3062    0.6636 O.3        1 <1>        0.000
      2 C10         1.8416   -0.1331   -0.3001 C.2        1 <1>        0.000
      3 O3          2.0145   -0.4021   -1.4715 O.2        1 <1>        0.000
      4 C11         0.5790    0.3646    0.2256 C.2        1 <1>        0.000
      5 C12        -0.5467   -0.0642   -0.3646 C.2        1 <1>        0.000
      6 C13        -1.8396    0.3592    0.1592 C.2        1 <1>        0.000
      7 O4         -2.0420    1.3943    0.7662 O.2        1 <1>        0.000
      8 O5         -2.7515   -0.5980   -0.0248 O.3        1 <1>        0.000
      9 H           2.3796   -0.0214    1.5030 H.spc      1 <1>        0.000
     10 H           0.5493    1.0584    1.0658 H.spc      1 <1>        0.000
     11 H          -0.4951   -0.7248   -1.2301 H.spc      1 <1>        0.000
     12 H          -2.3631   -1.3155   -0.5307 H.spc      1 <1>        0.000
@<TRIPOS>BOND
     1    1    2 1  
     2    2    3 2  
     3    2    4 1  
     4    4    5 2  
     5    5    6 1  
     6    6    8 1  
     7    6    7 2  
     8    1    9 1  
     9    4   10 1  
    10    5   11 1  
    11    8   12 1  
# Name:          frag3-153-15/31924 -- energy: 0.220280
# Creation time: Sat Jun  5 12:52:05 2010


@<TRIPOS>MOLECULE
frag3-153-15/31924 -- energy: 0.220280
   12    11     1     1     1
SMALL
USER_CHARGES


@<TRIPOS>ATOM
      1 O2          2.9245    0.4064    0.2419 O.3        1 <1>        0.000
      2 C10         1.8416   -0.1710   -0.2704 C.2        1 <1>        0.000
      3 O3          1.9160   -1.0329   -1.1240 O.2        1 <1>        0.000
      4 C11         0.5883    0.3387    0.2576 C.2        1 <1>        0.000
      5 C12        -0.5503   -0.1786   -0.2315 C.2        1 <1>        0.000
      6 C13        -1.8546    0.3059    0.2124 C.2        1 <1>        0.000
      7 O4         -2.0441    0.9277    1.2458 O.2        1 <1>        0.000
      8 O5         -2.8178    0.0182   -0.6783 O.3        1 <1>        0.000
      9 H           2.6597    1.0565    0.8967 H.spc      1 <1>        0.000
     10 H           0.5725    1.1138    1.0238 H.spc      1 <1>        0.000
     11 H          -0.5001   -0.9752   -0.9738 H.spc      1 <1>        0.000
     12 H          -2.4390   -0.4756   -1.4093 H.spc      1 <1>        0.000
@<TRIPOS>BOND
     1    1    2 1  
     2    2    3 2  
     3    2    4 1  
     4    4    5 2  
     5    5    6 1  
     6    6    8 1  
     7    6    7 2  
     8    1    9 1  
     9    4   10 1  
    10    5   11 1  
    11    8   12 1  
# Name:          frag3-153-15/31924 -- energy: -0.012386
# Creation time: Sat Jun  5 12:52:05 2010


@<TRIPOS>MOLECULE
frag3-153-15/31924 -- energy: -0.012386
   12    11     1     1     1
SMALL
USER_CHARGES


@<TRIPOS>ATOM
      1 O2          2.7647    0.7504   -0.3750 O.3        1 <1>        0.000
      2 C10         1.8059   -0.1722   -0.3452 C.2        1 <1>        0.000
      3 O3          2.0428   -1.3643   -0.4423 O.2        1 <1>        0.000
      4 C11         0.4881    0.3811   -0.1482 C.2        1 <1>        0.000
      5 C12        -0.5579   -0.4186    0.1168 C.2        1 <1>        0.000
      6 C13        -1.8345    0.2687    0.2925 C.2        1 <1>        0.000
      7 O4         -2.4659    0.2012    1.3366 O.2        1 <1>        0.000
      8 O5         -2.2396    0.9682   -0.7817 O.3        1 <1>        0.000
      9 H           2.3719    1.6216   -0.2839 H.spc      1 <1>        0.000
     10 H           0.3399    1.4589   -0.2151 H.spc      1 <1>        0.000
     11 H          -0.4611   -1.5015    0.1950 H.spc      1 <1>        0.000
     12 H          -1.5905    0.8793   -1.4834 H.spc      1 <1>        0.000
@<TRIPOS>BOND
     1    1    2 1  
     2    2    3 2  
     3    2    4 1  
     4    4    5 2  
     5    5    6 1  
     6    6    8 1  
     7    6    7 2  
     8    1    9 1  
     9    4   10 1  
    10    5   11 1  
    11    8   12 1  
# Name:          frag3-153-15/31924 -- energy: 0.100421
# Creation time: Sat Jun  5 12:52:05 2010


@<TRIPOS>MOLECULE
frag3-153-15/31924 -- energy: 0.100421
   12    11     1     1     1
SMALL
USER_CHARGES


@<TRIPOS>ATOM
      1 O2         -2.7974   -0.5813    0.3396 O.3        1 <1>        0.000
      2 C10        -1.8225    0.3124    0.2024 C.2        1 <1>        0.000
      3 O3         -2.0011    1.5048    0.3748 O.2        1 <1>        0.000
      4 C11        -0.5278   -0.2748   -0.1194 C.2        1 <1>        0.000
      5 C12         0.5577    0.5092   -0.0742 C.2        1 <1>        0.000
      6 C13         1.8572   -0.0877   -0.3386 C.2        1 <1>        0.000
      7 O4          2.5970    0.3347   -1.2076 O.2        1 <1>        0.000
      8 O5          2.1404   -1.1027    0.4765 O.3        1 <1>        0.000
      9 H          -2.4525   -1.4593    0.1614 H.spc      1 <1>        0.000
     10 H          -0.4447   -1.3273   -0.3905 H.spc      1 <1>        0.000
     11 H           0.4688    1.5710    0.1557 H.spc      1 <1>        0.000
     12 H           1.4027   -1.2476    1.0735 H.spc      1 <1>        0.000
@<TRIPOS>BOND
     1    1    2 1  
     2    2    3 2  
     3    2    4 1  
     4    4    5 2  
     5    5    6 1  
     6    6    8 1  
     7    6    7 2  
     8    1    9 1  
     9    4   10 1  
    10    5   11 1  
    11    8   12 1  
# Name:          frag3-153-15/31924 -- energy: 0.252834
# Creation time: Sat Jun  5 12:52:05 2010


@<TRIPOS>MOLECULE
frag3-153-15/31924 -- energy: 0.252834
   12    11     1     1     1
SMALL
USER_CHARGES


@<TRIPOS>ATOM
      1 O2          2.7482   -0.3062    0.6636 O.3        1 <1>        0.000
      2 C10         1.8416   -0.1331   -0.3001 C.2        1 <1>        0.000
      3 O3          2.0145   -0.4021   -1.4715 O.2        1 <1>        0.000
      4 C11         0.5790    0.3646    0.2256 C.2        1 <1>        0.000
      5 C12        -0.5467   -0.0642   -0.3646 C.2        1 <1>        0.000
      6 C13        -1.8396    0.3592    0.1592 C.2        1 <1>        0.000
      7 O4         -2.0420    1.3943    0.7662 O.2        1 <1>        0.000
      8 O5         -2.7515   -0.5980   -0.0248 O.3        1 <1>        0.000
      9 H           2.3796   -0.0214    1.5030 H.spc      1 <1>        0.000
     10 H           0.5493    1.0584    1.0658 H.spc      1 <1>        0.000
     11 H          -0.4951   -0.7248   -1.2301 H.spc      1 <1>        0.000
     12 H          -2.3631   -1.3155   -0.5307 H.spc      1 <1>        0.000
@<TRIPOS>BOND
     1    1    2 1  
     2    2    3 2  
     3    2    4 1  
     4    4    5 2  
     5    5    6 1  
     6    6    8 1  
     7    6    7 2  
     8    1    9 1  
     9    4   10 1  
    10    5   11 1  
    11    8   12 1  
