#      Rotatable Fragment
#      Build by yxyuan
#
# Name:          frag3-283-3/96164
# Creation time: Sat Jun  5 12:53:28 2010


@<TRIPOS>MOLECULE
frag3-283-3/96164
    6     5     1     1     1
SMALL
USER_CHARGES


@<TRIPOS>ATOM
      1 O1          1.0332    0.6525   -0.0940 O.3        1 <1>        0.000
      2 C10         0.0189   -0.1909    0.0363 C.2        1 <1>        0.000
      3 O4          0.5100   -1.3160    0.5364 O.3        1 <1>        0.000
      4 O5         -1.1441    0.0508   -0.2326 O.2        1 <1>        0.000
      5 H           1.8444    0.2212    0.1845 H.spc      1 <1>        0.000
      6 H           1.4594   -1.2277    0.6480 H.spc      1 <1>        0.000
@<TRIPOS>BOND
     1    1    2 1  
     2    2    3 1  
     3    2    4 2  
     4    1    5 1  
     5    3    6 1  
