#      Rotatable Fragment
#      Build by yxyuan
#
# Name:          frag3-198-5/31924
# Creation time: Sat Jun  5 12:52:19 2010


@<TRIPOS>MOLECULE
frag3-198-5/31924
    9     8     1     1     1
SMALL
USER_CHARGES


@<TRIPOS>ATOM
      1 N1          0.5052    0.3577   -0.0497 N.am       1 <1>        0.000
      2 N2         -0.5998   -0.2953    0.3300 N.2        1 <1>        0.000
      3 C1         -1.8344    0.0133    0.2478 C.2        1 <1>        0.000
      4 C32         1.7640   -0.2386    0.0072 C.2        1 <1>        0.000
      5 O9          2.7963    0.3778   -0.2123 O.2        1 <1>        0.000
      6 H           0.4242    1.3161   -0.3893 H.spc      1 <1>        0.000
      7 H          -2.1303    0.9625   -0.1989 H.spc      1 <1>        0.000
      8 H          -2.5937   -0.6721    0.6242 H.spc      1 <1>        0.000
      9 H           1.8303   -1.2974    0.2576 H.spc      1 <1>        0.000
@<TRIPOS>BOND
     1    1    2 1  
     2    1    4 am 
     3    2    3 2  
     4    4    5 2  
     5    1    6 1  
     6    3    7 1  
     7    3    8 1  
     8    4    9 1  
# Name:          frag3-198-5/31924
# Creation time: Sat Jun  5 12:52:19 2010


@<TRIPOS>MOLECULE
frag3-198-5/31924
    9     8     1     1     1
SMALL
USER_CHARGES


@<TRIPOS>ATOM
      1 N1          0.6001   -0.9228    0.1790 N.am       1 <1>        0.000
      2 N2         -0.6365   -0.4280    0.1223 N.2        1 <1>        0.000
      3 C1         -0.9710    0.7943    0.1772 C.2        1 <1>        0.000
      4 C32         1.7498   -0.1888    0.1221 C.2        1 <1>        0.000
      5 O9          1.8887    0.9603   -0.2775 O.2        1 <1>        0.000
      6 H           0.6952   -1.9340    0.2727 H.spc      1 <1>        0.000
      7 H          -0.2067    1.5643    0.2817 H.spc      1 <1>        0.000
      8 H          -2.0228    1.0746    0.1199 H.spc      1 <1>        0.000
      9 H           2.6534   -0.6858    0.4751 H.spc      1 <1>        0.000
@<TRIPOS>BOND
     1    1    2 1  
     2    1    4 am 
     3    2    3 2  
     4    4    5 2  
     5    1    6 1  
     6    3    7 1  
     7    3    8 1  
     8    4    9 1  
# Name:          frag3-198-5/31924
# Creation time: Sat Jun  5 12:52:19 2010


@<TRIPOS>MOLECULE
frag3-198-5/31924
    9     8     1     1     1
SMALL
USER_CHARGES


@<TRIPOS>ATOM
      1 N1          0.4971    0.6727    0.0451 N.am       1 <1>        0.000
      2 N2         -0.7721    0.4227    0.2844 N.2        1 <1>        0.000
      3 C1         -1.3552   -0.6979    0.2532 C.2        1 <1>        0.000
      4 C32         1.5282   -0.1931   -0.1492 C.2        1 <1>        0.000
      5 O9          2.7333    0.0106   -0.1105 O.2        1 <1>        0.000
      6 H           0.7444    1.6612   -0.0016 H.spc      1 <1>        0.000
      7 H          -0.7929   -1.5982    0.0053 H.spc      1 <1>        0.000
      8 H          -2.4205   -0.7643    0.4742 H.spc      1 <1>        0.000
      9 H           1.2373   -1.2196   -0.3722 H.spc      1 <1>        0.000
@<TRIPOS>BOND
     1    1    2 1  
     2    1    4 am 
     3    2    3 2  
     4    4    5 2  
     5    1    6 1  
     6    3    7 1  
     7    3    8 1  
     8    4    9 1  
# Name:          frag3-198-5/31924
# Creation time: Sat Jun  5 12:52:19 2010


@<TRIPOS>MOLECULE
frag3-198-5/31924
    9     8     1     1     1
SMALL
USER_CHARGES


@<TRIPOS>ATOM
      1 N1          0.4382   -0.1233   -0.6307 N.am       1 <1>        0.000
      2 N2         -0.3796    0.1359    0.3988 N.2        1 <1>        0.000
      3 C1         -1.6297   -0.0352    0.5478 C.2        1 <1>        0.000
      4 C32         1.8186   -0.1243   -0.4831 C.2        1 <1>        0.000
      5 O9          2.3837    0.3620    0.4904 O.2        1 <1>        0.000
      6 H           0.0362   -0.3250   -1.5462 H.spc      1 <1>        0.000
      7 H          -2.2210   -0.4660   -0.2603 H.spc      1 <1>        0.000
      8 H          -2.1109    0.2488    1.4837 H.spc      1 <1>        0.000
      9 H           2.4264   -0.5770   -1.2665 H.spc      1 <1>        0.000
@<TRIPOS>BOND
     1    1    2 1  
     2    1    4 am 
     3    2    3 2  
     4    4    5 2  
     5    1    6 1  
     6    3    7 1  
     7    3    8 1  
     8    4    9 1  
# Name:          frag3-198-5/31924 -- energy: -0.341948
# Creation time: Sat Jun  5 12:52:19 2010


@<TRIPOS>MOLECULE
frag3-198-5/31924 -- energy: -0.341948
    9     8     1     1     1
SMALL
USER_CHARGES


@<TRIPOS>ATOM
      1 N1          0.5052    0.3577   -0.0497 N.am       1 <1>        0.000
      2 N2         -0.5998   -0.2953    0.3300 N.2        1 <1>        0.000
      3 C1         -1.8344    0.0133    0.2478 C.2        1 <1>        0.000
      4 C32         1.7640   -0.2386    0.0072 C.2        1 <1>        0.000
      5 O9          2.7963    0.3778   -0.2123 O.2        1 <1>        0.000
      6 H           0.4242    1.3161   -0.3893 H.spc      1 <1>        0.000
      7 H          -2.1303    0.9625   -0.1989 H.spc      1 <1>        0.000
      8 H          -2.5937   -0.6721    0.6242 H.spc      1 <1>        0.000
      9 H           1.8303   -1.2974    0.2576 H.spc      1 <1>        0.000
@<TRIPOS>BOND
     1    1    2 1  
     2    1    4 am 
     3    2    3 2  
     4    4    5 2  
     5    1    6 1  
     6    3    7 1  
     7    3    8 1  
     8    4    9 1  
# Name:          frag3-198-5/31924 -- energy: 0.030686
# Creation time: Sat Jun  5 12:52:19 2010


@<TRIPOS>MOLECULE
frag3-198-5/31924 -- energy: 0.030686
    9     8     1     1     1
SMALL
USER_CHARGES


@<TRIPOS>ATOM
      1 N1          0.6001   -0.9228    0.1790 N.am       1 <1>        0.000
      2 N2         -0.6365   -0.4280    0.1223 N.2        1 <1>        0.000
      3 C1         -0.9710    0.7943    0.1772 C.2        1 <1>        0.000
      4 C32         1.7498   -0.1888    0.1221 C.2        1 <1>        0.000
      5 O9          1.8887    0.9603   -0.2775 O.2        1 <1>        0.000
      6 H           0.6952   -1.9340    0.2727 H.spc      1 <1>        0.000
      7 H          -0.2067    1.5643    0.2817 H.spc      1 <1>        0.000
      8 H          -2.0228    1.0746    0.1199 H.spc      1 <1>        0.000
      9 H           2.6534   -0.6858    0.4751 H.spc      1 <1>        0.000
@<TRIPOS>BOND
     1    1    2 1  
     2    1    4 am 
     3    2    3 2  
     4    4    5 2  
     5    1    6 1  
     6    3    7 1  
     7    3    8 1  
     8    4    9 1  
# Name:          frag3-198-5/31924 -- energy: -0.315694
# Creation time: Sat Jun  5 12:52:19 2010


@<TRIPOS>MOLECULE
frag3-198-5/31924 -- energy: -0.315694
    9     8     1     1     1
SMALL
USER_CHARGES


@<TRIPOS>ATOM
      1 N1          0.4971    0.6727    0.0451 N.am       1 <1>        0.000
      2 N2         -0.7721    0.4227    0.2844 N.2        1 <1>        0.000
      3 C1         -1.3552   -0.6979    0.2532 C.2        1 <1>        0.000
      4 C32         1.5282   -0.1931   -0.1492 C.2        1 <1>        0.000
      5 O9          2.7333    0.0106   -0.1105 O.2        1 <1>        0.000
      6 H           0.7444    1.6612   -0.0016 H.spc      1 <1>        0.000
      7 H          -0.7929   -1.5982    0.0053 H.spc      1 <1>        0.000
      8 H          -2.4205   -0.7643    0.4742 H.spc      1 <1>        0.000
      9 H           1.2373   -1.2196   -0.3722 H.spc      1 <1>        0.000
@<TRIPOS>BOND
     1    1    2 1  
     2    1    4 am 
     3    2    3 2  
     4    4    5 2  
     5    1    6 1  
     6    3    7 1  
     7    3    8 1  
     8    4    9 1  
# Name:          frag3-198-5/31924 -- energy: -0.335901
# Creation time: Sat Jun  5 12:52:19 2010


@<TRIPOS>MOLECULE
frag3-198-5/31924 -- energy: -0.335901
    9     8     1     1     1
SMALL
USER_CHARGES


@<TRIPOS>ATOM
      1 N1          0.4382   -0.1233   -0.6307 N.am       1 <1>        0.000
      2 N2         -0.3796    0.1359    0.3988 N.2        1 <1>        0.000
      3 C1         -1.6297   -0.0352    0.5478 C.2        1 <1>        0.000
      4 C32         1.8186   -0.1243   -0.4831 C.2        1 <1>        0.000
      5 O9          2.3837    0.3620    0.4904 O.2        1 <1>        0.000
      6 H           0.0362   -0.3250   -1.5462 H.spc      1 <1>        0.000
      7 H          -2.2210   -0.4660   -0.2603 H.spc      1 <1>        0.000
      8 H          -2.1109    0.2488    1.4837 H.spc      1 <1>        0.000
      9 H           2.4264   -0.5770   -1.2665 H.spc      1 <1>        0.000
@<TRIPOS>BOND
     1    1    2 1  
     2    1    4 am 
     3    2    3 2  
     4    4    5 2  
     5    1    6 1  
     6    3    7 1  
     7    3    8 1  
     8    4    9 1  
