#      Rotatable Fragment
#      Build by yxyuan
#
# Name:          frag5-546-193/138278
# Creation time: Sat Jun  5 12:53:42 2010


@<TRIPOS>MOLECULE
frag5-546-193/138278
   25    26     1     1     1
SMALL
USER_CHARGES


@<TRIPOS>ATOM
      1 C7         -2.0315   -0.0561    0.0683 C.ar       1 <1>        0.000
      2 C9         -0.9950    0.3435    0.9011 C.ar       1 <1>        0.000
      3 C10        -1.8762   -1.1593   -0.7591 C.ar       1 <1>        0.000
      4 C12         0.2036   -0.3655    0.8911 C.ar       1 <1>        0.000
      5 C13        -0.6613   -1.8385   -0.7701 C.ar       1 <1>        0.000
      6 C15         0.4183   -1.4618    0.0455 C.ar       1 <1>        0.000
      7 C16         1.6685   -2.1599    0.0165 C.ar       1 <1>        0.000
      8 C17         2.6414   -1.9424   -0.9889 C.ar       1 <1>        0.000
      9 C18         1.9390   -3.1512    0.9951 C.ar       1 <1>        0.000
     10 C19         3.9026   -2.5648   -0.8478 C.ar       1 <1>        0.000
     11 C20         2.4273   -0.9442   -2.1226 C.2        1 <1>        0.000
     12 C21         3.1498   -3.8316    1.0591 C.ar       1 <1>        0.000
     13 C22         4.1451   -3.5168    0.1511 C.ar       1 <1>        0.000
     14 O2          1.3281   -1.1426   -2.8638 O.3        1 <1>        0.000
     15 O3          3.2719   -0.0941   -2.3148 O.2        1 <1>        0.000
     16 H          -2.9700    0.4983    0.0644 H.spc      1 <1>        0.000
     17 H          -1.1184    1.2050    1.5573 H.spc      1 <1>        0.000
     18 H          -2.6977   -1.4907   -1.3943 H.spc      1 <1>        0.000
     19 H           1.0028   -0.0567    1.5648 H.spc      1 <1>        0.000
     20 H          -0.5435   -2.6936   -1.4357 H.spc      1 <1>        0.000
     21 H           1.1663   -3.3889    1.7262 H.spc      1 <1>        0.000
     22 H           4.7067   -2.2974   -1.5334 H.spc      1 <1>        0.000
     23 H           3.3125   -4.6015    1.8133 H.spc      1 <1>        0.000
     24 H           5.1160   -4.0085    0.2128 H.spc      1 <1>        0.000
     25 H           0.8264   -1.8759   -2.5003 H.spc      1 <1>        0.000
@<TRIPOS>BOND
     1   11   15 2  
     2    6    7 1  
     3    4    6 ar 
     4    1    2 ar 
     5    1    3 ar 
     6    7    9 ar 
     7    8   10 ar 
     8    3    5 ar 
     9    2    4 ar 
    10    7    8 ar 
    11    8   11 1  
    12    9   12 ar 
    13   11   14 1  
    14   10   13 ar 
    15   12   13 ar 
    16    5    6 ar 
    17    1   16 1  
    18    2   17 1  
    19    3   18 1  
    20    4   19 1  
    21    5   20 1  
    22    9   21 1  
    23   10   22 1  
    24   12   23 1  
    25   13   24 1  
    26   14   25 1  
# Name:          frag5-546-193/138278
# Creation time: Sat Jun  5 12:53:42 2010


@<TRIPOS>MOLECULE
frag5-546-193/138278
   25    26     1     1     1
SMALL
USER_CHARGES


@<TRIPOS>ATOM
      1 C7         -2.0802   -0.1529   -0.0120 C.ar       1 <1>        0.000
      2 C9         -1.0449    0.3145    0.7871 C.ar       1 <1>        0.000
      3 C10        -1.9056   -1.2959   -0.7823 C.ar       1 <1>        0.000
      4 C12         0.1670   -0.3683    0.8053 C.ar       1 <1>        0.000
      5 C13        -0.6737   -1.9450   -0.7767 C.ar       1 <1>        0.000
      6 C15         0.3978   -1.5082    0.0196 C.ar       1 <1>        0.000
      7 C16         1.6713   -2.1636    0.0173 C.ar       1 <1>        0.000
      8 C17         2.6818   -1.8730   -0.9331 C.ar       1 <1>        0.000
      9 C18         1.9302   -3.1792    0.9717 C.ar       1 <1>        0.000
     10 C19         3.9363   -2.5090   -0.7959 C.ar       1 <1>        0.000
     11 C20         2.4663   -0.8967   -2.0879 C.2        1 <1>        0.000
     12 C21         3.1532   -3.8326    1.0579 C.ar       1 <1>        0.000
     13 C22         4.1704   -3.4738    0.1909 C.ar       1 <1>        0.000
     14 O2          1.6068    0.1058   -1.8729 O.3        1 <1>        0.000
     15 O3          3.0550   -1.1073   -3.1286 O.2        1 <1>        0.000
     16 H          -3.0318    0.3782   -0.0349 H.spc      1 <1>        0.000
     17 H          -1.1808    1.2090    1.3950 H.spc      1 <1>        0.000
     18 H          -2.7268   -1.6816   -1.3865 H.spc      1 <1>        0.000
     19 H           0.9654   -0.0053    1.4525 H.spc      1 <1>        0.000
     20 H          -0.5364   -2.8207   -1.4110 H.spc      1 <1>        0.000
     21 H           1.1378   -3.4588    1.6660 H.spc      1 <1>        0.000
     22 H           4.7438   -2.2409   -1.4772 H.spc      1 <1>        0.000
     23 H           3.3094   -4.6171    1.7983 H.spc      1 <1>        0.000
     24 H           5.1514   -3.9413    0.2762 H.spc      1 <1>        0.000
     25 H           1.2767    0.0553   -0.9729 H.spc      1 <1>        0.000
@<TRIPOS>BOND
     1   11   15 2  
     2    6    7 1  
     3    4    6 ar 
     4    1    2 ar 
     5    1    3 ar 
     6    7    9 ar 
     7    8   10 ar 
     8    3    5 ar 
     9    2    4 ar 
    10    7    8 ar 
    11    8   11 1  
    12    9   12 ar 
    13   11   14 1  
    14   10   13 ar 
    15   12   13 ar 
    16    5    6 ar 
    17    1   16 1  
    18    2   17 1  
    19    3   18 1  
    20    4   19 1  
    21    5   20 1  
    22    9   21 1  
    23   10   22 1  
    24   12   23 1  
    25   13   24 1  
    26   14   25 1  
# Name:          frag5-546-193/138278
# Creation time: Sat Jun  5 12:53:42 2010


@<TRIPOS>MOLECULE
frag5-546-193/138278
   25    26     1     1     1
SMALL
USER_CHARGES


@<TRIPOS>ATOM
      1 C7         -2.0544   -0.0115    0.1114 C.ar       1 <1>        0.000
      2 C9         -0.8499    0.6507    0.1804 C.ar       1 <1>        0.000
      3 C10        -2.0798   -1.3918    0.0467 C.ar       1 <1>        0.000
      4 C12         0.3084   -0.1004    0.3061 C.ar       1 <1>        0.000
      5 C13        -0.8746   -2.0943   -0.0092 C.ar       1 <1>        0.000
      6 C15         0.3831   -1.4729    0.0716 C.ar       1 <1>        0.000
      7 C16         1.6479   -2.1811   -0.0422 C.ar       1 <1>        0.000
      8 C17         2.6716   -1.8914   -0.9808 C.ar       1 <1>        0.000
      9 C18         1.8453   -3.3207    0.8046 C.ar       1 <1>        0.000
     10 C19         3.8964   -2.5832   -0.8335 C.ar       1 <1>        0.000
     11 C20         2.4980   -0.8342   -2.0456 C.2        1 <1>        0.000
     12 C21         3.0168   -4.0575    0.8614 C.ar       1 <1>        0.000
     13 C22         4.0610   -3.6580    0.0619 C.ar       1 <1>        0.000
     14 O2          3.4854   -0.8959   -2.9699 O.3        1 <1>        0.000
     15 O3          1.5764   -0.0428   -2.1025 O.2        1 <1>        0.000
     16 H          -2.9874    0.5521    0.1078 H.spc      1 <1>        0.000
     17 H          -0.8078    1.7390    0.1373 H.spc      1 <1>        0.000
     18 H          -3.0300   -1.9259    0.0394 H.spc      1 <1>        0.000
     19 H           1.2200    0.4154    0.6078 H.spc      1 <1>        0.000
     20 H          -0.9111   -3.1779   -0.1210 H.spc      1 <1>        0.000
     21 H           1.0192   -3.6276    1.4460 H.spc      1 <1>        0.000
     22 H           4.7483   -2.2717   -1.4380 H.spc      1 <1>        0.000
     23 H           3.1074   -4.9236    1.5170 H.spc      1 <1>        0.000
     24 H           5.0191   -4.1743    0.1209 H.spc      1 <1>        0.000
     25 H           4.1045   -1.5890   -2.7293 H.spc      1 <1>        0.000
@<TRIPOS>BOND
     1   11   15 2  
     2    6    7 1  
     3    4    6 ar 
     4    1    2 ar 
     5    1    3 ar 
     6    7    9 ar 
     7    8   10 ar 
     8    3    5 ar 
     9    2    4 ar 
    10    7    8 ar 
    11    8   11 1  
    12    9   12 ar 
    13   11   14 1  
    14   10   13 ar 
    15   12   13 ar 
    16    5    6 ar 
    17    1   16 1  
    18    2   17 1  
    19    3   18 1  
    20    4   19 1  
    21    5   20 1  
    22    9   21 1  
    23   10   22 1  
    24   12   23 1  
    25   13   24 1  
    26   14   25 1  
# Name:          frag5-546-193/138278
# Creation time: Sat Jun  5 12:53:42 2010


@<TRIPOS>MOLECULE
frag5-546-193/138278
   25    26     1     1     1
SMALL
USER_CHARGES


@<TRIPOS>ATOM
      1 C7         -2.0592   -0.1035    0.0690 C.ar       1 <1>        0.000
      2 C9         -1.8853   -1.2040   -0.7709 C.ar       1 <1>        0.000
      3 C10        -1.0098    0.3298    0.8808 C.ar       1 <1>        0.000
      4 C12        -0.6653   -1.8714   -0.7898 C.ar       1 <1>        0.000
      5 C13         0.2004   -0.3563    0.8704 C.ar       1 <1>        0.000
      6 C15         0.4031   -1.4710    0.0343 C.ar       1 <1>        0.000
      7 C16         1.6663   -2.1744    0.0210 C.ar       1 <1>        0.000
      8 C17         2.6603   -1.9299   -0.9614 C.ar       1 <1>        0.000
      9 C18         1.9340   -3.1403    1.0138 C.ar       1 <1>        0.000
     10 C19         3.9024   -2.5652   -0.8591 C.ar       1 <1>        0.000
     11 C20         2.3976   -0.9801   -2.1255 C.2        1 <1>        0.000
     12 C21         3.1539   -3.8020    1.0750 C.ar       1 <1>        0.000
     13 C22         4.1494   -3.4976    0.1500 C.ar       1 <1>        0.000
     14 O2          3.0854    0.1655   -2.1531 O.3        1 <1>        0.000
     15 O3          1.5984   -1.2849   -2.9941 O.2        1 <1>        0.000
     16 H          -3.0158    0.4185    0.0912 H.spc      1 <1>        0.000
     17 H          -2.7024   -1.5393   -1.4097 H.spc      1 <1>        0.000
     18 H          -1.1380    1.2028    1.5208 H.spc      1 <1>        0.000
     19 H          -0.5337   -2.7230   -1.4573 H.spc      1 <1>        0.000
     20 H           1.0081   -0.0242    1.5227 H.spc      1 <1>        0.000
     21 H           1.1651   -3.3730    1.7506 H.spc      1 <1>        0.000
     22 H           4.6879   -2.3290   -1.5769 H.spc      1 <1>        0.000
     23 H           3.3309   -4.5552    1.8427 H.spc      1 <1>        0.000
     24 H           5.1211   -3.9872    0.2139 H.spc      1 <1>        0.000
     25 H           3.6566    0.2131   -1.3830 H.spc      1 <1>        0.000
@<TRIPOS>BOND
     1   11   15 2  
     2    6    7 1  
     3    4    6 ar 
     4    1    2 ar 
     5    1    3 ar 
     6    7    9 ar 
     7    8   10 ar 
     8    3    5 ar 
     9    2    4 ar 
    10    7    8 ar 
    11    8   11 1  
    12    9   12 ar 
    13   11   14 1  
    14   10   13 ar 
    15   12   13 ar 
    16    5    6 ar 
    17    1   16 1  
    18    2   17 1  
    19    3   18 1  
    20    4   19 1  
    21    5   20 1  
    22    9   21 1  
    23   10   22 1  
    24   12   23 1  
    25   13   24 1  
    26   14   25 1  
# Name:          frag5-546-193/138278
# Creation time: Sat Jun  5 12:53:42 2010


@<TRIPOS>MOLECULE
frag5-546-193/138278
   25    26     1     1     1
SMALL
USER_CHARGES


@<TRIPOS>ATOM
      1 C7         -2.1280   -0.0568    0.0927 C.ar       1 <1>        0.000
      2 C9         -1.5008   -0.3960    1.2776 C.ar       1 <1>        0.000
      3 C10        -1.5373   -0.4029   -1.1006 C.ar       1 <1>        0.000
      4 C12        -0.2665   -1.0554    1.2487 C.ar       1 <1>        0.000
      5 C13        -0.3543   -1.1345   -1.0810 C.ar       1 <1>        0.000
      6 C15         0.4212   -1.3817    0.0663 C.ar       1 <1>        0.000
      7 C16         1.7261   -2.0341    0.0450 C.ar       1 <1>        0.000
      8 C17         2.6650   -1.9711   -1.0167 C.ar       1 <1>        0.000
      9 C18         2.0955   -2.9333    1.0846 C.ar       1 <1>        0.000
     10 C19         3.9416   -2.5503   -0.8927 C.ar       1 <1>        0.000
     11 C20         2.3656   -1.2450   -2.2776 C.2        1 <1>        0.000
     12 C21         3.3353   -3.5594    1.1868 C.ar       1 <1>        0.000
     13 C22         4.2718   -3.3413    0.2032 C.ar       1 <1>        0.000
     14 O2          2.5181    0.0670   -2.1356 O.3        1 <1>        0.000
     15 O3          1.9785   -1.8904   -3.2400 O.2        1 <1>        0.000
     16 H          -3.0779    0.4777    0.1041 H.spc      1 <1>        0.000
     17 H          -1.9666   -0.1504    2.2319 H.spc      1 <1>        0.000
     18 H          -1.9896   -0.1082   -2.0475 H.spc      1 <1>        0.000
     19 H           0.1888   -1.3325    2.1995 H.spc      1 <1>        0.000
     20 H          -0.0016   -1.5474   -2.0261 H.spc      1 <1>        0.000
     21 H           1.3553   -3.1471    1.8557 H.spc      1 <1>        0.000
     22 H           4.6857   -2.3759   -1.6699 H.spc      1 <1>        0.000
     23 H           3.5596   -4.2108    2.0314 H.spc      1 <1>        0.000
     24 H           5.2645   -3.7846    0.2817 H.spc      1 <1>        0.000
     25 H           2.8419    0.2566   -1.2520 H.spc      1 <1>        0.000
@<TRIPOS>BOND
     1   11   15 2  
     2    6    7 1  
     3    4    6 ar 
     4    1    2 ar 
     5    1    3 ar 
     6    7    9 ar 
     7    8   10 ar 
     8    3    5 ar 
     9    2    4 ar 
    10    7    8 ar 
    11    8   11 1  
    12    9   12 ar 
    13   11   14 1  
    14   10   13 ar 
    15   12   13 ar 
    16    5    6 ar 
    17    1   16 1  
    18    2   17 1  
    19    3   18 1  
    20    4   19 1  
    21    5   20 1  
    22    9   21 1  
    23   10   22 1  
    24   12   23 1  
    25   13   24 1  
    26   14   25 1  
# Name:          frag5-546-193/138278
# Creation time: Sat Jun  5 12:53:42 2010


@<TRIPOS>MOLECULE
frag5-546-193/138278
   25    26     1     1     1
SMALL
USER_CHARGES


@<TRIPOS>ATOM
      1 C7         -2.0305   -0.0596    0.0811 C.ar       1 <1>        0.000
      2 C9         -0.8166    0.6260    0.0863 C.ar       1 <1>        0.000
      3 C10        -2.0479   -1.4540    0.0579 C.ar       1 <1>        0.000
      4 C12         0.3757   -0.0877    0.0624 C.ar       1 <1>        0.000
      5 C13        -0.8490   -2.1574    0.0110 C.ar       1 <1>        0.000
      6 C15         0.3926   -1.4940    0.0117 C.ar       1 <1>        0.000
      7 C16         1.6380   -2.2263   -0.0282 C.ar       1 <1>        0.000
      8 C17         2.6847   -1.8972   -0.9279 C.ar       1 <1>        0.000
      9 C18         1.8324   -3.3176    0.8459 C.ar       1 <1>        0.000
     10 C19         3.9070   -2.5730   -0.8413 C.ar       1 <1>        0.000
     11 C20         2.5070   -0.7989   -1.9723 C.2        1 <1>        0.000
     12 C21         3.0313   -4.0175    0.8836 C.ar       1 <1>        0.000
     13 C22         4.0790   -3.6295    0.0543 C.ar       1 <1>        0.000
     14 O2          1.8924   -1.1243   -3.1095 O.3        1 <1>        0.000
     15 O3          2.9356    0.3258   -1.7546 O.2        1 <1>        0.000
     16 H          -2.9684    0.4956    0.0952 H.spc      1 <1>        0.000
     17 H          -0.8027    1.7157    0.1090 H.spc      1 <1>        0.000
     18 H          -2.9968   -1.9901    0.0764 H.spc      1 <1>        0.000
     19 H           1.3208    0.4550    0.0834 H.spc      1 <1>        0.000
     20 H          -0.8713   -3.2465   -0.0271 H.spc      1 <1>        0.000
     21 H           1.0207   -3.6186    1.5082 H.spc      1 <1>        0.000
     22 H           4.7355   -2.2703   -1.4816 H.spc      1 <1>        0.000
     23 H           3.1507   -4.8652    1.5584 H.spc      1 <1>        0.000
     24 H           5.0348   -4.1511    0.1041 H.spc      1 <1>        0.000
     25 H           1.6354   -2.0488   -3.0798 H.spc      1 <1>        0.000
@<TRIPOS>BOND
     1   11   15 2  
     2    6    7 1  
     3    4    6 ar 
     4    1    2 ar 
     5    1    3 ar 
     6    7    9 ar 
     7    8   10 ar 
     8    3    5 ar 
     9    2    4 ar 
    10    7    8 ar 
    11    8   11 1  
    12    9   12 ar 
    13   11   14 1  
    14   10   13 ar 
    15   12   13 ar 
    16    5    6 ar 
    17    1   16 1  
    18    2   17 1  
    19    3   18 1  
    20    4   19 1  
    21    5   20 1  
    22    9   21 1  
    23   10   22 1  
    24   12   23 1  
    25   13   24 1  
    26   14   25 1  
# Name:          frag5-546-193/138278
# Creation time: Sat Jun  5 12:53:42 2010


@<TRIPOS>MOLECULE
frag5-546-193/138278
   25    26     1     1     1
SMALL
USER_CHARGES


@<TRIPOS>ATOM
      1 C7         -1.9744    0.0472    0.1556 C.ar       1 <1>        0.000
      2 C9         -1.0006    0.2601    1.1320 C.ar       1 <1>        0.000
      3 C10        -1.7629   -0.8982   -0.8491 C.ar       1 <1>        0.000
      4 C12         0.1833   -0.4683    1.0961 C.ar       1 <1>        0.000
      5 C13        -0.5679   -1.6075   -0.8892 C.ar       1 <1>        0.000
      6 C15         0.4338   -1.4118    0.0810 C.ar       1 <1>        0.000
      7 C16         1.6761   -2.1512    0.0401 C.ar       1 <1>        0.000
      8 C17         2.6238   -1.9908   -1.0057 C.ar       1 <1>        0.000
      9 C18         1.9663   -3.0775    1.0640 C.ar       1 <1>        0.000
     10 C19         3.8509   -2.6561   -0.9312 C.ar       1 <1>        0.000
     11 C20         2.3298   -1.0853   -2.1970 C.2        1 <1>        0.000
     12 C21         3.1681   -3.7724    1.0973 C.ar       1 <1>        0.000
     13 C22         4.1231   -3.5437    0.1100 C.ar       1 <1>        0.000
     14 O2          2.6886   -1.5269   -3.4074 O.3        1 <1>        0.000
     15 O3          1.7938   -0.0027   -2.0358 O.2        1 <1>        0.000
     16 H          -2.9015    0.6200    0.1775 H.spc      1 <1>        0.000
     17 H          -1.1673    0.9946    1.9199 H.spc      1 <1>        0.000
     18 H          -2.5321   -1.0798   -1.5998 H.spc      1 <1>        0.000
     19 H           0.9334   -0.3056    1.8700 H.spc      1 <1>        0.000
     20 H          -0.4029   -2.3302   -1.6883 H.spc      1 <1>        0.000
     21 H           1.2293   -3.2519    1.8479 H.spc      1 <1>        0.000
     22 H           4.6056   -2.4789   -1.6974 H.spc      1 <1>        0.000
     23 H           3.3628   -4.4928    1.8918 H.spc      1 <1>        0.000
     24 H           5.0832   -4.0582    0.1507 H.spc      1 <1>        0.000
     25 H           3.0919   -2.3941   -3.3238 H.spc      1 <1>        0.000
@<TRIPOS>BOND
     1   11   15 2  
     2    6    7 1  
     3    4    6 ar 
     4    1    2 ar 
     5    1    3 ar 
     6    7    9 ar 
     7    8   10 ar 
     8    3    5 ar 
     9    2    4 ar 
    10    7    8 ar 
    11    8   11 1  
    12    9   12 ar 
    13   11   14 1  
    14   10   13 ar 
    15   12   13 ar 
    16    5    6 ar 
    17    1   16 1  
    18    2   17 1  
    19    3   18 1  
    20    4   19 1  
    21    5   20 1  
    22    9   21 1  
    23   10   22 1  
    24   12   23 1  
    25   13   24 1  
    26   14   25 1  
# Name:          frag5-546-193/138278 -- energy: -1.400355
# Creation time: Sat Jun  5 12:53:42 2010


@<TRIPOS>MOLECULE
frag5-546-193/138278 -- energy: -1.400355
   25    26     1     1     1
SMALL
USER_CHARGES


@<TRIPOS>ATOM
      1 C7         -2.0315   -0.0561    0.0683 C.ar       1 <1>        0.000
      2 C9         -0.9950    0.3435    0.9011 C.ar       1 <1>        0.000
      3 C10        -1.8762   -1.1593   -0.7591 C.ar       1 <1>        0.000
      4 C12         0.2036   -0.3655    0.8911 C.ar       1 <1>        0.000
      5 C13        -0.6613   -1.8385   -0.7701 C.ar       1 <1>        0.000
      6 C15         0.4183   -1.4618    0.0455 C.ar       1 <1>        0.000
      7 C16         1.6685   -2.1599    0.0165 C.ar       1 <1>        0.000
      8 C17         2.6414   -1.9424   -0.9889 C.ar       1 <1>        0.000
      9 C18         1.9390   -3.1512    0.9951 C.ar       1 <1>        0.000
     10 C19         3.9026   -2.5648   -0.8478 C.ar       1 <1>        0.000
     11 C20         2.4273   -0.9442   -2.1226 C.2        1 <1>        0.000
     12 C21         3.1498   -3.8316    1.0591 C.ar       1 <1>        0.000
     13 C22         4.1451   -3.5168    0.1511 C.ar       1 <1>        0.000
     14 O2          1.3281   -1.1426   -2.8638 O.3        1 <1>        0.000
     15 O3          3.2719   -0.0941   -2.3148 O.2        1 <1>        0.000
     16 H          -2.9700    0.4983    0.0644 H.spc      1 <1>        0.000
     17 H          -1.1184    1.2050    1.5573 H.spc      1 <1>        0.000
     18 H          -2.6977   -1.4907   -1.3943 H.spc      1 <1>        0.000
     19 H           1.0028   -0.0567    1.5648 H.spc      1 <1>        0.000
     20 H          -0.5435   -2.6936   -1.4357 H.spc      1 <1>        0.000
     21 H           1.1663   -3.3889    1.7262 H.spc      1 <1>        0.000
     22 H           4.7067   -2.2974   -1.5334 H.spc      1 <1>        0.000
     23 H           3.3125   -4.6015    1.8133 H.spc      1 <1>        0.000
     24 H           5.1160   -4.0085    0.2128 H.spc      1 <1>        0.000
     25 H           0.8264   -1.8759   -2.5003 H.spc      1 <1>        0.000
@<TRIPOS>BOND
     1   11   15 2  
     2    6    7 1  
     3    4    6 ar 
     4    1    2 ar 
     5    1    3 ar 
     6    7    9 ar 
     7    8   10 ar 
     8    3    5 ar 
     9    2    4 ar 
    10    7    8 ar 
    11    8   11 1  
    12    9   12 ar 
    13   11   14 1  
    14   10   13 ar 
    15   12   13 ar 
    16    5    6 ar 
    17    1   16 1  
    18    2   17 1  
    19    3   18 1  
    20    4   19 1  
    21    5   20 1  
    22    9   21 1  
    23   10   22 1  
    24   12   23 1  
    25   13   24 1  
    26   14   25 1  
# Name:          frag5-546-193/138278 -- energy: 2.847056
# Creation time: Sat Jun  5 12:53:42 2010


@<TRIPOS>MOLECULE
frag5-546-193/138278 -- energy: 2.847056
   25    26     1     1     1
SMALL
USER_CHARGES


@<TRIPOS>ATOM
      1 C7         -2.0802   -0.1529   -0.0120 C.ar       1 <1>        0.000
      2 C9         -1.0449    0.3145    0.7871 C.ar       1 <1>        0.000
      3 C10        -1.9056   -1.2959   -0.7823 C.ar       1 <1>        0.000
      4 C12         0.1670   -0.3683    0.8053 C.ar       1 <1>        0.000
      5 C13        -0.6737   -1.9450   -0.7767 C.ar       1 <1>        0.000
      6 C15         0.3978   -1.5082    0.0196 C.ar       1 <1>        0.000
      7 C16         1.6713   -2.1636    0.0173 C.ar       1 <1>        0.000
      8 C17         2.6818   -1.8730   -0.9331 C.ar       1 <1>        0.000
      9 C18         1.9302   -3.1792    0.9717 C.ar       1 <1>        0.000
     10 C19         3.9363   -2.5090   -0.7959 C.ar       1 <1>        0.000
     11 C20         2.4663   -0.8967   -2.0879 C.2        1 <1>        0.000
     12 C21         3.1532   -3.8326    1.0579 C.ar       1 <1>        0.000
     13 C22         4.1704   -3.4738    0.1909 C.ar       1 <1>        0.000
     14 O2          1.6068    0.1058   -1.8729 O.3        1 <1>        0.000
     15 O3          3.0550   -1.1073   -3.1286 O.2        1 <1>        0.000
     16 H          -3.0318    0.3782   -0.0349 H.spc      1 <1>        0.000
     17 H          -1.1808    1.2090    1.3950 H.spc      1 <1>        0.000
     18 H          -2.7268   -1.6816   -1.3865 H.spc      1 <1>        0.000
     19 H           0.9654   -0.0053    1.4525 H.spc      1 <1>        0.000
     20 H          -0.5364   -2.8207   -1.4110 H.spc      1 <1>        0.000
     21 H           1.1378   -3.4588    1.6660 H.spc      1 <1>        0.000
     22 H           4.7438   -2.2409   -1.4772 H.spc      1 <1>        0.000
     23 H           3.3094   -4.6171    1.7983 H.spc      1 <1>        0.000
     24 H           5.1514   -3.9413    0.2762 H.spc      1 <1>        0.000
     25 H           1.2767    0.0553   -0.9729 H.spc      1 <1>        0.000
@<TRIPOS>BOND
     1   11   15 2  
     2    6    7 1  
     3    4    6 ar 
     4    1    2 ar 
     5    1    3 ar 
     6    7    9 ar 
     7    8   10 ar 
     8    3    5 ar 
     9    2    4 ar 
    10    7    8 ar 
    11    8   11 1  
    12    9   12 ar 
    13   11   14 1  
    14   10   13 ar 
    15   12   13 ar 
    16    5    6 ar 
    17    1   16 1  
    18    2   17 1  
    19    3   18 1  
    20    4   19 1  
    21    5   20 1  
    22    9   21 1  
    23   10   22 1  
    24   12   23 1  
    25   13   24 1  
    26   14   25 1  
# Name:          frag5-546-193/138278 -- energy: -2.445172
# Creation time: Sat Jun  5 12:53:42 2010


@<TRIPOS>MOLECULE
frag5-546-193/138278 -- energy: -2.445172
   25    26     1     1     1
SMALL
USER_CHARGES


@<TRIPOS>ATOM
      1 C7         -2.0592   -0.1035    0.0690 C.ar       1 <1>        0.000
      2 C9         -1.8853   -1.2040   -0.7709 C.ar       1 <1>        0.000
      3 C10        -1.0098    0.3298    0.8808 C.ar       1 <1>        0.000
      4 C12        -0.6653   -1.8714   -0.7898 C.ar       1 <1>        0.000
      5 C13         0.2004   -0.3563    0.8704 C.ar       1 <1>        0.000
      6 C15         0.4031   -1.4710    0.0343 C.ar       1 <1>        0.000
      7 C16         1.6663   -2.1744    0.0210 C.ar       1 <1>        0.000
      8 C17         2.6603   -1.9299   -0.9614 C.ar       1 <1>        0.000
      9 C18         1.9340   -3.1403    1.0138 C.ar       1 <1>        0.000
     10 C19         3.9024   -2.5652   -0.8591 C.ar       1 <1>        0.000
     11 C20         2.3976   -0.9801   -2.1255 C.2        1 <1>        0.000
     12 C21         3.1539   -3.8020    1.0750 C.ar       1 <1>        0.000
     13 C22         4.1494   -3.4976    0.1500 C.ar       1 <1>        0.000
     14 O2          3.0854    0.1655   -2.1531 O.3        1 <1>        0.000
     15 O3          1.5984   -1.2849   -2.9941 O.2        1 <1>        0.000
     16 H          -3.0158    0.4185    0.0912 H.spc      1 <1>        0.000
     17 H          -2.7024   -1.5393   -1.4097 H.spc      1 <1>        0.000
     18 H          -1.1380    1.2028    1.5208 H.spc      1 <1>        0.000
     19 H          -0.5337   -2.7230   -1.4573 H.spc      1 <1>        0.000
     20 H           1.0081   -0.0242    1.5227 H.spc      1 <1>        0.000
     21 H           1.1651   -3.3730    1.7506 H.spc      1 <1>        0.000
     22 H           4.6879   -2.3290   -1.5769 H.spc      1 <1>        0.000
     23 H           3.3309   -4.5552    1.8427 H.spc      1 <1>        0.000
     24 H           5.1211   -3.9872    0.2139 H.spc      1 <1>        0.000
     25 H           3.6566    0.2131   -1.3830 H.spc      1 <1>        0.000
@<TRIPOS>BOND
     1   11   15 2  
     2    6    7 1  
     3    4    6 ar 
     4    1    2 ar 
     5    1    3 ar 
     6    7    9 ar 
     7    8   10 ar 
     8    3    5 ar 
     9    2    4 ar 
    10    7    8 ar 
    11    8   11 1  
    12    9   12 ar 
    13   11   14 1  
    14   10   13 ar 
    15   12   13 ar 
    16    5    6 ar 
    17    1   16 1  
    18    2   17 1  
    19    3   18 1  
    20    4   19 1  
    21    5   20 1  
    22    9   21 1  
    23   10   22 1  
    24   12   23 1  
    25   13   24 1  
    26   14   25 1  
# Name:          frag5-546-193/138278 -- energy: -1.489497
# Creation time: Sat Jun  5 12:53:42 2010


@<TRIPOS>MOLECULE
frag5-546-193/138278 -- energy: -1.489497
   25    26     1     1     1
SMALL
USER_CHARGES


@<TRIPOS>ATOM
      1 C7         -2.1280   -0.0568    0.0927 C.ar       1 <1>        0.000
      2 C9         -1.5008   -0.3960    1.2776 C.ar       1 <1>        0.000
      3 C10        -1.5373   -0.4029   -1.1006 C.ar       1 <1>        0.000
      4 C12        -0.2665   -1.0554    1.2487 C.ar       1 <1>        0.000
      5 C13        -0.3543   -1.1345   -1.0810 C.ar       1 <1>        0.000
      6 C15         0.4212   -1.3817    0.0663 C.ar       1 <1>        0.000
      7 C16         1.7261   -2.0341    0.0450 C.ar       1 <1>        0.000
      8 C17         2.6650   -1.9711   -1.0167 C.ar       1 <1>        0.000
      9 C18         2.0955   -2.9333    1.0846 C.ar       1 <1>        0.000
     10 C19         3.9416   -2.5503   -0.8927 C.ar       1 <1>        0.000
     11 C20         2.3656   -1.2450   -2.2776 C.2        1 <1>        0.000
     12 C21         3.3353   -3.5594    1.1868 C.ar       1 <1>        0.000
     13 C22         4.2718   -3.3413    0.2032 C.ar       1 <1>        0.000
     14 O2          2.5181    0.0670   -2.1356 O.3        1 <1>        0.000
     15 O3          1.9785   -1.8904   -3.2400 O.2        1 <1>        0.000
     16 H          -3.0779    0.4777    0.1041 H.spc      1 <1>        0.000
     17 H          -1.9666   -0.1504    2.2319 H.spc      1 <1>        0.000
     18 H          -1.9896   -0.1082   -2.0475 H.spc      1 <1>        0.000
     19 H           0.1888   -1.3325    2.1995 H.spc      1 <1>        0.000
     20 H          -0.0016   -1.5474   -2.0261 H.spc      1 <1>        0.000
     21 H           1.3553   -3.1471    1.8557 H.spc      1 <1>        0.000
     22 H           4.6857   -2.3759   -1.6699 H.spc      1 <1>        0.000
     23 H           3.5596   -4.2108    2.0314 H.spc      1 <1>        0.000
     24 H           5.2645   -3.7846    0.2817 H.spc      1 <1>        0.000
     25 H           2.8419    0.2566   -1.2520 H.spc      1 <1>        0.000
@<TRIPOS>BOND
     1   11   15 2  
     2    6    7 1  
     3    4    6 ar 
     4    1    2 ar 
     5    1    3 ar 
     6    7    9 ar 
     7    8   10 ar 
     8    3    5 ar 
     9    2    4 ar 
    10    7    8 ar 
    11    8   11 1  
    12    9   12 ar 
    13   11   14 1  
    14   10   13 ar 
    15   12   13 ar 
    16    5    6 ar 
    17    1   16 1  
    18    2   17 1  
    19    3   18 1  
    20    4   19 1  
    21    5   20 1  
    22    9   21 1  
    23   10   22 1  
    24   12   23 1  
    25   13   24 1  
    26   14   25 1  
# Name:          frag5-546-193/138278 -- energy: -2.333959
# Creation time: Sat Jun  5 12:53:42 2010


@<TRIPOS>MOLECULE
frag5-546-193/138278 -- energy: -2.333959
   25    26     1     1     1
SMALL
USER_CHARGES


@<TRIPOS>ATOM
      1 C7         -2.0305   -0.0596    0.0811 C.ar       1 <1>        0.000
      2 C9         -0.8166    0.6260    0.0863 C.ar       1 <1>        0.000
      3 C10        -2.0479   -1.4540    0.0579 C.ar       1 <1>        0.000
      4 C12         0.3757   -0.0877    0.0624 C.ar       1 <1>        0.000
      5 C13        -0.8490   -2.1574    0.0110 C.ar       1 <1>        0.000
      6 C15         0.3926   -1.4940    0.0117 C.ar       1 <1>        0.000
      7 C16         1.6380   -2.2263   -0.0282 C.ar       1 <1>        0.000
      8 C17         2.6847   -1.8972   -0.9279 C.ar       1 <1>        0.000
      9 C18         1.8324   -3.3176    0.8459 C.ar       1 <1>        0.000
     10 C19         3.9070   -2.5730   -0.8413 C.ar       1 <1>        0.000
     11 C20         2.5070   -0.7989   -1.9723 C.2        1 <1>        0.000
     12 C21         3.0313   -4.0175    0.8836 C.ar       1 <1>        0.000
     13 C22         4.0790   -3.6295    0.0543 C.ar       1 <1>        0.000
     14 O2          1.8924   -1.1243   -3.1095 O.3        1 <1>        0.000
     15 O3          2.9356    0.3258   -1.7546 O.2        1 <1>        0.000
     16 H          -2.9684    0.4956    0.0952 H.spc      1 <1>        0.000
     17 H          -0.8027    1.7157    0.1090 H.spc      1 <1>        0.000
     18 H          -2.9968   -1.9901    0.0764 H.spc      1 <1>        0.000
     19 H           1.3208    0.4550    0.0834 H.spc      1 <1>        0.000
     20 H          -0.8713   -3.2465   -0.0271 H.spc      1 <1>        0.000
     21 H           1.0207   -3.6186    1.5082 H.spc      1 <1>        0.000
     22 H           4.7355   -2.2703   -1.4816 H.spc      1 <1>        0.000
     23 H           3.1507   -4.8652    1.5584 H.spc      1 <1>        0.000
     24 H           5.0348   -4.1511    0.1041 H.spc      1 <1>        0.000
     25 H           1.6354   -2.0488   -3.0798 H.spc      1 <1>        0.000
@<TRIPOS>BOND
     1   11   15 2  
     2    6    7 1  
     3    4    6 ar 
     4    1    2 ar 
     5    1    3 ar 
     6    7    9 ar 
     7    8   10 ar 
     8    3    5 ar 
     9    2    4 ar 
    10    7    8 ar 
    11    8   11 1  
    12    9   12 ar 
    13   11   14 1  
    14   10   13 ar 
    15   12   13 ar 
    16    5    6 ar 
    17    1   16 1  
    18    2   17 1  
    19    3   18 1  
    20    4   19 1  
    21    5   20 1  
    22    9   21 1  
    23   10   22 1  
    24   12   23 1  
    25   13   24 1  
    26   14   25 1  
# Name:          frag5-546-193/138278 -- energy: -2.219313
# Creation time: Sat Jun  5 12:53:42 2010


@<TRIPOS>MOLECULE
frag5-546-193/138278 -- energy: -2.219313
   25    26     1     1     1
SMALL
USER_CHARGES


@<TRIPOS>ATOM
      1 C7         -1.9744    0.0472    0.1556 C.ar       1 <1>        0.000
      2 C9         -1.0006    0.2601    1.1320 C.ar       1 <1>        0.000
      3 C10        -1.7629   -0.8982   -0.8491 C.ar       1 <1>        0.000
      4 C12         0.1833   -0.4683    1.0961 C.ar       1 <1>        0.000
      5 C13        -0.5679   -1.6075   -0.8892 C.ar       1 <1>        0.000
      6 C15         0.4338   -1.4118    0.0810 C.ar       1 <1>        0.000
      7 C16         1.6761   -2.1512    0.0401 C.ar       1 <1>        0.000
      8 C17         2.6238   -1.9908   -1.0057 C.ar       1 <1>        0.000
      9 C18         1.9663   -3.0775    1.0640 C.ar       1 <1>        0.000
     10 C19         3.8509   -2.6561   -0.9312 C.ar       1 <1>        0.000
     11 C20         2.3298   -1.0853   -2.1970 C.2        1 <1>        0.000
     12 C21         3.1681   -3.7724    1.0973 C.ar       1 <1>        0.000
     13 C22         4.1231   -3.5437    0.1100 C.ar       1 <1>        0.000
     14 O2          2.6886   -1.5269   -3.4074 O.3        1 <1>        0.000
     15 O3          1.7938   -0.0027   -2.0358 O.2        1 <1>        0.000
     16 H          -2.9015    0.6200    0.1775 H.spc      1 <1>        0.000
     17 H          -1.1673    0.9946    1.9199 H.spc      1 <1>        0.000
     18 H          -2.5321   -1.0798   -1.5998 H.spc      1 <1>        0.000
     19 H           0.9334   -0.3056    1.8700 H.spc      1 <1>        0.000
     20 H          -0.4029   -2.3302   -1.6883 H.spc      1 <1>        0.000
     21 H           1.2293   -3.2519    1.8479 H.spc      1 <1>        0.000
     22 H           4.6056   -2.4789   -1.6974 H.spc      1 <1>        0.000
     23 H           3.3628   -4.4928    1.8918 H.spc      1 <1>        0.000
     24 H           5.0832   -4.0582    0.1507 H.spc      1 <1>        0.000
     25 H           3.0919   -2.3941   -3.3238 H.spc      1 <1>        0.000
@<TRIPOS>BOND
     1   11   15 2  
     2    6    7 1  
     3    4    6 ar 
     4    1    2 ar 
     5    1    3 ar 
     6    7    9 ar 
     7    8   10 ar 
     8    3    5 ar 
     9    2    4 ar 
    10    7    8 ar 
    11    8   11 1  
    12    9   12 ar 
    13   11   14 1  
    14   10   13 ar 
    15   12   13 ar 
    16    5    6 ar 
    17    1   16 1  
    18    2   17 1  
    19    3   18 1  
    20    4   19 1  
    21    5   20 1  
    22    9   21 1  
    23   10   22 1  
    24   12   23 1  
    25   13   24 1  
    26   14   25 1  
