#      Rotatable Fragment
#      Build by yxyuan
#
# Name:          frag4-465-35/48856
# Creation time: Sat Jun  5 12:52:48 2010


@<TRIPOS>MOLECULE
frag4-465-35/48856
   38    42     1     1     1
SMALL
USER_CHARGES


@<TRIPOS>ATOM
      1 C1         -1.0962    1.6068   -1.9854 C.3        1 <1>        0.000
      2 C2         -0.1170    2.6552   -1.4320 C.3        1 <1>        0.000
      3 C3          0.3986    2.2209   -0.0467 C.3        1 <1>        0.000
      4 C4          1.2121    0.9159   -0.1735 C.3        1 <1>        0.000
      5 C5          0.4277   -0.1888   -0.9199 C.3        1 <1>        0.000
      6 C6          1.3499   -1.4012   -1.1934 C.3        1 <1>        0.000
      7 C7          1.9602   -1.9308    0.1200 C.3        1 <1>        0.000
      8 C15        -1.8607   -1.2572    1.9261 C.ar       1 <1>        0.000
      9 N1          2.5817   -0.8481    0.9211 N.4        1 <1>        0.000
     10 C8          1.6719    0.3015    1.1858 C.3        1 <1>        0.000
     11 C9          0.4673   -0.0912    2.1136 C.3        1 <1>        0.000
     12 C10        -0.7167   -0.6821    1.3624 C.ar       1 <1>        0.000
     13 C11        -0.6890   -0.6489   -0.0293 C.ar       1 <1>        0.000
     14 C12        -1.7476   -1.0208   -0.8525 C.ar       1 <1>        0.000
     15 C13        -2.8747   -1.5818   -0.2716 C.ar       1 <1>        0.000
     16 C14        -2.9179   -1.7067    1.1199 C.ar       1 <1>        0.000
     17 O3         -1.5385   -0.7662   -2.1928 O.3        1 <1>        0.000
     18 C18        -0.4592    0.1999   -2.1504 C.3        1 <1>        0.000
     19 H          -1.4156    1.9421   -2.9721 H.spc      1 <1>        0.000
     20 H          -1.9180    1.5156   -1.2752 H.spc      1 <1>        0.000
     21 H          -0.6326    3.6109   -1.3378 H.spc      1 <1>        0.000
     22 H           0.7279    2.7500   -2.1141 H.spc      1 <1>        0.000
     23 H          -0.4503    2.0520    0.6158 H.spc      1 <1>        0.000
     24 H           1.0377    3.0044    0.3605 H.spc      1 <1>        0.000
     25 H           2.0933    1.2280   -0.7339 H.spc      1 <1>        0.000
     26 H           2.1572   -1.0871   -1.8550 H.spc      1 <1>        0.000
     27 H           0.7607   -2.1949   -1.6528 H.spc      1 <1>        0.000
     28 H           2.7345   -2.6553   -0.1321 H.spc      1 <1>        0.000
     29 H           1.1605   -2.3762    0.7118 H.spc      1 <1>        0.000
     30 H          -1.9321   -1.3578    3.0091 H.spc      1 <1>        0.000
     31 H           2.8388   -1.2469    1.8240 H.spc      1 <1>        0.000
     32 H           3.3749   -0.4919    0.3878 H.spc      1 <1>        0.000
     33 H           2.2189    1.0635    1.7410 H.spc      1 <1>        0.000
     34 H           0.8251   -0.8517    2.8076 H.spc      1 <1>        0.000
     35 H           0.1215    0.8200    2.6017 H.spc      1 <1>        0.000
     36 H          -3.7092   -1.9182   -0.8869 H.spc      1 <1>        0.000
     37 H          -3.7903   -2.1624    1.5883 H.spc      1 <1>        0.000
     38 H           0.1550    0.2094   -3.0509 H.spc      1 <1>        0.000
@<TRIPOS>BOND
     1    5    6 1  
     2    1    2 1  
     3    4   10 1  
     4    4    5 1  
     5    5   18 1  
     6    2    3 1  
     7    5   13 1  
     8    3    4 1  
     9    1   18 1  
    10    6    7 1  
    11   17   18 1  
    12   16    8 ar 
    13   14   17 1  
    14   14   15 ar 
    15   13   14 ar 
    16   15   16 ar 
    17   12    8 ar 
    18   12   13 ar 
    19   11   12 1  
    20   10   11 1  
    21    9   10 1  
    22    7    9 1  
    23    1   19 1  
    24    1   20 1  
    25    2   21 1  
    26    2   22 1  
    27    3   23 1  
    28    3   24 1  
    29    4   25 1  
    30    6   26 1  
    31    6   27 1  
    32    7   28 1  
    33    7   29 1  
    34    8   30 1  
    35    9   31 1  
    36    9   32 1  
    37   10   33 1  
    38   11   34 1  
    39   11   35 1  
    40   15   36 1  
    41   16   37 1  
    42   18   38 1  
# Name:          frag4-465-35/48856 -- energy: -7.500479
# Creation time: Sat Jun  5 12:52:48 2010


@<TRIPOS>MOLECULE
frag4-465-35/48856 -- energy: -7.500479
   38    42     1     1     1
SMALL
USER_CHARGES


@<TRIPOS>ATOM
      1 C1         -1.0962    1.6068   -1.9854 C.3        1 <1>        0.000
      2 C2         -0.1170    2.6552   -1.4320 C.3        1 <1>        0.000
      3 C3          0.3986    2.2209   -0.0467 C.3        1 <1>        0.000
      4 C4          1.2121    0.9159   -0.1735 C.3        1 <1>        0.000
      5 C5          0.4277   -0.1888   -0.9199 C.3        1 <1>        0.000
      6 C6          1.3499   -1.4012   -1.1934 C.3        1 <1>        0.000
      7 C7          1.9602   -1.9308    0.1200 C.3        1 <1>        0.000
      8 C15        -1.8607   -1.2572    1.9261 C.ar       1 <1>        0.000
      9 N1          2.5817   -0.8481    0.9211 N.4        1 <1>        0.000
     10 C8          1.6719    0.3015    1.1858 C.3        1 <1>        0.000
     11 C9          0.4673   -0.0912    2.1136 C.3        1 <1>        0.000
     12 C10        -0.7167   -0.6821    1.3624 C.ar       1 <1>        0.000
     13 C11        -0.6890   -0.6489   -0.0293 C.ar       1 <1>        0.000
     14 C12        -1.7476   -1.0208   -0.8525 C.ar       1 <1>        0.000
     15 C13        -2.8747   -1.5818   -0.2716 C.ar       1 <1>        0.000
     16 C14        -2.9179   -1.7067    1.1199 C.ar       1 <1>        0.000
     17 O3         -1.5385   -0.7662   -2.1928 O.3        1 <1>        0.000
     18 C18        -0.4592    0.1999   -2.1504 C.3        1 <1>        0.000
     19 H          -1.4156    1.9421   -2.9721 H.spc      1 <1>        0.000
     20 H          -1.9180    1.5156   -1.2752 H.spc      1 <1>        0.000
     21 H          -0.6326    3.6109   -1.3378 H.spc      1 <1>        0.000
     22 H           0.7279    2.7500   -2.1141 H.spc      1 <1>        0.000
     23 H          -0.4503    2.0520    0.6158 H.spc      1 <1>        0.000
     24 H           1.0377    3.0044    0.3605 H.spc      1 <1>        0.000
     25 H           2.0933    1.2280   -0.7339 H.spc      1 <1>        0.000
     26 H           2.1572   -1.0871   -1.8550 H.spc      1 <1>        0.000
     27 H           0.7607   -2.1949   -1.6528 H.spc      1 <1>        0.000
     28 H           2.7345   -2.6553   -0.1321 H.spc      1 <1>        0.000
     29 H           1.1605   -2.3762    0.7118 H.spc      1 <1>        0.000
     30 H          -1.9321   -1.3578    3.0091 H.spc      1 <1>        0.000
     31 H           2.8388   -1.2469    1.8240 H.spc      1 <1>        0.000
     32 H           3.3749   -0.4919    0.3878 H.spc      1 <1>        0.000
     33 H           2.2189    1.0635    1.7410 H.spc      1 <1>        0.000
     34 H           0.8251   -0.8517    2.8076 H.spc      1 <1>        0.000
     35 H           0.1215    0.8200    2.6017 H.spc      1 <1>        0.000
     36 H          -3.7092   -1.9182   -0.8869 H.spc      1 <1>        0.000
     37 H          -3.7903   -2.1624    1.5883 H.spc      1 <1>        0.000
     38 H           0.1550    0.2094   -3.0509 H.spc      1 <1>        0.000
@<TRIPOS>BOND
     1    5    6 1  
     2    1    2 1  
     3    4   10 1  
     4    4    5 1  
     5    5   18 1  
     6    2    3 1  
     7    5   13 1  
     8    3    4 1  
     9    1   18 1  
    10    6    7 1  
    11   17   18 1  
    12   16    8 ar 
    13   14   17 1  
    14   14   15 ar 
    15   13   14 ar 
    16   15   16 ar 
    17   12    8 ar 
    18   12   13 ar 
    19   11   12 1  
    20   10   11 1  
    21    9   10 1  
    22    7    9 1  
    23    1   19 1  
    24    1   20 1  
    25    2   21 1  
    26    2   22 1  
    27    3   23 1  
    28    3   24 1  
    29    4   25 1  
    30    6   26 1  
    31    6   27 1  
    32    7   28 1  
    33    7   29 1  
    34    8   30 1  
    35    9   31 1  
    36    9   32 1  
    37   10   33 1  
    38   11   34 1  
    39   11   35 1  
    40   15   36 1  
    41   16   37 1  
    42   18   38 1  
