#      Rotatable Fragment
#      Build by yxyuan
#
# Name:          frag4-430-48/48856
# Creation time: Sat Jun  5 12:52:40 2010


@<TRIPOS>MOLECULE
frag4-430-48/48856
   18    18     1     1     1
SMALL
USER_CHARGES


@<TRIPOS>ATOM
      1 N1         -2.6347    1.8485    1.7328 N.4        1 <1>        0.000
      2 C1         -2.6821    0.9294    0.6114 C.3        1 <1>        0.000
      3 C2         -1.5741   -0.1214    0.5553 C.3        1 <1>        0.000
      4 C3         -0.2471    0.5983    0.6753 C.3        1 <1>        0.000
      5 C4         -0.3067    2.1013    0.8024 C.3        1 <1>        0.000
      6 C5         -1.3301    2.4805    1.8628 C.3        1 <1>        0.000
      7 H          -2.8209    1.3215    2.5860 H.spc      1 <1>        0.000
      8 H          -3.3295    2.5788    1.5770 H.spc      1 <1>        0.000
      9 H          -2.5714    1.5376   -0.2863 H.spc      1 <1>        0.000
     10 H          -3.6188    0.3802    0.7066 H.spc      1 <1>        0.000
     11 H          -1.6222   -0.6723   -0.3840 H.spc      1 <1>        0.000
     12 H          -1.6908   -0.8381    1.3682 H.spc      1 <1>        0.000
     13 H           0.2118    0.2351    1.5949 H.spc      1 <1>        0.000
     14 H           0.2922    0.3943   -0.2497 H.spc      1 <1>        0.000
     15 H           0.6735    2.4806    1.0913 H.spc      1 <1>        0.000
     16 H          -0.5968    2.5356   -0.1543 H.spc      1 <1>        0.000
     17 H          -1.4949    3.5534    1.7640 H.spc      1 <1>        0.000
     18 H          -0.9213    2.1525    2.8185 H.spc      1 <1>        0.000
@<TRIPOS>BOND
     1    5    6 1  
     2    4    5 1  
     3    1    2 1  
     4    1    6 1  
     5    2    3 1  
     6    3    4 1  
     7    1    7 1  
     8    1    8 1  
     9    2    9 1  
    10    2   10 1  
    11    3   11 1  
    12    3   12 1  
    13    4   13 1  
    14    4   14 1  
    15    5   15 1  
    16    5   16 1  
    17    6   17 1  
    18    6   18 1  
# Name:          frag4-430-48/48856 -- energy: -0.933185
# Creation time: Sat Jun  5 12:52:40 2010


@<TRIPOS>MOLECULE
frag4-430-48/48856 -- energy: -0.933185
   18    18     1     1     1
SMALL
USER_CHARGES


@<TRIPOS>ATOM
      1 N1         -2.6347    1.8485    1.7328 N.4        1 <1>        0.000
      2 C1         -2.6821    0.9294    0.6114 C.3        1 <1>        0.000
      3 C2         -1.5741   -0.1214    0.5553 C.3        1 <1>        0.000
      4 C3         -0.2471    0.5983    0.6753 C.3        1 <1>        0.000
      5 C4         -0.3067    2.1013    0.8024 C.3        1 <1>        0.000
      6 C5         -1.3301    2.4805    1.8628 C.3        1 <1>        0.000
      7 H          -2.8209    1.3215    2.5860 H.spc      1 <1>        0.000
      8 H          -3.3295    2.5788    1.5770 H.spc      1 <1>        0.000
      9 H          -2.5714    1.5376   -0.2863 H.spc      1 <1>        0.000
     10 H          -3.6188    0.3802    0.7066 H.spc      1 <1>        0.000
     11 H          -1.6222   -0.6723   -0.3840 H.spc      1 <1>        0.000
     12 H          -1.6908   -0.8381    1.3682 H.spc      1 <1>        0.000
     13 H           0.2118    0.2351    1.5949 H.spc      1 <1>        0.000
     14 H           0.2922    0.3943   -0.2497 H.spc      1 <1>        0.000
     15 H           0.6735    2.4806    1.0913 H.spc      1 <1>        0.000
     16 H          -0.5968    2.5356   -0.1543 H.spc      1 <1>        0.000
     17 H          -1.4949    3.5534    1.7640 H.spc      1 <1>        0.000
     18 H          -0.9213    2.1525    2.8185 H.spc      1 <1>        0.000
@<TRIPOS>BOND
     1    5    6 1  
     2    4    5 1  
     3    1    2 1  
     4    1    6 1  
     5    2    3 1  
     6    3    4 1  
     7    1    7 1  
     8    1    8 1  
     9    2    9 1  
    10    2   10 1  
    11    3   11 1  
    12    3   12 1  
    13    4   13 1  
    14    4   14 1  
    15    5   15 1  
    16    5   16 1  
    17    6   17 1  
    18    6   18 1  
