#      Rotatable Fragment
#      Build by yxyuan
#
# Name:          frag3-105-249/96164
# Creation time: Sat Jun  5 12:53:32 2010


@<TRIPOS>MOLECULE
frag3-105-249/96164
    6     5     1     1     1
SMALL
USER_CHARGES


@<TRIPOS>ATOM
      1 N1         -0.7554    0.0460    0.0898 N.am       1 <1>        0.000
      2 C10         0.5974    0.1220   -0.1329 C.2        1 <1>        0.000
      3 S1          1.5765   -0.7382   -1.1338 S.2        1 <1>        0.000
      4 H          -1.3179   -0.6380   -0.4162 H.spc      1 <1>        0.000
      5 H          -1.1978    0.6736    0.7612 H.spc      1 <1>        0.000
      6 H           1.1097    0.8835    0.4551 H.spc      1 <1>        0.000
@<TRIPOS>BOND
     1    1    2 am 
     2    2    3 2  
     3    1    4 1  
     4    1    5 1  
     5    2    6 1  
# Name:          frag3-105-249/96164 -- energy: -0.117564
# Creation time: Sat Jun  5 12:53:32 2010


@<TRIPOS>MOLECULE
frag3-105-249/96164 -- energy: -0.117564
    6     5     1     1     1
SMALL
USER_CHARGES


@<TRIPOS>ATOM
      1 N1         -0.7554    0.0460    0.0898 N.am       1 <1>        0.000
      2 C10         0.5974    0.1220   -0.1329 C.2        1 <1>        0.000
      3 S1          1.5765   -0.7382   -1.1338 S.2        1 <1>        0.000
      4 H          -1.3179   -0.6380   -0.4162 H.spc      1 <1>        0.000
      5 H          -1.1978    0.6736    0.7612 H.spc      1 <1>        0.000
      6 H           1.1097    0.8835    0.4551 H.spc      1 <1>        0.000
@<TRIPOS>BOND
     1    1    2 am 
     2    2    3 2  
     3    1    4 1  
     4    1    5 1  
     5    2    6 1  
