#      Rotatable Fragment
#      Build by yxyuan
#
# Name:          frag4-305-1210/150395
# Creation time: Sat Jun  5 12:53:30 2010


@<TRIPOS>MOLECULE
frag4-305-1210/150395
   12    13     1     1     1
SMALL
USER_CHARGES


@<TRIPOS>ATOM
      1 C1         -0.1784    0.6440    0.0360 C.ar       1 <1>        0.000
      2 N1         -1.3789    1.0081   -0.0931 N.ar       1 <1>        0.000
      3 C2         -0.2028   -0.8772    0.1523 C.ar       1 <1>        0.000
      4 N2          0.9379    1.4004    0.0678 N.ar       1 <1>        0.000
      5 C4         -2.2151   -0.2654   -0.1455 C.ar       1 <1>        0.000
      6 N3         -1.4877   -1.3002    0.1188 N.ar       1 <1>        0.000
      7 C5          1.0277   -1.3521    0.3171 C.ar       1 <1>        0.000
      8 C6          2.0525    0.7469   -0.0507 C.ar       1 <1>        0.000
      9 N4          2.1303   -0.5717    0.2386 N.ar       1 <1>        0.000
     10 H          -3.2803   -0.2986   -0.3745 H.spc      1 <1>        0.000
     11 H           1.1538   -2.4148    0.5242 H.spc      1 <1>        0.000
     12 H           2.9451    1.2720   -0.3907 H.spc      1 <1>        0.000
@<TRIPOS>BOND
     1    1    2 ar 
     2    1    3 ar 
     3    1    4 ar 
     4    2    5 ar 
     5    3    6 ar 
     6    3    7 ar 
     7    4    8 ar 
     8    5    6 ar 
     9    7    9 ar 
    10    8    9 ar 
    11    5   10 1  
    12    7   11 1  
    13    8   12 1  
# Name:          frag4-305-1210/150395 -- energy: -0.060498
# Creation time: Sat Jun  5 12:53:30 2010


@<TRIPOS>MOLECULE
frag4-305-1210/150395 -- energy: -0.060498
   12    13     1     1     1
SMALL
USER_CHARGES


@<TRIPOS>ATOM
      1 C1         -0.1784    0.6440    0.0360 C.ar       1 <1>        0.000
      2 N1         -1.3789    1.0081   -0.0931 N.ar       1 <1>        0.000
      3 C2         -0.2028   -0.8772    0.1523 C.ar       1 <1>        0.000
      4 N2          0.9379    1.4004    0.0678 N.ar       1 <1>        0.000
      5 C4         -2.2151   -0.2654   -0.1455 C.ar       1 <1>        0.000
      6 N3         -1.4877   -1.3002    0.1188 N.ar       1 <1>        0.000
      7 C5          1.0277   -1.3521    0.3171 C.ar       1 <1>        0.000
      8 C6          2.0525    0.7469   -0.0507 C.ar       1 <1>        0.000
      9 N4          2.1303   -0.5717    0.2386 N.ar       1 <1>        0.000
     10 H          -3.2803   -0.2986   -0.3745 H.spc      1 <1>        0.000
     11 H           1.1538   -2.4148    0.5242 H.spc      1 <1>        0.000
     12 H           2.9451    1.2720   -0.3907 H.spc      1 <1>        0.000
@<TRIPOS>BOND
     1    1    2 ar 
     2    1    3 ar 
     3    1    4 ar 
     4    2    5 ar 
     5    3    6 ar 
     6    3    7 ar 
     7    4    8 ar 
     8    5    6 ar 
     9    7    9 ar 
    10    8    9 ar 
    11    5   10 1  
    12    7   11 1  
    13    8   12 1  
