#      Rotatable Fragment
#      Build by yxyuan
#
# Name:          frag3-292-2/31924
# Creation time: Sat Jun  5 12:52:46 2010


@<TRIPOS>MOLECULE
frag3-292-2/31924
   14    13     1     1     1
SMALL
USER_CHARGES


@<TRIPOS>ATOM
      1 N1         -1.3390    0.8152   -0.5242 N.am       1 <1>        0.000
      2 C1         -2.5676    1.0082   -1.0685 C.2        1 <1>        0.000
      3 O1         -3.5821    0.7636   -0.4316 O.2        1 <1>        0.000
      4 N2         -2.6785    1.4774   -2.3332 N.am       1 <1>        0.000
      5 C2         -0.1777    1.0039   -1.1990 C.2        1 <1>        0.000
      6 O2         -0.1387    1.0780   -2.4172 O.2        1 <1>        0.000
      7 C3          1.1001    1.1272   -0.4604 C.2        1 <1>        0.000
      8 C4          2.1529    1.8181   -0.9158 C.2        1 <1>        0.000
      9 H          -1.2862    0.5109    0.4479 H.spc      1 <1>        0.000
     10 H          -3.6006    1.6230   -2.7441 H.spc      1 <1>        0.000
     11 H          -1.8399    1.6854   -2.8754 H.spc      1 <1>        0.000
     12 H           1.1882    0.6291    0.5051 H.spc      1 <1>        0.000
     13 H           2.0958    2.3272   -1.8779 H.spc      1 <1>        0.000
     14 H           3.0670    1.8714   -0.3244 H.spc      1 <1>        0.000
@<TRIPOS>BOND
     1    1    2 am 
     2    1    5 am 
     3    2    3 2  
     4    2    4 am 
     5    5    6 2  
     6    5    7 1  
     7    7    8 2  
     8    1    9 1  
     9    4   10 1  
    10    4   11 1  
    11    7   12 1  
    12    8   13 1  
    13    8   14 1  
# Name:          frag3-292-2/31924
# Creation time: Sat Jun  5 12:52:46 2010


@<TRIPOS>MOLECULE
frag3-292-2/31924
   14    13     1     1     1
SMALL
USER_CHARGES


@<TRIPOS>ATOM
      1 N1         -1.4628    0.5280   -1.8196 N.am       1 <1>        0.000
      2 C1         -2.4399    1.1472   -1.1056 C.2        1 <1>        0.000
      3 O1         -2.6320    0.8761    0.0656 O.2        1 <1>        0.000
      4 N2         -3.2102    2.0879   -1.7088 N.am       1 <1>        0.000
      5 C2         -0.1372    0.7158   -1.6113 C.2        1 <1>        0.000
      6 O2          0.7132    0.0889   -2.2195 O.2        1 <1>        0.000
      7 C3          0.3239    1.7130   -0.6159 C.2        1 <1>        0.000
      8 C4          1.6144    1.9347   -0.3349 C.2        1 <1>        0.000
      9 H          -1.7448   -0.1175   -2.5573 H.spc      1 <1>        0.000
     10 H          -3.9434    2.5617   -1.1812 H.spc      1 <1>        0.000
     11 H          -3.0559    2.3211   -2.6897 H.spc      1 <1>        0.000
     12 H          -0.4275    2.2969   -0.0844 H.spc      1 <1>        0.000
     13 H           2.3896    1.3669   -0.8495 H.spc      1 <1>        0.000
     14 H           1.8896    2.6829    0.4084 H.spc      1 <1>        0.000
@<TRIPOS>BOND
     1    1    2 am 
     2    1    5 am 
     3    2    3 2  
     4    2    4 am 
     5    5    6 2  
     6    5    7 1  
     7    7    8 2  
     8    1    9 1  
     9    4   10 1  
    10    4   11 1  
    11    7   12 1  
    12    8   13 1  
    13    8   14 1  
# Name:          frag3-292-2/31924
# Creation time: Sat Jun  5 12:52:46 2010


@<TRIPOS>MOLECULE
frag3-292-2/31924
   14    13     1     1     1
SMALL
USER_CHARGES


@<TRIPOS>ATOM
      1 N1         -1.4039    0.7364   -1.9562 N.am       1 <1>        0.000
      2 C1         -2.4428    0.9515   -1.1073 C.2        1 <1>        0.000
      3 O1         -2.4308    1.8859   -0.3240 O.2        1 <1>        0.000
      4 N2         -3.5089    0.1144   -1.1288 N.am       1 <1>        0.000
      5 C2         -0.1428    1.1821   -1.7346 C.2        1 <1>        0.000
      6 O2          0.5354    1.6801   -2.6181 O.2        1 <1>        0.000
      7 C3          0.4570    1.0764   -0.3839 C.2        1 <1>        0.000
      8 C4          1.7060    1.4648   -0.0971 C.2        1 <1>        0.000
      9 H          -1.5833    0.2086   -2.8104 H.spc      1 <1>        0.000
     10 H          -4.2917    0.2690   -0.4934 H.spc      1 <1>        0.000
     11 H          -3.5283   -0.6701   -1.7804 H.spc      1 <1>        0.000
     12 H          -0.1510    0.6602    0.4193 H.spc      1 <1>        0.000
     13 H           2.3391    1.8850   -0.8786 H.spc      1 <1>        0.000
     14 H           2.0896    1.3608    0.9179 H.spc      1 <1>        0.000
@<TRIPOS>BOND
     1    1    2 am 
     2    1    5 am 
     3    2    3 2  
     4    2    4 am 
     5    5    6 2  
     6    5    7 1  
     7    7    8 2  
     8    1    9 1  
     9    4   10 1  
    10    4   11 1  
    11    7   12 1  
    12    8   13 1  
    13    8   14 1  
# Name:          frag3-292-2/31924
# Creation time: Sat Jun  5 12:52:46 2010


@<TRIPOS>MOLECULE
frag3-292-2/31924
   14    13     1     1     1
SMALL
USER_CHARGES


@<TRIPOS>ATOM
      1 N1         -1.3440    0.8180   -0.5303 N.am       1 <1>        0.000
      2 C1         -2.5616    0.8485   -1.1306 C.2        1 <1>        0.000
      3 O1         -3.5676    1.1313   -0.5002 O.2        1 <1>        0.000
      4 N2         -2.6649    0.5615   -2.4510 N.am       1 <1>        0.000
      5 C2         -0.2177    1.3382   -1.0758 C.2        1 <1>        0.000
      6 O2         -0.2508    2.0941   -2.0344 O.2        1 <1>        0.000
      7 C3          1.1092    0.9971   -0.5141 C.2        1 <1>        0.000
      8 C4          2.2667    1.3029   -1.1136 C.2        1 <1>        0.000
      9 H          -1.2727    0.3769    0.3866 H.spc      1 <1>        0.000
     10 H          -3.5766    0.5832   -2.9078 H.spc      1 <1>        0.000
     11 H          -1.8309    0.3238   -2.9880 H.spc      1 <1>        0.000
     12 H           1.1456    0.4687    0.4386 H.spc      1 <1>        0.000
     13 H           2.2638    1.8310   -2.0671 H.spc      1 <1>        0.000
     14 H           3.2120    1.0237   -0.6481 H.spc      1 <1>        0.000
@<TRIPOS>BOND
     1    1    2 am 
     2    1    5 am 
     3    2    3 2  
     4    2    4 am 
     5    5    6 2  
     6    5    7 1  
     7    7    8 2  
     8    1    9 1  
     9    4   10 1  
    10    4   11 1  
    11    7   12 1  
    12    8   13 1  
    13    8   14 1  
# Name:          frag3-292-2/31924
# Creation time: Sat Jun  5 12:52:46 2010


@<TRIPOS>MOLECULE
frag3-292-2/31924
   14    13     1     1     1
SMALL
USER_CHARGES


@<TRIPOS>ATOM
      1 N1         -1.4229    0.2509   -1.1337 N.am       1 <1>        0.000
      2 C1         -2.4727    1.1044   -0.9971 C.2        1 <1>        0.000
      3 O1         -3.4834    0.7773   -0.4084 O.2        1 <1>        0.000
      4 N2         -2.3824    2.3505   -1.5335 N.am       1 <1>        0.000
      5 C2         -0.1608    0.6323   -1.4336 C.2        1 <1>        0.000
      6 O2          0.5297    0.0260   -2.2353 O.2        1 <1>        0.000
      7 C3          0.4279    1.8279   -0.7851 C.2        1 <1>        0.000
      8 C4          1.7339    2.1223   -0.8231 C.2        1 <1>        0.000
      9 H          -1.5996   -0.7449   -1.0009 H.spc      1 <1>        0.000
     10 H          -3.1603    3.0035   -1.4401 H.spc      1 <1>        0.000
     11 H          -1.5367    2.6323   -2.0293 H.spc      1 <1>        0.000
     12 H          -0.2378    2.5039   -0.2484 H.spc      1 <1>        0.000
     13 H           2.4253    1.4661   -1.3517 H.spc      1 <1>        0.000
     14 H           2.1054    3.0181   -0.3254 H.spc      1 <1>        0.000
@<TRIPOS>BOND
     1    1    2 am 
     2    1    5 am 
     3    2    3 2  
     4    2    4 am 
     5    5    6 2  
     6    5    7 1  
     7    7    8 2  
     8    1    9 1  
     9    4   10 1  
    10    4   11 1  
    11    7   12 1  
    12    8   13 1  
    13    8   14 1  
# Name:          frag3-292-2/31924
# Creation time: Sat Jun  5 12:52:46 2010


@<TRIPOS>MOLECULE
frag3-292-2/31924
   14    13     1     1     1
SMALL
USER_CHARGES


@<TRIPOS>ATOM
      1 N1         -1.2516    1.3909   -0.6666 N.am       1 <1>        0.000
      2 C1         -2.5067    1.0124   -1.0205 C.2        1 <1>        0.000
      3 O1         -3.3836    0.8779   -0.1820 O.2        1 <1>        0.000
      4 N2         -2.7942    0.7788   -2.3238 N.am       1 <1>        0.000
      5 C2         -0.1615    1.2280   -1.4556 C.2        1 <1>        0.000
      6 O2         -0.1933    1.4392   -2.6577 O.2        1 <1>        0.000
      7 C3          1.1224    0.7803   -0.8689 C.2        1 <1>        0.000
      8 C4          1.9379    1.5842   -0.1748 C.2        1 <1>        0.000
      9 H          -1.1213    1.8237    0.2478 H.spc      1 <1>        0.000
     10 H          -3.7352    0.4938   -2.5953 H.spc      1 <1>        0.000
     11 H          -2.0696    0.8879   -3.0334 H.spc      1 <1>        0.000
     12 H           1.4194   -0.2590   -1.0096 H.spc      1 <1>        0.000
     13 H           1.6689    2.6286   -0.0170 H.spc      1 <1>        0.000
     14 H           2.8707    1.1942    0.2324 H.spc      1 <1>        0.000
@<TRIPOS>BOND
     1    1    2 am 
     2    1    5 am 
     3    2    3 2  
     4    2    4 am 
     5    5    6 2  
     6    5    7 1  
     7    7    8 2  
     8    1    9 1  
     9    4   10 1  
    10    4   11 1  
    11    7   12 1  
    12    8   13 1  
    13    8   14 1  
# Name:          frag3-292-2/31924
# Creation time: Sat Jun  5 12:52:46 2010


@<TRIPOS>MOLECULE
frag3-292-2/31924
   14    13     1     1     1
SMALL
USER_CHARGES


@<TRIPOS>ATOM
      1 N1         -1.6050    1.9083   -1.0150 N.am       1 <1>        0.000
      2 C1         -2.4158    0.8174   -1.0398 C.2        1 <1>        0.000
      3 O1         -3.4420    0.7758   -0.3902 O.2        1 <1>        0.000
      4 N2         -2.0660   -0.2477   -1.8082 N.am       1 <1>        0.000
      5 C2         -0.2775    1.8799   -1.2734 C.2        1 <1>        0.000
      6 O2          0.2553    2.6741   -2.0303 O.2        1 <1>        0.000
      7 C3          0.5827    0.8564   -0.6340 C.2        1 <1>        0.000
      8 C4          1.7376    0.4275   -1.1591 C.2        1 <1>        0.000
      9 H          -2.0259    2.8088   -0.7862 H.spc      1 <1>        0.000
     10 H          -2.6632   -1.0741   -1.8367 H.spc      1 <1>        0.000
     11 H          -1.2063   -0.2207   -2.3564 H.spc      1 <1>        0.000
     12 H           0.2578    0.4297    0.3149 H.spc      1 <1>        0.000
     13 H           2.0899    0.8347   -2.1068 H.spc      1 <1>        0.000
     14 H           2.3253   -0.3288   -0.6388 H.spc      1 <1>        0.000
@<TRIPOS>BOND
     1    1    2 am 
     2    1    5 am 
     3    2    3 2  
     4    2    4 am 
     5    5    6 2  
     6    5    7 1  
     7    7    8 2  
     8    1    9 1  
     9    4   10 1  
    10    4   11 1  
    11    7   12 1  
    12    8   13 1  
    13    8   14 1  
# Name:          frag3-292-2/31924
# Creation time: Sat Jun  5 12:52:46 2010


@<TRIPOS>MOLECULE
frag3-292-2/31924
   14    13     1     1     1
SMALL
USER_CHARGES


@<TRIPOS>ATOM
      1 N1         -1.3098    0.8231   -1.9975 N.am       1 <1>        0.000
      2 C1         -2.2102    0.9284   -0.9836 C.2        1 <1>        0.000
      3 O1         -2.3946    1.9871   -0.4150 O.2        1 <1>        0.000
      4 N2         -2.9073   -0.1713   -0.5971 N.am       1 <1>        0.000
      5 C2         -0.0828    1.3998   -1.9842 C.2        1 <1>        0.000
      6 O2          0.4805    1.7573   -3.0029 O.2        1 <1>        0.000
      7 C3          0.6186    1.6160   -0.6955 C.2        1 <1>        0.000
      8 C4          0.5748    0.7512    0.3259 C.2        1 <1>        0.000
      9 H          -1.5736    0.2771   -2.8177 H.spc      1 <1>        0.000
     10 H          -3.5809   -0.1060    0.1661 H.spc      1 <1>        0.000
     11 H          -2.7573   -1.0625   -1.0700 H.spc      1 <1>        0.000
     12 H           1.2017    2.5288   -0.5731 H.spc      1 <1>        0.000
     13 H           0.0006   -0.1708    0.2351 H.spc      1 <1>        0.000
     14 H           1.1134    0.9693    1.2481 H.spc      1 <1>        0.000
@<TRIPOS>BOND
     1    1    2 am 
     2    1    5 am 
     3    2    3 2  
     4    2    4 am 
     5    5    6 2  
     6    5    7 1  
     7    7    8 2  
     8    1    9 1  
     9    4   10 1  
    10    4   11 1  
    11    7   12 1  
    12    8   13 1  
    13    8   14 1  
# Name:          frag3-292-2/31924 -- energy: -0.962819
# Creation time: Sat Jun  5 12:52:46 2010


@<TRIPOS>MOLECULE
frag3-292-2/31924 -- energy: -0.962819
   14    13     1     1     1
SMALL
USER_CHARGES


@<TRIPOS>ATOM
      1 N1         -1.4628    0.5280   -1.8196 N.am       1 <1>        0.000
      2 C1         -2.4399    1.1472   -1.1056 C.2        1 <1>        0.000
      3 O1         -2.6320    0.8761    0.0656 O.2        1 <1>        0.000
      4 N2         -3.2102    2.0879   -1.7088 N.am       1 <1>        0.000
      5 C2         -0.1372    0.7158   -1.6113 C.2        1 <1>        0.000
      6 O2          0.7132    0.0889   -2.2195 O.2        1 <1>        0.000
      7 C3          0.3239    1.7130   -0.6159 C.2        1 <1>        0.000
      8 C4          1.6144    1.9347   -0.3349 C.2        1 <1>        0.000
      9 H          -1.7448   -0.1175   -2.5573 H.spc      1 <1>        0.000
     10 H          -3.9434    2.5617   -1.1812 H.spc      1 <1>        0.000
     11 H          -3.0559    2.3211   -2.6897 H.spc      1 <1>        0.000
     12 H          -0.4275    2.2969   -0.0844 H.spc      1 <1>        0.000
     13 H           2.3896    1.3669   -0.8495 H.spc      1 <1>        0.000
     14 H           1.8896    2.6829    0.4084 H.spc      1 <1>        0.000
@<TRIPOS>BOND
     1    1    2 am 
     2    1    5 am 
     3    2    3 2  
     4    2    4 am 
     5    5    6 2  
     6    5    7 1  
     7    7    8 2  
     8    1    9 1  
     9    4   10 1  
    10    4   11 1  
    11    7   12 1  
    12    8   13 1  
    13    8   14 1  
# Name:          frag3-292-2/31924 -- energy: -0.977776
# Creation time: Sat Jun  5 12:52:46 2010


@<TRIPOS>MOLECULE
frag3-292-2/31924 -- energy: -0.977776
   14    13     1     1     1
SMALL
USER_CHARGES


@<TRIPOS>ATOM
      1 N1         -1.4039    0.7364   -1.9562 N.am       1 <1>        0.000
      2 C1         -2.4428    0.9515   -1.1073 C.2        1 <1>        0.000
      3 O1         -2.4308    1.8859   -0.3240 O.2        1 <1>        0.000
      4 N2         -3.5089    0.1144   -1.1288 N.am       1 <1>        0.000
      5 C2         -0.1428    1.1821   -1.7346 C.2        1 <1>        0.000
      6 O2          0.5354    1.6801   -2.6181 O.2        1 <1>        0.000
      7 C3          0.4570    1.0764   -0.3839 C.2        1 <1>        0.000
      8 C4          1.7060    1.4648   -0.0971 C.2        1 <1>        0.000
      9 H          -1.5833    0.2086   -2.8104 H.spc      1 <1>        0.000
     10 H          -4.2917    0.2690   -0.4934 H.spc      1 <1>        0.000
     11 H          -3.5283   -0.6701   -1.7804 H.spc      1 <1>        0.000
     12 H          -0.1510    0.6602    0.4193 H.spc      1 <1>        0.000
     13 H           2.3391    1.8850   -0.8786 H.spc      1 <1>        0.000
     14 H           2.0896    1.3608    0.9179 H.spc      1 <1>        0.000
@<TRIPOS>BOND
     1    1    2 am 
     2    1    5 am 
     3    2    3 2  
     4    2    4 am 
     5    5    6 2  
     6    5    7 1  
     7    7    8 2  
     8    1    9 1  
     9    4   10 1  
    10    4   11 1  
    11    7   12 1  
    12    8   13 1  
    13    8   14 1  
# Name:          frag3-292-2/31924 -- energy: -0.940177
# Creation time: Sat Jun  5 12:52:46 2010


@<TRIPOS>MOLECULE
frag3-292-2/31924 -- energy: -0.940177
   14    13     1     1     1
SMALL
USER_CHARGES


@<TRIPOS>ATOM
      1 N1         -1.3440    0.8180   -0.5303 N.am       1 <1>        0.000
      2 C1         -2.5616    0.8485   -1.1306 C.2        1 <1>        0.000
      3 O1         -3.5676    1.1313   -0.5002 O.2        1 <1>        0.000
      4 N2         -2.6649    0.5615   -2.4510 N.am       1 <1>        0.000
      5 C2         -0.2177    1.3382   -1.0758 C.2        1 <1>        0.000
      6 O2         -0.2508    2.0941   -2.0344 O.2        1 <1>        0.000
      7 C3          1.1092    0.9971   -0.5141 C.2        1 <1>        0.000
      8 C4          2.2667    1.3029   -1.1136 C.2        1 <1>        0.000
      9 H          -1.2727    0.3769    0.3866 H.spc      1 <1>        0.000
     10 H          -3.5766    0.5832   -2.9078 H.spc      1 <1>        0.000
     11 H          -1.8309    0.3238   -2.9880 H.spc      1 <1>        0.000
     12 H           1.1456    0.4687    0.4386 H.spc      1 <1>        0.000
     13 H           2.2638    1.8310   -2.0671 H.spc      1 <1>        0.000
     14 H           3.2120    1.0237   -0.6481 H.spc      1 <1>        0.000
@<TRIPOS>BOND
     1    1    2 am 
     2    1    5 am 
     3    2    3 2  
     4    2    4 am 
     5    5    6 2  
     6    5    7 1  
     7    7    8 2  
     8    1    9 1  
     9    4   10 1  
    10    4   11 1  
    11    7   12 1  
    12    8   13 1  
    13    8   14 1  
# Name:          frag3-292-2/31924 -- energy: -0.801116
# Creation time: Sat Jun  5 12:52:46 2010


@<TRIPOS>MOLECULE
frag3-292-2/31924 -- energy: -0.801116
   14    13     1     1     1
SMALL
USER_CHARGES


@<TRIPOS>ATOM
      1 N1         -1.4229    0.2509   -1.1337 N.am       1 <1>        0.000
      2 C1         -2.4727    1.1044   -0.9971 C.2        1 <1>        0.000
      3 O1         -3.4834    0.7773   -0.4084 O.2        1 <1>        0.000
      4 N2         -2.3824    2.3505   -1.5335 N.am       1 <1>        0.000
      5 C2         -0.1608    0.6323   -1.4336 C.2        1 <1>        0.000
      6 O2          0.5297    0.0260   -2.2353 O.2        1 <1>        0.000
      7 C3          0.4279    1.8279   -0.7851 C.2        1 <1>        0.000
      8 C4          1.7339    2.1223   -0.8231 C.2        1 <1>        0.000
      9 H          -1.5996   -0.7449   -1.0009 H.spc      1 <1>        0.000
     10 H          -3.1603    3.0035   -1.4401 H.spc      1 <1>        0.000
     11 H          -1.5367    2.6323   -2.0293 H.spc      1 <1>        0.000
     12 H          -0.2378    2.5039   -0.2484 H.spc      1 <1>        0.000
     13 H           2.4253    1.4661   -1.3517 H.spc      1 <1>        0.000
     14 H           2.1054    3.0181   -0.3254 H.spc      1 <1>        0.000
@<TRIPOS>BOND
     1    1    2 am 
     2    1    5 am 
     3    2    3 2  
     4    2    4 am 
     5    5    6 2  
     6    5    7 1  
     7    7    8 2  
     8    1    9 1  
     9    4   10 1  
    10    4   11 1  
    11    7   12 1  
    12    8   13 1  
    13    8   14 1  
# Name:          frag3-292-2/31924 -- energy: 1.223465
# Creation time: Sat Jun  5 12:52:46 2010


@<TRIPOS>MOLECULE
frag3-292-2/31924 -- energy: 1.223465
   14    13     1     1     1
SMALL
USER_CHARGES


@<TRIPOS>ATOM
      1 N1         -1.2516    1.3909   -0.6666 N.am       1 <1>        0.000
      2 C1         -2.5067    1.0124   -1.0205 C.2        1 <1>        0.000
      3 O1         -3.3836    0.8779   -0.1820 O.2        1 <1>        0.000
      4 N2         -2.7942    0.7788   -2.3238 N.am       1 <1>        0.000
      5 C2         -0.1615    1.2280   -1.4556 C.2        1 <1>        0.000
      6 O2         -0.1933    1.4392   -2.6577 O.2        1 <1>        0.000
      7 C3          1.1224    0.7803   -0.8689 C.2        1 <1>        0.000
      8 C4          1.9379    1.5842   -0.1748 C.2        1 <1>        0.000
      9 H          -1.1213    1.8237    0.2478 H.spc      1 <1>        0.000
     10 H          -3.7352    0.4938   -2.5953 H.spc      1 <1>        0.000
     11 H          -2.0696    0.8879   -3.0334 H.spc      1 <1>        0.000
     12 H           1.4194   -0.2590   -1.0096 H.spc      1 <1>        0.000
     13 H           1.6689    2.6286   -0.0170 H.spc      1 <1>        0.000
     14 H           2.8707    1.1942    0.2324 H.spc      1 <1>        0.000
@<TRIPOS>BOND
     1    1    2 am 
     2    1    5 am 
     3    2    3 2  
     4    2    4 am 
     5    5    6 2  
     6    5    7 1  
     7    7    8 2  
     8    1    9 1  
     9    4   10 1  
    10    4   11 1  
    11    7   12 1  
    12    8   13 1  
    13    8   14 1  
# Name:          frag3-292-2/31924 -- energy: -1.194630
# Creation time: Sat Jun  5 12:52:46 2010


@<TRIPOS>MOLECULE
frag3-292-2/31924 -- energy: -1.194630
   14    13     1     1     1
SMALL
USER_CHARGES


@<TRIPOS>ATOM
      1 N1         -1.6050    1.9083   -1.0150 N.am       1 <1>        0.000
      2 C1         -2.4158    0.8174   -1.0398 C.2        1 <1>        0.000
      3 O1         -3.4420    0.7758   -0.3902 O.2        1 <1>        0.000
      4 N2         -2.0660   -0.2477   -1.8082 N.am       1 <1>        0.000
      5 C2         -0.2775    1.8799   -1.2734 C.2        1 <1>        0.000
      6 O2          0.2553    2.6741   -2.0303 O.2        1 <1>        0.000
      7 C3          0.5827    0.8564   -0.6340 C.2        1 <1>        0.000
      8 C4          1.7376    0.4275   -1.1591 C.2        1 <1>        0.000
      9 H          -2.0259    2.8088   -0.7862 H.spc      1 <1>        0.000
     10 H          -2.6632   -1.0741   -1.8367 H.spc      1 <1>        0.000
     11 H          -1.2063   -0.2207   -2.3564 H.spc      1 <1>        0.000
     12 H           0.2578    0.4297    0.3149 H.spc      1 <1>        0.000
     13 H           2.0899    0.8347   -2.1068 H.spc      1 <1>        0.000
     14 H           2.3253   -0.3288   -0.6388 H.spc      1 <1>        0.000
@<TRIPOS>BOND
     1    1    2 am 
     2    1    5 am 
     3    2    3 2  
     4    2    4 am 
     5    5    6 2  
     6    5    7 1  
     7    7    8 2  
     8    1    9 1  
     9    4   10 1  
    10    4   11 1  
    11    7   12 1  
    12    8   13 1  
    13    8   14 1  
# Name:          frag3-292-2/31924 -- energy: -1.372110
# Creation time: Sat Jun  5 12:52:47 2010


@<TRIPOS>MOLECULE
frag3-292-2/31924 -- energy: -1.372110
   14    13     1     1     1
SMALL
USER_CHARGES


@<TRIPOS>ATOM
      1 N1         -1.3098    0.8231   -1.9975 N.am       1 <1>        0.000
      2 C1         -2.2102    0.9284   -0.9836 C.2        1 <1>        0.000
      3 O1         -2.3946    1.9871   -0.4150 O.2        1 <1>        0.000
      4 N2         -2.9073   -0.1713   -0.5971 N.am       1 <1>        0.000
      5 C2         -0.0828    1.3998   -1.9842 C.2        1 <1>        0.000
      6 O2          0.4805    1.7573   -3.0029 O.2        1 <1>        0.000
      7 C3          0.6186    1.6160   -0.6955 C.2        1 <1>        0.000
      8 C4          0.5748    0.7512    0.3259 C.2        1 <1>        0.000
      9 H          -1.5736    0.2771   -2.8177 H.spc      1 <1>        0.000
     10 H          -3.5809   -0.1060    0.1661 H.spc      1 <1>        0.000
     11 H          -2.7573   -1.0625   -1.0700 H.spc      1 <1>        0.000
     12 H           1.2017    2.5288   -0.5731 H.spc      1 <1>        0.000
     13 H           0.0006   -0.1708    0.2351 H.spc      1 <1>        0.000
     14 H           1.1134    0.9693    1.2481 H.spc      1 <1>        0.000
@<TRIPOS>BOND
     1    1    2 am 
     2    1    5 am 
     3    2    3 2  
     4    2    4 am 
     5    5    6 2  
     6    5    7 1  
     7    7    8 2  
     8    1    9 1  
     9    4   10 1  
    10    4   11 1  
    11    7   12 1  
    12    8   13 1  
    13    8   14 1  
