#      Rotatable Fragment
#      Build by yxyuan
#
# Name:          frag4-376-78/48856
# Creation time: Sat Jun  5 12:53:34 2010


@<TRIPOS>MOLECULE
frag4-376-78/48856
   12    12     1     1     1
SMALL
USER_CHARGES


@<TRIPOS>ATOM
      1 C12         3.0504    0.5155   -0.0918 C.3        1 <1>        0.000
      2 N3          4.2632    0.3781    0.6304 N.3        1 <1>        0.000
      3 C13         5.3720    0.7006   -0.1464 C.3        1 <1>        0.000
      4 O2          5.0031    1.0552   -1.3691 O.3        1 <1>        0.000
      5 C14         3.5861    0.9711   -1.4423 C.3        1 <1>        0.000
      6 H           2.3360    1.2032    0.3608 H.spc      1 <1>        0.000
      7 H           2.4491   -0.3927   -0.1327 H.spc      1 <1>        0.000
      8 H           4.3513   -0.5949    0.9236 H.spc      1 <1>        0.000
      9 H           6.0197   -0.1734   -0.2143 H.spc      1 <1>        0.000
     10 H           5.8960    1.5356    0.3186 H.spc      1 <1>        0.000
     11 H           3.1709    1.9470   -1.6939 H.spc      1 <1>        0.000
     12 H           3.2981    0.2568   -2.2136 H.spc      1 <1>        0.000
@<TRIPOS>BOND
     1    1    2 1  
     2    1    5 1  
     3    2    3 1  
     4    3    4 1  
     5    4    5 1  
     6    1    6 1  
     7    1    7 1  
     8    2    8 1  
     9    3    9 1  
    10    3   10 1  
    11    5   11 1  
    12    5   12 1  
# Name:          frag4-376-78/48856 -- energy: -0.556979
# Creation time: Sat Jun  5 12:53:34 2010


@<TRIPOS>MOLECULE
frag4-376-78/48856 -- energy: -0.556979
   12    12     1     1     1
SMALL
USER_CHARGES


@<TRIPOS>ATOM
      1 C12         3.0504    0.5155   -0.0918 C.3        1 <1>        0.000
      2 N3          4.2632    0.3781    0.6304 N.3        1 <1>        0.000
      3 C13         5.3720    0.7006   -0.1464 C.3        1 <1>        0.000
      4 O2          5.0031    1.0552   -1.3691 O.3        1 <1>        0.000
      5 C14         3.5861    0.9711   -1.4423 C.3        1 <1>        0.000
      6 H           2.3360    1.2032    0.3608 H.spc      1 <1>        0.000
      7 H           2.4491   -0.3927   -0.1327 H.spc      1 <1>        0.000
      8 H           4.3513   -0.5949    0.9236 H.spc      1 <1>        0.000
      9 H           6.0197   -0.1734   -0.2143 H.spc      1 <1>        0.000
     10 H           5.8960    1.5356    0.3186 H.spc      1 <1>        0.000
     11 H           3.1709    1.9470   -1.6939 H.spc      1 <1>        0.000
     12 H           3.2981    0.2568   -2.2136 H.spc      1 <1>        0.000
@<TRIPOS>BOND
     1    1    2 1  
     2    1    5 1  
     3    2    3 1  
     4    3    4 1  
     5    4    5 1  
     6    1    6 1  
     7    1    7 1  
     8    2    8 1  
     9    3    9 1  
    10    3   10 1  
    11    5   11 1  
    12    5   12 1  
