#      Rotatable Fragment
#      Build by yxyuan
#
# Name:          frag3-244-5/96164
# Creation time: Sat Jun  5 12:53:16 2010


@<TRIPOS>MOLECULE
frag3-244-5/96164
   14    13     1     1     1
SMALL
USER_CHARGES


@<TRIPOS>ATOM
      1 N3          3.2717   -0.5591   -0.2327 N.am       1 <1>        0.000
      2 C11         2.2084    0.2050    0.0645 C.2        1 <1>        0.000
      3 C12         2.4342    1.5958    0.5544 C.2        1 <1>        0.000
      4 O6          1.0761   -0.2589   -0.0753 O.2        1 <1>        0.000
      5 N4          3.5844    2.3076    0.5451 N.am       1 <1>        0.000
      6 C13         1.3256    2.1029    1.0951 C.2        1 <1>        0.000
      7 C14         4.8738    2.0354    0.2141 C.2        1 <1>        0.000
      8 O7          5.4016    1.0290   -0.2430 O.2        1 <1>        0.000
      9 H           3.1365   -1.5122   -0.5700 H.spc      1 <1>        0.000
     10 H           4.2146   -0.1865   -0.1212 H.spc      1 <1>        0.000
     11 H           3.4538    3.2694    0.8585 H.spc      1 <1>        0.000
     12 H           1.3407    3.1000    1.5352 H.spc      1 <1>        0.000
     13 H           0.4044    1.5203    1.0970 H.spc      1 <1>        0.000
     14 H           5.5631    2.8620    0.3865 H.spc      1 <1>        0.000
@<TRIPOS>BOND
     1    1    2 am 
     2    2    3 1  
     3    2    4 2  
     4    3    6 2  
     5    3    5 1  
     6    5    7 am 
     7    7    8 2  
     8    1    9 1  
     9    1   10 1  
    10    5   11 1  
    11    6   12 1  
    12    6   13 1  
    13    7   14 1  
# Name:          frag3-244-5/96164
# Creation time: Sat Jun  5 12:53:16 2010


@<TRIPOS>MOLECULE
frag3-244-5/96164
   14    13     1     1     1
SMALL
USER_CHARGES


@<TRIPOS>ATOM
      1 N3          1.0127   -0.1308   -0.9250 N.am       1 <1>        0.000
      2 C11         1.8551    0.0168    0.1296 C.2        1 <1>        0.000
      3 C12         2.7717    1.1855    0.2058 C.2        1 <1>        0.000
      4 O6          1.9509   -0.8393    0.9916 O.2        1 <1>        0.000
      5 N4          4.0485    0.9825    0.6024 N.am       1 <1>        0.000
      6 C13         2.2453    2.3893   -0.0433 C.2        1 <1>        0.000
      7 C14         5.1041    1.8487    0.6620 C.2        1 <1>        0.000
      8 O7          5.1873    3.0050    0.2990 O.2        1 <1>        0.000
      9 H           0.4425   -0.9724   -1.0083 H.spc      1 <1>        0.000
     10 H           0.9501    0.5999   -1.6339 H.spc      1 <1>        0.000
     11 H           4.2571    0.0311    0.9054 H.spc      1 <1>        0.000
     12 H           2.8557    3.2852    0.0704 H.spc      1 <1>        0.000
     13 H           1.2058    2.4746   -0.3601 H.spc      1 <1>        0.000
     14 H           6.0121    1.4383    1.1038 H.spc      1 <1>        0.000
@<TRIPOS>BOND
     1    1    2 am 
     2    2    3 1  
     3    2    4 2  
     4    3    6 2  
     5    3    5 1  
     6    5    7 am 
     7    7    8 2  
     8    1    9 1  
     9    1   10 1  
    10    5   11 1  
    11    6   12 1  
    12    6   13 1  
    13    7   14 1  
# Name:          frag3-244-5/96164
# Creation time: Sat Jun  5 12:53:16 2010


@<TRIPOS>MOLECULE
frag3-244-5/96164
   14    13     1     1     1
SMALL
USER_CHARGES


@<TRIPOS>ATOM
      1 N3          0.6517   -0.0162   -0.5702 N.am       1 <1>        0.000
      2 C11         1.8500    0.0497    0.0495 C.2        1 <1>        0.000
      3 C12         2.5595    1.3225    0.3457 C.2        1 <1>        0.000
      4 O6          2.4282   -0.9742    0.3874 O.2        1 <1>        0.000
      5 N4          3.9041    1.3143    0.1543 N.am       1 <1>        0.000
      6 C13         1.8823    2.3931    0.7910 C.2        1 <1>        0.000
      7 C14         4.8548    2.2122    0.5107 C.2        1 <1>        0.000
      8 O7          6.0453    2.1562    0.2537 O.2        1 <1>        0.000
      9 H           0.2242   -0.9229   -0.7587 H.spc      1 <1>        0.000
     10 H           0.1742    0.8407   -0.8496 H.spc      1 <1>        0.000
     11 H           4.2576    0.4954   -0.3405 H.spc      1 <1>        0.000
     12 H           2.4130    3.3175    1.0189 H.spc      1 <1>        0.000
     13 H           0.8019    2.3377    0.9245 H.spc      1 <1>        0.000
     14 H           4.5200    3.0745    1.0873 H.spc      1 <1>        0.000
@<TRIPOS>BOND
     1    1    2 am 
     2    2    3 1  
     3    2    4 2  
     4    3    6 2  
     5    3    5 1  
     6    5    7 am 
     7    7    8 2  
     8    1    9 1  
     9    1   10 1  
    10    5   11 1  
    11    6   12 1  
    12    6   13 1  
    13    7   14 1  
# Name:          frag3-244-5/96164
# Creation time: Sat Jun  5 12:53:16 2010


@<TRIPOS>MOLECULE
frag3-244-5/96164
   14    13     1     1     1
SMALL
USER_CHARGES


@<TRIPOS>ATOM
      1 N3          1.4499   -0.9129    0.9531 N.am       1 <1>        0.000
      2 C11         1.8517    0.0267    0.0654 C.2        1 <1>        0.000
      3 C12         2.8489    1.0595    0.4691 C.2        1 <1>        0.000
      4 O6          1.4885   -0.0012   -1.0953 O.2        1 <1>        0.000
      5 N4          3.9983    1.1711   -0.2344 N.am       1 <1>        0.000
      6 C13         2.5004    1.8666    1.4759 C.2        1 <1>        0.000
      7 C14         4.9743    2.1206   -0.1927 C.2        1 <1>        0.000
      8 O7          5.0638    3.1273    0.4810 O.2        1 <1>        0.000
      9 H           0.8294   -1.6651    0.6538 H.spc      1 <1>        0.000
     10 H           1.7676   -0.8687    1.9213 H.spc      1 <1>        0.000
     11 H           4.1613    0.4214   -0.9065 H.spc      1 <1>        0.000
     12 H           3.1618    2.6790    1.7771 H.spc      1 <1>        0.000
     13 H           1.5548    1.7124    1.9958 H.spc      1 <1>        0.000
     14 H           5.8086    1.9495   -0.8729 H.spc      1 <1>        0.000
@<TRIPOS>BOND
     1    1    2 am 
     2    2    3 1  
     3    2    4 2  
     4    3    6 2  
     5    3    5 1  
     6    5    7 am 
     7    7    8 2  
     8    1    9 1  
     9    1   10 1  
    10    5   11 1  
    11    6   12 1  
    12    6   13 1  
    13    7   14 1  
# Name:          frag3-244-5/96164
# Creation time: Sat Jun  5 12:53:16 2010


@<TRIPOS>MOLECULE
frag3-244-5/96164
   14    13     1     1     1
SMALL
USER_CHARGES


@<TRIPOS>ATOM
      1 N3          2.2163   -0.7087   -1.0341 N.am       1 <1>        0.000
      2 C11         1.8510    0.0066    0.0600 C.2        1 <1>        0.000
      3 C12         2.5637    1.2927    0.3418 C.2        1 <1>        0.000
      4 O6          0.9970   -0.3972    0.8367 O.2        1 <1>        0.000
      5 N4          3.9005    1.3345    0.3779 N.am       1 <1>        0.000
      6 C13         1.7832    2.3675    0.5549 C.2        1 <1>        0.000
      7 C14         4.8230    2.3180    0.4145 C.2        1 <1>        0.000
      8 O7          6.0411    2.2443    0.3705 O.2        1 <1>        0.000
      9 H           1.7753   -1.6082   -1.2259 H.spc      1 <1>        0.000
     10 H           2.9318   -0.3467   -1.6645 H.spc      1 <1>        0.000
     11 H           4.3204    0.4050    0.3777 H.spc      1 <1>        0.000
     12 H           2.2356    3.3355    0.7703 H.spc      1 <1>        0.000
     13 H           0.6984    2.2704    0.5121 H.spc      1 <1>        0.000
     14 H           4.4216    3.3282    0.4953 H.spc      1 <1>        0.000
@<TRIPOS>BOND
     1    1    2 am 
     2    2    3 1  
     3    2    4 2  
     4    3    6 2  
     5    3    5 1  
     6    5    7 am 
     7    7    8 2  
     8    1    9 1  
     9    1   10 1  
    10    5   11 1  
    11    6   12 1  
    12    6   13 1  
    13    7   14 1  
# Name:          frag3-244-5/96164
# Creation time: Sat Jun  5 12:53:16 2010


@<TRIPOS>MOLECULE
frag3-244-5/96164
   14    13     1     1     1
SMALL
USER_CHARGES


@<TRIPOS>ATOM
      1 N3          2.7474   -0.5986   -0.8219 N.am       1 <1>        0.000
      2 C11         2.0094    0.1022    0.0867 C.2        1 <1>        0.000
      3 C12         2.4250    1.5138    0.4528 C.2        1 <1>        0.000
      4 O6          0.9861   -0.3993    0.5486 O.2        1 <1>        0.000
      5 N4          3.6955    2.0425    0.3265 N.am       1 <1>        0.000
      6 C13         1.3923    2.2664    0.8526 C.2        1 <1>        0.000
      7 C14         4.9290    1.4704    0.3275 C.2        1 <1>        0.000
      8 O7          5.9912    2.0604    0.1494 O.2        1 <1>        0.000
      9 H           2.4487   -1.5297   -1.1121 H.spc      1 <1>        0.000
     10 H           3.5978   -0.1914   -1.2110 H.spc      1 <1>        0.000
     11 H           3.7109    3.0557    0.2103 H.spc      1 <1>        0.000
     12 H           1.5442    3.3201    1.0864 H.spc      1 <1>        0.000
     13 H           0.3997    1.8253    0.9442 H.spc      1 <1>        0.000
     14 H           4.9794    0.3955    0.5014 H.spc      1 <1>        0.000
@<TRIPOS>BOND
     1    1    2 am 
     2    2    3 1  
     3    2    4 2  
     4    3    6 2  
     5    3    5 1  
     6    5    7 am 
     7    7    8 2  
     8    1    9 1  
     9    1   10 1  
    10    5   11 1  
    11    6   12 1  
    12    6   13 1  
    13    7   14 1  
# Name:          frag3-244-5/96164
# Creation time: Sat Jun  5 12:53:16 2010


@<TRIPOS>MOLECULE
frag3-244-5/96164
   14    13     1     1     1
SMALL
USER_CHARGES


@<TRIPOS>ATOM
      1 N3          2.6558   -0.9550    0.6892 N.am       1 <1>        0.000
      2 C11         2.0933    0.1499    0.1364 C.2        1 <1>        0.000
      3 C12         2.4198    1.4804    0.7012 C.2        1 <1>        0.000
      4 O6          1.4248    0.0727   -0.8877 O.2        1 <1>        0.000
      5 N4          3.6411    2.0135    0.4918 N.am       1 <1>        0.000
      6 C13         1.4335    2.1215    1.3440 C.2        1 <1>        0.000
      7 C14         4.7380    1.5027   -0.0971 C.2        1 <1>        0.000
      8 O7          5.7697    2.0721   -0.4556 O.2        1 <1>        0.000
      9 H           2.5249   -1.8671    0.2518 H.spc      1 <1>        0.000
     10 H           3.2094   -0.8731    1.5420 H.spc      1 <1>        0.000
     11 H           3.7521    2.9661    0.8390 H.spc      1 <1>        0.000
     12 H           1.5978    3.1279    1.7290 H.spc      1 <1>        0.000
     13 H           0.4672    1.6364    1.4817 H.spc      1 <1>        0.000
     14 H           4.7093    0.4292   -0.2840 H.spc      1 <1>        0.000
@<TRIPOS>BOND
     1    1    2 am 
     2    2    3 1  
     3    2    4 2  
     4    3    6 2  
     5    3    5 1  
     6    5    7 am 
     7    7    8 2  
     8    1    9 1  
     9    1   10 1  
    10    5   11 1  
    11    6   12 1  
    12    6   13 1  
    13    7   14 1  
# Name:          frag3-244-5/96164
# Creation time: Sat Jun  5 12:53:16 2010


@<TRIPOS>MOLECULE
frag3-244-5/96164
   14    13     1     1     1
SMALL
USER_CHARGES


@<TRIPOS>ATOM
      1 N3          1.4318   -0.9204    0.9732 N.am       1 <1>        0.000
      2 C11         1.8872    0.0131    0.1121 C.2        1 <1>        0.000
      3 C12         2.5900    1.2545    0.5338 C.2        1 <1>        0.000
      4 O6          1.7326   -0.1292   -1.0940 O.2        1 <1>        0.000
      5 N4          3.7656    1.5181   -0.0874 N.am       1 <1>        0.000
      6 C13         2.0655    2.0393    1.4885 C.2        1 <1>        0.000
      7 C14         4.8471    2.2242    0.3195 C.2        1 <1>        0.000
      8 O7          5.8561    2.4582   -0.3236 O.2        1 <1>        0.000
      9 H           0.9556   -1.7506    0.6205 H.spc      1 <1>        0.000
     10 H           1.5637   -0.7960    1.9769 H.spc      1 <1>        0.000
     11 H           3.8500    1.1158   -1.0209 H.spc      1 <1>        0.000
     12 H           2.5901    2.9422    1.8009 H.spc      1 <1>        0.000
     13 H           1.1150    1.7735    1.9512 H.spc      1 <1>        0.000
     14 H           4.8117    2.6270    1.3317 H.spc      1 <1>        0.000
@<TRIPOS>BOND
     1    1    2 am 
     2    2    3 1  
     3    2    4 2  
     4    3    6 2  
     5    3    5 1  
     6    5    7 am 
     7    7    8 2  
     8    1    9 1  
     9    1   10 1  
    10    5   11 1  
    11    6   12 1  
    12    6   13 1  
    13    7   14 1  
# Name:          frag3-244-5/96164
# Creation time: Sat Jun  5 12:53:16 2010


@<TRIPOS>MOLECULE
frag3-244-5/96164
   14    13     1     1     1
SMALL
USER_CHARGES


@<TRIPOS>ATOM
      1 N3          2.2538   -0.9735   -0.8077 N.am       1 <1>        0.000
      2 C11         1.8954   -0.0294    0.0987 C.2        1 <1>        0.000
      3 C12         2.7574    1.1762    0.2542 C.2        1 <1>        0.000
      4 O6          0.9248   -0.1933    0.8281 O.2        1 <1>        0.000
      5 N4          4.0840    1.0306    0.5031 N.am       1 <1>        0.000
      6 C13         2.1295    2.3489    0.1872 C.2        1 <1>        0.000
      7 C14         5.0680    1.9606    0.5777 C.2        1 <1>        0.000
      8 O7          5.0629    3.1377    0.2809 O.2        1 <1>        0.000
      9 H           1.7125   -1.8342   -0.8887 H.spc      1 <1>        0.000
     10 H           3.0645   -0.8225   -1.4080 H.spc      1 <1>        0.000
     11 H           4.3887    0.0697    0.6586 H.spc      1 <1>        0.000
     12 H           2.6857    3.2743    0.3370 H.spc      1 <1>        0.000
     13 H           1.0594    2.3832   -0.0174 H.spc      1 <1>        0.000
     14 H           6.0169    1.5916    0.9671 H.spc      1 <1>        0.000
@<TRIPOS>BOND
     1    1    2 am 
     2    2    3 1  
     3    2    4 2  
     4    3    6 2  
     5    3    5 1  
     6    5    7 am 
     7    7    8 2  
     8    1    9 1  
     9    1   10 1  
    10    5   11 1  
    11    6   12 1  
    12    6   13 1  
    13    7   14 1  
# Name:          frag3-244-5/96164
# Creation time: Sat Jun  5 12:53:16 2010


@<TRIPOS>MOLECULE
frag3-244-5/96164
   14    13     1     1     1
SMALL
USER_CHARGES


@<TRIPOS>ATOM
      1 N3          2.9130   -0.8281    0.7146 N.am       1 <1>        0.000
      2 C11         2.3526    0.2393    0.0921 C.2        1 <1>        0.000
      3 C12         2.4329    1.5879    0.7372 C.2        1 <1>        0.000
      4 O6          1.8152    0.1360   -1.0088 O.2        1 <1>        0.000
      5 N4          3.5377    2.3621    0.5685 N.am       1 <1>        0.000
      6 C13         1.3603    1.9522    1.4378 C.2        1 <1>        0.000
      7 C14         4.6964    2.0293   -0.0546 C.2        1 <1>        0.000
      8 O7          5.0678    0.9791   -0.5647 O.2        1 <1>        0.000
      9 H           2.8951   -1.7455    0.2692 H.spc      1 <1>        0.000
     10 H           3.3522   -0.7131    1.6280 H.spc      1 <1>        0.000
     11 H           3.4900    3.3044    0.9561 H.spc      1 <1>        0.000
     12 H           1.3312    2.9285    1.9217 H.spc      1 <1>        0.000
     13 H           0.5116    1.2741    1.5273 H.spc      1 <1>        0.000
     14 H           5.4245    2.8384   -0.1112 H.spc      1 <1>        0.000
@<TRIPOS>BOND
     1    1    2 am 
     2    2    3 1  
     3    2    4 2  
     4    3    6 2  
     5    3    5 1  
     6    5    7 am 
     7    7    8 2  
     8    1    9 1  
     9    1   10 1  
    10    5   11 1  
    11    6   12 1  
    12    6   13 1  
    13    7   14 1  
# Name:          frag3-244-5/96164
# Creation time: Sat Jun  5 12:53:16 2010


@<TRIPOS>MOLECULE
frag3-244-5/96164
   14    13     1     1     1
SMALL
USER_CHARGES


@<TRIPOS>ATOM
      1 N3          1.1631   -0.1827   -0.8266 N.am       1 <1>        0.000
      2 C11         2.1151    0.1683    0.0533 C.2        1 <1>        0.000
      3 C12         2.3569    1.5708    0.4955 C.2        1 <1>        0.000
      4 O6          2.8714   -0.6761    0.5252 O.2        1 <1>        0.000
      5 N4          3.6487    1.9426    0.6210 N.am       1 <1>        0.000
      6 C13         1.3191    2.3777    0.7621 C.2        1 <1>        0.000
      7 C14         4.7760    1.4506    0.0456 C.2        1 <1>        0.000
      8 O7          5.9255    1.8065    0.2460 O.2        1 <1>        0.000
      9 H           1.0636   -1.1580   -1.1083 H.spc      1 <1>        0.000
     10 H           0.5396    0.5260   -1.2131 H.spc      1 <1>        0.000
     11 H           3.8043    2.7258    1.2556 H.spc      1 <1>        0.000
     12 H           1.4955    3.3984    1.1016 H.spc      1 <1>        0.000
     13 H           0.2994    2.0127    0.6393 H.spc      1 <1>        0.000
     14 H           4.6382    0.6465   -0.6773 H.spc      1 <1>        0.000
@<TRIPOS>BOND
     1    1    2 am 
     2    2    3 1  
     3    2    4 2  
     4    3    6 2  
     5    3    5 1  
     6    5    7 am 
     7    7    8 2  
     8    1    9 1  
     9    1   10 1  
    10    5   11 1  
    11    6   12 1  
    12    6   13 1  
    13    7   14 1  
# Name:          frag3-244-5/96164
# Creation time: Sat Jun  5 12:53:16 2010


@<TRIPOS>MOLECULE
frag3-244-5/96164
   14    13     1     1     1
SMALL
USER_CHARGES


@<TRIPOS>ATOM
      1 N3          2.4576   -1.1989    0.3094 N.am       1 <1>        0.000
      2 C11         1.8565   -0.0120    0.0848 C.2        1 <1>        0.000
      3 C12         2.5799    1.2483    0.4786 C.2        1 <1>        0.000
      4 O6          0.7644    0.0723   -0.4645 O.2        1 <1>        0.000
      5 N4          3.8342    1.4622    0.0319 N.am       1 <1>        0.000
      6 C13         1.9151    2.1196    1.2574 C.2        1 <1>        0.000
      7 C14         4.8092    2.3538    0.3213 C.2        1 <1>        0.000
      8 O7          5.9587    2.4123   -0.0967 O.2        1 <1>        0.000
      9 H           2.0023   -2.0642    0.0190 H.spc      1 <1>        0.000
     10 H           3.3673   -1.2309    0.7696 H.spc      1 <1>        0.000
     11 H           4.1117    0.7984   -0.6911 H.spc      1 <1>        0.000
     12 H           2.3895    3.0537    1.5581 H.spc      1 <1>        0.000
     13 H           0.9017    1.8918    1.5880 H.spc      1 <1>        0.000
     14 H           4.5312    3.1340    1.0299 H.spc      1 <1>        0.000
@<TRIPOS>BOND
     1    1    2 am 
     2    2    3 1  
     3    2    4 2  
     4    3    6 2  
     5    3    5 1  
     6    5    7 am 
     7    7    8 2  
     8    1    9 1  
     9    1   10 1  
    10    5   11 1  
    11    6   12 1  
    12    6   13 1  
    13    7   14 1  
# Name:          frag3-244-5/96164
# Creation time: Sat Jun  5 12:53:16 2010


@<TRIPOS>MOLECULE
frag3-244-5/96164
   14    13     1     1     1
SMALL
USER_CHARGES


@<TRIPOS>ATOM
      1 N3          2.1800   -0.0759   -1.2647 N.am       1 <1>        0.000
      2 C11         2.3600    0.2516    0.0430 C.2        1 <1>        0.000
      3 C12         2.3607    1.7008    0.4348 C.2        1 <1>        0.000
      4 O6          2.5547   -0.5942    0.8985 O.2        1 <1>        0.000
      5 N4          3.5509    2.3536    0.5806 N.am       1 <1>        0.000
      6 C13         1.1706    2.2517    0.6647 C.2        1 <1>        0.000
      7 C14         4.8023    1.8265    0.4811 C.2        1 <1>        0.000
      8 O7          5.1967    0.7438    0.0841 O.2        1 <1>        0.000
      9 H           2.2059   -1.0537   -1.5538 H.spc      1 <1>        0.000
     10 H           2.0191    0.6563   -1.9563 H.spc      1 <1>        0.000
     11 H           3.4963    3.3508    0.7879 H.spc      1 <1>        0.000
     12 H           1.1044    3.2894    0.9918 H.spc      1 <1>        0.000
     13 H           0.2625    1.6651    0.5258 H.spc      1 <1>        0.000
     14 H           5.5955    2.4941    0.8176 H.spc      1 <1>        0.000
@<TRIPOS>BOND
     1    1    2 am 
     2    2    3 1  
     3    2    4 2  
     4    3    6 2  
     5    3    5 1  
     6    5    7 am 
     7    7    8 2  
     8    1    9 1  
     9    1   10 1  
    10    5   11 1  
    11    6   12 1  
    12    6   13 1  
    13    7   14 1  
# Name:          frag3-244-5/96164
# Creation time: Sat Jun  5 12:53:16 2010


@<TRIPOS>MOLECULE
frag3-244-5/96164
   14    13     1     1     1
SMALL
USER_CHARGES


@<TRIPOS>ATOM
      1 N3          2.9500   -0.2375   -1.0392 N.am       1 <1>        0.000
      2 C11         2.1916    0.2042   -0.0052 C.2        1 <1>        0.000
      3 C12         2.4258    1.6343    0.4299 C.2        1 <1>        0.000
      4 O6          1.3648   -0.5191    0.5496 O.2        1 <1>        0.000
      5 N4          3.5585    2.3531    0.1777 N.am       1 <1>        0.000
      6 C13         1.3958    2.1243    1.1377 C.2        1 <1>        0.000
      7 C14         4.8716    1.9798    0.2047 C.2        1 <1>        0.000
      8 O7          5.4177    0.9186    0.4670 O.2        1 <1>        0.000
      9 H           2.8435   -1.1937   -1.3778 H.spc      1 <1>        0.000
     10 H           3.6269    0.3866   -1.4783 H.spc      1 <1>        0.000
     11 H           3.3976    3.3289   -0.0718 H.spc      1 <1>        0.000
     12 H           1.4426    3.1369    1.5385 H.spc      1 <1>        0.000
     13 H           0.5126    1.5096    1.3117 H.spc      1 <1>        0.000
     14 H           5.5638    2.7800   -0.0574 H.spc      1 <1>        0.000
@<TRIPOS>BOND
     1    1    2 am 
     2    2    3 1  
     3    2    4 2  
     4    3    6 2  
     5    3    5 1  
     6    5    7 am 
     7    7    8 2  
     8    1    9 1  
     9    1   10 1  
    10    5   11 1  
    11    6   12 1  
    12    6   13 1  
    13    7   14 1  
# Name:          frag3-244-5/96164
# Creation time: Sat Jun  5 12:53:16 2010


@<TRIPOS>MOLECULE
frag3-244-5/96164
   14    13     1     1     1
SMALL
USER_CHARGES


@<TRIPOS>ATOM
      1 N3          2.4191   -1.2881    0.3243 N.am       1 <1>        0.000
      2 C11         1.9226   -0.0408    0.1197 C.2        1 <1>        0.000
      3 C12         2.7816    1.1320    0.4602 C.2        1 <1>        0.000
      4 O6          0.8070    0.1098   -0.3711 O.2        1 <1>        0.000
      5 N4          4.1349    1.0546    0.3673 N.am       1 <1>        0.000
      6 C13         2.1203    2.2338    0.8117 C.2        1 <1>        0.000
      7 C14         5.0531    2.0200    0.1382 C.2        1 <1>        0.000
      8 O7          4.9373    3.2364    0.0717 O.2        1 <1>        0.000
      9 H           1.8648   -2.1057    0.0700 H.spc      1 <1>        0.000
     10 H           3.3463   -1.4073    0.7323 H.spc      1 <1>        0.000
     11 H           4.5197    0.1180    0.4901 H.spc      1 <1>        0.000
     12 H           2.6679    3.1468    1.0458 H.spc      1 <1>        0.000
     13 H           1.0317    2.2223    0.8652 H.spc      1 <1>        0.000
     14 H           6.0682    1.6528   -0.0128 H.spc      1 <1>        0.000
@<TRIPOS>BOND
     1    1    2 am 
     2    2    3 1  
     3    2    4 2  
     4    3    6 2  
     5    3    5 1  
     6    5    7 am 
     7    7    8 2  
     8    1    9 1  
     9    1   10 1  
    10    5   11 1  
    11    6   12 1  
    12    6   13 1  
    13    7   14 1  
# Name:          frag3-244-5/96164
# Creation time: Sat Jun  5 12:53:16 2010


@<TRIPOS>MOLECULE
frag3-244-5/96164
   14    13     1     1     1
SMALL
USER_CHARGES


@<TRIPOS>ATOM
      1 N3          2.4381   -0.8128   -0.9693 N.am       1 <1>        0.000
      2 C11         1.9160    0.0320   -0.0445 C.2        1 <1>        0.000
      3 C12         2.6767    1.2837    0.2720 C.2        1 <1>        0.000
      4 O6          0.8601   -0.2257    0.5244 O.2        1 <1>        0.000
      5 N4          3.8324    1.5786   -0.3777 N.am       1 <1>        0.000
      6 C13         2.1542    2.0668    1.2200 C.2        1 <1>        0.000
      7 C14         4.9625    2.1698    0.0730 C.2        1 <1>        0.000
      8 O7          5.3358    2.3654    1.2243 O.2        1 <1>        0.000
      9 H           1.9514   -1.6786   -1.2015 H.spc      1 <1>        0.000
     10 H           3.3172   -0.5820   -1.4322 H.spc      1 <1>        0.000
     11 H           3.8511    1.3118   -1.3620 H.spc      1 <1>        0.000
     12 H           2.6591    2.9903    1.5035 H.spc      1 <1>        0.000
     13 H           1.2230    1.7822    1.7099 H.spc      1 <1>        0.000
     14 H           5.6417    2.5248   -0.7021 H.spc      1 <1>        0.000
@<TRIPOS>BOND
     1    1    2 am 
     2    2    3 1  
     3    2    4 2  
     4    3    6 2  
     5    3    5 1  
     6    5    7 am 
     7    7    8 2  
     8    1    9 1  
     9    1   10 1  
    10    5   11 1  
    11    6   12 1  
    12    6   13 1  
    13    7   14 1  
# Name:          frag3-244-5/96164
# Creation time: Sat Jun  5 12:53:17 2010


@<TRIPOS>MOLECULE
frag3-244-5/96164
   14    13     1     1     1
SMALL
USER_CHARGES


@<TRIPOS>ATOM
      1 N3          1.3272   -0.7979    0.8491 N.am       1 <1>        0.000
      2 C11         1.9133    0.1040    0.0152 C.2        1 <1>        0.000
      3 C12         2.6874    1.2682    0.5186 C.2        1 <1>        0.000
      4 O6          1.8432   -0.0601   -1.2086 O.2        1 <1>        0.000
      5 N4          3.4268    2.0072   -0.3406 N.am       1 <1>        0.000
      6 C13         2.6127    1.5600    1.8241 C.2        1 <1>        0.000
      7 C14         4.7555    2.3274   -0.2862 C.2        1 <1>        0.000
      8 O7          5.6098    2.0490    0.5505 O.2        1 <1>        0.000
      9 H           0.8339   -1.6032    0.4638 H.spc      1 <1>        0.000
     10 H           1.3813   -0.6685    1.8594 H.spc      1 <1>        0.000
     11 H           2.9206    2.3789   -1.1443 H.spc      1 <1>        0.000
     12 H           3.1578    2.4153    2.2234 H.spc      1 <1>        0.000
     13 H           2.0069    0.9421    2.4869 H.spc      1 <1>        0.000
     14 H           5.1145    2.9277   -1.1221 H.spc      1 <1>        0.000
@<TRIPOS>BOND
     1    1    2 am 
     2    2    3 1  
     3    2    4 2  
     4    3    6 2  
     5    3    5 1  
     6    5    7 am 
     7    7    8 2  
     8    1    9 1  
     9    1   10 1  
    10    5   11 1  
    11    6   12 1  
    12    6   13 1  
    13    7   14 1  
# Name:          frag3-244-5/96164 -- energy: -0.989638
# Creation time: Sat Jun  5 12:53:17 2010


@<TRIPOS>MOLECULE
frag3-244-5/96164 -- energy: -0.989638
   14    13     1     1     1
SMALL
USER_CHARGES


@<TRIPOS>ATOM
      1 N3          1.0127   -0.1308   -0.9250 N.am       1 <1>        0.000
      2 C11         1.8551    0.0168    0.1296 C.2        1 <1>        0.000
      3 C12         2.7717    1.1855    0.2058 C.2        1 <1>        0.000
      4 O6          1.9509   -0.8393    0.9916 O.2        1 <1>        0.000
      5 N4          4.0485    0.9825    0.6024 N.am       1 <1>        0.000
      6 C13         2.2453    2.3893   -0.0433 C.2        1 <1>        0.000
      7 C14         5.1041    1.8487    0.6620 C.2        1 <1>        0.000
      8 O7          5.1873    3.0050    0.2990 O.2        1 <1>        0.000
      9 H           0.4425   -0.9724   -1.0083 H.spc      1 <1>        0.000
     10 H           0.9501    0.5999   -1.6339 H.spc      1 <1>        0.000
     11 H           4.2571    0.0311    0.9054 H.spc      1 <1>        0.000
     12 H           2.8557    3.2852    0.0704 H.spc      1 <1>        0.000
     13 H           1.2058    2.4746   -0.3601 H.spc      1 <1>        0.000
     14 H           6.0121    1.4383    1.1038 H.spc      1 <1>        0.000
@<TRIPOS>BOND
     1    1    2 am 
     2    2    3 1  
     3    2    4 2  
     4    3    6 2  
     5    3    5 1  
     6    5    7 am 
     7    7    8 2  
     8    1    9 1  
     9    1   10 1  
    10    5   11 1  
    11    6   12 1  
    12    6   13 1  
    13    7   14 1  
# Name:          frag3-244-5/96164 -- energy: -1.032124
# Creation time: Sat Jun  5 12:53:17 2010


@<TRIPOS>MOLECULE
frag3-244-5/96164 -- energy: -1.032124
   14    13     1     1     1
SMALL
USER_CHARGES


@<TRIPOS>ATOM
      1 N3          0.6517   -0.0162   -0.5702 N.am       1 <1>        0.000
      2 C11         1.8500    0.0497    0.0495 C.2        1 <1>        0.000
      3 C12         2.5595    1.3225    0.3457 C.2        1 <1>        0.000
      4 O6          2.4282   -0.9742    0.3874 O.2        1 <1>        0.000
      5 N4          3.9041    1.3143    0.1543 N.am       1 <1>        0.000
      6 C13         1.8823    2.3931    0.7910 C.2        1 <1>        0.000
      7 C14         4.8548    2.2122    0.5107 C.2        1 <1>        0.000
      8 O7          6.0453    2.1562    0.2537 O.2        1 <1>        0.000
      9 H           0.2242   -0.9229   -0.7587 H.spc      1 <1>        0.000
     10 H           0.1742    0.8407   -0.8496 H.spc      1 <1>        0.000
     11 H           4.2576    0.4954   -0.3405 H.spc      1 <1>        0.000
     12 H           2.4130    3.3175    1.0189 H.spc      1 <1>        0.000
     13 H           0.8019    2.3377    0.9245 H.spc      1 <1>        0.000
     14 H           4.5200    3.0745    1.0873 H.spc      1 <1>        0.000
@<TRIPOS>BOND
     1    1    2 am 
     2    2    3 1  
     3    2    4 2  
     4    3    6 2  
     5    3    5 1  
     6    5    7 am 
     7    7    8 2  
     8    1    9 1  
     9    1   10 1  
    10    5   11 1  
    11    6   12 1  
    12    6   13 1  
    13    7   14 1  
# Name:          frag3-244-5/96164 -- energy: -1.084678
# Creation time: Sat Jun  5 12:53:17 2010


@<TRIPOS>MOLECULE
frag3-244-5/96164 -- energy: -1.084678
   14    13     1     1     1
SMALL
USER_CHARGES


@<TRIPOS>ATOM
      1 N3          1.4499   -0.9129    0.9531 N.am       1 <1>        0.000
      2 C11         1.8517    0.0267    0.0654 C.2        1 <1>        0.000
      3 C12         2.8489    1.0595    0.4691 C.2        1 <1>        0.000
      4 O6          1.4885   -0.0012   -1.0953 O.2        1 <1>        0.000
      5 N4          3.9983    1.1711   -0.2344 N.am       1 <1>        0.000
      6 C13         2.5004    1.8666    1.4759 C.2        1 <1>        0.000
      7 C14         4.9743    2.1206   -0.1927 C.2        1 <1>        0.000
      8 O7          5.0638    3.1273    0.4810 O.2        1 <1>        0.000
      9 H           0.8294   -1.6651    0.6538 H.spc      1 <1>        0.000
     10 H           1.7676   -0.8687    1.9213 H.spc      1 <1>        0.000
     11 H           4.1613    0.4214   -0.9065 H.spc      1 <1>        0.000
     12 H           3.1618    2.6790    1.7771 H.spc      1 <1>        0.000
     13 H           1.5548    1.7124    1.9958 H.spc      1 <1>        0.000
     14 H           5.8086    1.9495   -0.8729 H.spc      1 <1>        0.000
@<TRIPOS>BOND
     1    1    2 am 
     2    2    3 1  
     3    2    4 2  
     4    3    6 2  
     5    3    5 1  
     6    5    7 am 
     7    7    8 2  
     8    1    9 1  
     9    1   10 1  
    10    5   11 1  
    11    6   12 1  
    12    6   13 1  
    13    7   14 1  
# Name:          frag3-244-5/96164 -- energy: -1.187861
# Creation time: Sat Jun  5 12:53:17 2010


@<TRIPOS>MOLECULE
frag3-244-5/96164 -- energy: -1.187861
   14    13     1     1     1
SMALL
USER_CHARGES


@<TRIPOS>ATOM
      1 N3          2.2163   -0.7087   -1.0341 N.am       1 <1>        0.000
      2 C11         1.8510    0.0066    0.0600 C.2        1 <1>        0.000
      3 C12         2.5637    1.2927    0.3418 C.2        1 <1>        0.000
      4 O6          0.9970   -0.3972    0.8367 O.2        1 <1>        0.000
      5 N4          3.9005    1.3345    0.3779 N.am       1 <1>        0.000
      6 C13         1.7832    2.3675    0.5549 C.2        1 <1>        0.000
      7 C14         4.8230    2.3180    0.4145 C.2        1 <1>        0.000
      8 O7          6.0411    2.2443    0.3705 O.2        1 <1>        0.000
      9 H           1.7753   -1.6082   -1.2259 H.spc      1 <1>        0.000
     10 H           2.9318   -0.3467   -1.6645 H.spc      1 <1>        0.000
     11 H           4.3204    0.4050    0.3777 H.spc      1 <1>        0.000
     12 H           2.2356    3.3355    0.7703 H.spc      1 <1>        0.000
     13 H           0.6984    2.2704    0.5121 H.spc      1 <1>        0.000
     14 H           4.4216    3.3282    0.4953 H.spc      1 <1>        0.000
@<TRIPOS>BOND
     1    1    2 am 
     2    2    3 1  
     3    2    4 2  
     4    3    6 2  
     5    3    5 1  
     6    5    7 am 
     7    7    8 2  
     8    1    9 1  
     9    1   10 1  
    10    5   11 1  
    11    6   12 1  
    12    6   13 1  
    13    7   14 1  
# Name:          frag3-244-5/96164 -- energy: -0.965180
# Creation time: Sat Jun  5 12:53:17 2010


@<TRIPOS>MOLECULE
frag3-244-5/96164 -- energy: -0.965180
   14    13     1     1     1
SMALL
USER_CHARGES


@<TRIPOS>ATOM
      1 N3          2.7474   -0.5986   -0.8219 N.am       1 <1>        0.000
      2 C11         2.0094    0.1022    0.0867 C.2        1 <1>        0.000
      3 C12         2.4250    1.5138    0.4528 C.2        1 <1>        0.000
      4 O6          0.9861   -0.3993    0.5486 O.2        1 <1>        0.000
      5 N4          3.6955    2.0425    0.3265 N.am       1 <1>        0.000
      6 C13         1.3923    2.2664    0.8526 C.2        1 <1>        0.000
      7 C14         4.9290    1.4704    0.3275 C.2        1 <1>        0.000
      8 O7          5.9912    2.0604    0.1494 O.2        1 <1>        0.000
      9 H           2.4487   -1.5297   -1.1121 H.spc      1 <1>        0.000
     10 H           3.5978   -0.1914   -1.2110 H.spc      1 <1>        0.000
     11 H           3.7109    3.0557    0.2103 H.spc      1 <1>        0.000
     12 H           1.5442    3.3201    1.0864 H.spc      1 <1>        0.000
     13 H           0.3997    1.8253    0.9442 H.spc      1 <1>        0.000
     14 H           4.9794    0.3955    0.5014 H.spc      1 <1>        0.000
@<TRIPOS>BOND
     1    1    2 am 
     2    2    3 1  
     3    2    4 2  
     4    3    6 2  
     5    3    5 1  
     6    5    7 am 
     7    7    8 2  
     8    1    9 1  
     9    1   10 1  
    10    5   11 1  
    11    6   12 1  
    12    6   13 1  
    13    7   14 1  
# Name:          frag3-244-5/96164 -- energy: -1.333202
# Creation time: Sat Jun  5 12:53:17 2010


@<TRIPOS>MOLECULE
frag3-244-5/96164 -- energy: -1.333202
   14    13     1     1     1
SMALL
USER_CHARGES


@<TRIPOS>ATOM
      1 N3          2.6558   -0.9550    0.6892 N.am       1 <1>        0.000
      2 C11         2.0933    0.1499    0.1364 C.2        1 <1>        0.000
      3 C12         2.4198    1.4804    0.7012 C.2        1 <1>        0.000
      4 O6          1.4248    0.0727   -0.8877 O.2        1 <1>        0.000
      5 N4          3.6411    2.0135    0.4918 N.am       1 <1>        0.000
      6 C13         1.4335    2.1215    1.3440 C.2        1 <1>        0.000
      7 C14         4.7380    1.5027   -0.0971 C.2        1 <1>        0.000
      8 O7          5.7697    2.0721   -0.4556 O.2        1 <1>        0.000
      9 H           2.5249   -1.8671    0.2518 H.spc      1 <1>        0.000
     10 H           3.2094   -0.8731    1.5420 H.spc      1 <1>        0.000
     11 H           3.7521    2.9661    0.8390 H.spc      1 <1>        0.000
     12 H           1.5978    3.1279    1.7290 H.spc      1 <1>        0.000
     13 H           0.4672    1.6364    1.4817 H.spc      1 <1>        0.000
     14 H           4.7093    0.4292   -0.2840 H.spc      1 <1>        0.000
@<TRIPOS>BOND
     1    1    2 am 
     2    2    3 1  
     3    2    4 2  
     4    3    6 2  
     5    3    5 1  
     6    5    7 am 
     7    7    8 2  
     8    1    9 1  
     9    1   10 1  
    10    5   11 1  
    11    6   12 1  
    12    6   13 1  
    13    7   14 1  
# Name:          frag3-244-5/96164 -- energy: -1.159850
# Creation time: Sat Jun  5 12:53:17 2010


@<TRIPOS>MOLECULE
frag3-244-5/96164 -- energy: -1.159850
   14    13     1     1     1
SMALL
USER_CHARGES


@<TRIPOS>ATOM
      1 N3          1.4318   -0.9204    0.9732 N.am       1 <1>        0.000
      2 C11         1.8872    0.0131    0.1121 C.2        1 <1>        0.000
      3 C12         2.5900    1.2545    0.5338 C.2        1 <1>        0.000
      4 O6          1.7326   -0.1292   -1.0940 O.2        1 <1>        0.000
      5 N4          3.7656    1.5181   -0.0874 N.am       1 <1>        0.000
      6 C13         2.0655    2.0393    1.4885 C.2        1 <1>        0.000
      7 C14         4.8471    2.2242    0.3195 C.2        1 <1>        0.000
      8 O7          5.8561    2.4582   -0.3236 O.2        1 <1>        0.000
      9 H           0.9556   -1.7506    0.6205 H.spc      1 <1>        0.000
     10 H           1.5637   -0.7960    1.9769 H.spc      1 <1>        0.000
     11 H           3.8500    1.1158   -1.0209 H.spc      1 <1>        0.000
     12 H           2.5901    2.9422    1.8009 H.spc      1 <1>        0.000
     13 H           1.1150    1.7735    1.9512 H.spc      1 <1>        0.000
     14 H           4.8117    2.6270    1.3317 H.spc      1 <1>        0.000
@<TRIPOS>BOND
     1    1    2 am 
     2    2    3 1  
     3    2    4 2  
     4    3    6 2  
     5    3    5 1  
     6    5    7 am 
     7    7    8 2  
     8    1    9 1  
     9    1   10 1  
    10    5   11 1  
    11    6   12 1  
    12    6   13 1  
    13    7   14 1  
# Name:          frag3-244-5/96164 -- energy: -1.106119
# Creation time: Sat Jun  5 12:53:17 2010


@<TRIPOS>MOLECULE
frag3-244-5/96164 -- energy: -1.106119
   14    13     1     1     1
SMALL
USER_CHARGES


@<TRIPOS>ATOM
      1 N3          2.2538   -0.9735   -0.8077 N.am       1 <1>        0.000
      2 C11         1.8954   -0.0294    0.0987 C.2        1 <1>        0.000
      3 C12         2.7574    1.1762    0.2542 C.2        1 <1>        0.000
      4 O6          0.9248   -0.1933    0.8281 O.2        1 <1>        0.000
      5 N4          4.0840    1.0306    0.5031 N.am       1 <1>        0.000
      6 C13         2.1295    2.3489    0.1872 C.2        1 <1>        0.000
      7 C14         5.0680    1.9606    0.5777 C.2        1 <1>        0.000
      8 O7          5.0629    3.1377    0.2809 O.2        1 <1>        0.000
      9 H           1.7125   -1.8342   -0.8887 H.spc      1 <1>        0.000
     10 H           3.0645   -0.8225   -1.4080 H.spc      1 <1>        0.000
     11 H           4.3887    0.0697    0.6586 H.spc      1 <1>        0.000
     12 H           2.6857    3.2743    0.3370 H.spc      1 <1>        0.000
     13 H           1.0594    2.3832   -0.0174 H.spc      1 <1>        0.000
     14 H           6.0169    1.5916    0.9671 H.spc      1 <1>        0.000
@<TRIPOS>BOND
     1    1    2 am 
     2    2    3 1  
     3    2    4 2  
     4    3    6 2  
     5    3    5 1  
     6    5    7 am 
     7    7    8 2  
     8    1    9 1  
     9    1   10 1  
    10    5   11 1  
    11    6   12 1  
    12    6   13 1  
    13    7   14 1  
# Name:          frag3-244-5/96164 -- energy: -1.376004
# Creation time: Sat Jun  5 12:53:17 2010


@<TRIPOS>MOLECULE
frag3-244-5/96164 -- energy: -1.376004
   14    13     1     1     1
SMALL
USER_CHARGES


@<TRIPOS>ATOM
      1 N3          2.9130   -0.8281    0.7146 N.am       1 <1>        0.000
      2 C11         2.3526    0.2393    0.0921 C.2        1 <1>        0.000
      3 C12         2.4329    1.5879    0.7372 C.2        1 <1>        0.000
      4 O6          1.8152    0.1360   -1.0088 O.2        1 <1>        0.000
      5 N4          3.5377    2.3621    0.5685 N.am       1 <1>        0.000
      6 C13         1.3603    1.9522    1.4378 C.2        1 <1>        0.000
      7 C14         4.6964    2.0293   -0.0546 C.2        1 <1>        0.000
      8 O7          5.0678    0.9791   -0.5647 O.2        1 <1>        0.000
      9 H           2.8951   -1.7455    0.2692 H.spc      1 <1>        0.000
     10 H           3.3522   -0.7131    1.6280 H.spc      1 <1>        0.000
     11 H           3.4900    3.3044    0.9561 H.spc      1 <1>        0.000
     12 H           1.3312    2.9285    1.9217 H.spc      1 <1>        0.000
     13 H           0.5116    1.2741    1.5273 H.spc      1 <1>        0.000
     14 H           5.4245    2.8384   -0.1112 H.spc      1 <1>        0.000
@<TRIPOS>BOND
     1    1    2 am 
     2    2    3 1  
     3    2    4 2  
     4    3    6 2  
     5    3    5 1  
     6    5    7 am 
     7    7    8 2  
     8    1    9 1  
     9    1   10 1  
    10    5   11 1  
    11    6   12 1  
    12    6   13 1  
    13    7   14 1  
# Name:          frag3-244-5/96164 -- energy: -1.123594
# Creation time: Sat Jun  5 12:53:17 2010


@<TRIPOS>MOLECULE
frag3-244-5/96164 -- energy: -1.123594
   14    13     1     1     1
SMALL
USER_CHARGES


@<TRIPOS>ATOM
      1 N3          1.1631   -0.1827   -0.8266 N.am       1 <1>        0.000
      2 C11         2.1151    0.1683    0.0533 C.2        1 <1>        0.000
      3 C12         2.3569    1.5708    0.4955 C.2        1 <1>        0.000
      4 O6          2.8714   -0.6761    0.5252 O.2        1 <1>        0.000
      5 N4          3.6487    1.9426    0.6210 N.am       1 <1>        0.000
      6 C13         1.3191    2.3777    0.7621 C.2        1 <1>        0.000
      7 C14         4.7760    1.4506    0.0456 C.2        1 <1>        0.000
      8 O7          5.9255    1.8065    0.2460 O.2        1 <1>        0.000
      9 H           1.0636   -1.1580   -1.1083 H.spc      1 <1>        0.000
     10 H           0.5396    0.5260   -1.2131 H.spc      1 <1>        0.000
     11 H           3.8043    2.7258    1.2556 H.spc      1 <1>        0.000
     12 H           1.4955    3.3984    1.1016 H.spc      1 <1>        0.000
     13 H           0.2994    2.0127    0.6393 H.spc      1 <1>        0.000
     14 H           4.6382    0.6465   -0.6773 H.spc      1 <1>        0.000
@<TRIPOS>BOND
     1    1    2 am 
     2    2    3 1  
     3    2    4 2  
     4    3    6 2  
     5    3    5 1  
     6    5    7 am 
     7    7    8 2  
     8    1    9 1  
     9    1   10 1  
    10    5   11 1  
    11    6   12 1  
    12    6   13 1  
    13    7   14 1  
# Name:          frag3-244-5/96164 -- energy: -1.203290
# Creation time: Sat Jun  5 12:53:17 2010


@<TRIPOS>MOLECULE
frag3-244-5/96164 -- energy: -1.203290
   14    13     1     1     1
SMALL
USER_CHARGES


@<TRIPOS>ATOM
      1 N3          2.4576   -1.1989    0.3094 N.am       1 <1>        0.000
      2 C11         1.8565   -0.0120    0.0848 C.2        1 <1>        0.000
      3 C12         2.5799    1.2483    0.4786 C.2        1 <1>        0.000
      4 O6          0.7644    0.0723   -0.4645 O.2        1 <1>        0.000
      5 N4          3.8342    1.4622    0.0319 N.am       1 <1>        0.000
      6 C13         1.9151    2.1196    1.2574 C.2        1 <1>        0.000
      7 C14         4.8092    2.3538    0.3213 C.2        1 <1>        0.000
      8 O7          5.9587    2.4123   -0.0967 O.2        1 <1>        0.000
      9 H           2.0023   -2.0642    0.0190 H.spc      1 <1>        0.000
     10 H           3.3673   -1.2309    0.7696 H.spc      1 <1>        0.000
     11 H           4.1117    0.7984   -0.6911 H.spc      1 <1>        0.000
     12 H           2.3895    3.0537    1.5581 H.spc      1 <1>        0.000
     13 H           0.9017    1.8918    1.5880 H.spc      1 <1>        0.000
     14 H           4.5312    3.1340    1.0299 H.spc      1 <1>        0.000
@<TRIPOS>BOND
     1    1    2 am 
     2    2    3 1  
     3    2    4 2  
     4    3    6 2  
     5    3    5 1  
     6    5    7 am 
     7    7    8 2  
     8    1    9 1  
     9    1   10 1  
    10    5   11 1  
    11    6   12 1  
    12    6   13 1  
    13    7   14 1  
# Name:          frag3-244-5/96164 -- energy: -1.335569
# Creation time: Sat Jun  5 12:53:17 2010


@<TRIPOS>MOLECULE
frag3-244-5/96164 -- energy: -1.335569
   14    13     1     1     1
SMALL
USER_CHARGES


@<TRIPOS>ATOM
      1 N3          2.1800   -0.0759   -1.2647 N.am       1 <1>        0.000
      2 C11         2.3600    0.2516    0.0430 C.2        1 <1>        0.000
      3 C12         2.3607    1.7008    0.4348 C.2        1 <1>        0.000
      4 O6          2.5547   -0.5942    0.8985 O.2        1 <1>        0.000
      5 N4          3.5509    2.3536    0.5806 N.am       1 <1>        0.000
      6 C13         1.1706    2.2517    0.6647 C.2        1 <1>        0.000
      7 C14         4.8023    1.8265    0.4811 C.2        1 <1>        0.000
      8 O7          5.1967    0.7438    0.0841 O.2        1 <1>        0.000
      9 H           2.2059   -1.0537   -1.5538 H.spc      1 <1>        0.000
     10 H           2.0191    0.6563   -1.9563 H.spc      1 <1>        0.000
     11 H           3.4963    3.3508    0.7879 H.spc      1 <1>        0.000
     12 H           1.1044    3.2894    0.9918 H.spc      1 <1>        0.000
     13 H           0.2625    1.6651    0.5258 H.spc      1 <1>        0.000
     14 H           5.5955    2.4941    0.8176 H.spc      1 <1>        0.000
@<TRIPOS>BOND
     1    1    2 am 
     2    2    3 1  
     3    2    4 2  
     4    3    6 2  
     5    3    5 1  
     6    5    7 am 
     7    7    8 2  
     8    1    9 1  
     9    1   10 1  
    10    5   11 1  
    11    6   12 1  
    12    6   13 1  
    13    7   14 1  
# Name:          frag3-244-5/96164 -- energy: -1.075011
# Creation time: Sat Jun  5 12:53:17 2010


@<TRIPOS>MOLECULE
frag3-244-5/96164 -- energy: -1.075011
   14    13     1     1     1
SMALL
USER_CHARGES


@<TRIPOS>ATOM
      1 N3          2.9500   -0.2375   -1.0392 N.am       1 <1>        0.000
      2 C11         2.1916    0.2042   -0.0052 C.2        1 <1>        0.000
      3 C12         2.4258    1.6343    0.4299 C.2        1 <1>        0.000
      4 O6          1.3648   -0.5191    0.5496 O.2        1 <1>        0.000
      5 N4          3.5585    2.3531    0.1777 N.am       1 <1>        0.000
      6 C13         1.3958    2.1243    1.1377 C.2        1 <1>        0.000
      7 C14         4.8716    1.9798    0.2047 C.2        1 <1>        0.000
      8 O7          5.4177    0.9186    0.4670 O.2        1 <1>        0.000
      9 H           2.8435   -1.1937   -1.3778 H.spc      1 <1>        0.000
     10 H           3.6269    0.3866   -1.4783 H.spc      1 <1>        0.000
     11 H           3.3976    3.3289   -0.0718 H.spc      1 <1>        0.000
     12 H           1.4426    3.1369    1.5385 H.spc      1 <1>        0.000
     13 H           0.5126    1.5096    1.3117 H.spc      1 <1>        0.000
     14 H           5.5638    2.7800   -0.0574 H.spc      1 <1>        0.000
@<TRIPOS>BOND
     1    1    2 am 
     2    2    3 1  
     3    2    4 2  
     4    3    6 2  
     5    3    5 1  
     6    5    7 am 
     7    7    8 2  
     8    1    9 1  
     9    1   10 1  
    10    5   11 1  
    11    6   12 1  
    12    6   13 1  
    13    7   14 1  
# Name:          frag3-244-5/96164 -- energy: -0.747998
# Creation time: Sat Jun  5 12:53:17 2010


@<TRIPOS>MOLECULE
frag3-244-5/96164 -- energy: -0.747998
   14    13     1     1     1
SMALL
USER_CHARGES


@<TRIPOS>ATOM
      1 N3          2.4191   -1.2881    0.3243 N.am       1 <1>        0.000
      2 C11         1.9226   -0.0408    0.1197 C.2        1 <1>        0.000
      3 C12         2.7816    1.1320    0.4602 C.2        1 <1>        0.000
      4 O6          0.8070    0.1098   -0.3711 O.2        1 <1>        0.000
      5 N4          4.1349    1.0546    0.3673 N.am       1 <1>        0.000
      6 C13         2.1203    2.2338    0.8117 C.2        1 <1>        0.000
      7 C14         5.0531    2.0200    0.1382 C.2        1 <1>        0.000
      8 O7          4.9373    3.2364    0.0717 O.2        1 <1>        0.000
      9 H           1.8648   -2.1057    0.0700 H.spc      1 <1>        0.000
     10 H           3.3463   -1.4073    0.7323 H.spc      1 <1>        0.000
     11 H           4.5197    0.1180    0.4901 H.spc      1 <1>        0.000
     12 H           2.6679    3.1468    1.0458 H.spc      1 <1>        0.000
     13 H           1.0317    2.2223    0.8652 H.spc      1 <1>        0.000
     14 H           6.0682    1.6528   -0.0128 H.spc      1 <1>        0.000
@<TRIPOS>BOND
     1    1    2 am 
     2    2    3 1  
     3    2    4 2  
     4    3    6 2  
     5    3    5 1  
     6    5    7 am 
     7    7    8 2  
     8    1    9 1  
     9    1   10 1  
    10    5   11 1  
    11    6   12 1  
    12    6   13 1  
    13    7   14 1  
# Name:          frag3-244-5/96164 -- energy: -0.748728
# Creation time: Sat Jun  5 12:53:17 2010


@<TRIPOS>MOLECULE
frag3-244-5/96164 -- energy: -0.748728
   14    13     1     1     1
SMALL
USER_CHARGES


@<TRIPOS>ATOM
      1 N3          2.4381   -0.8128   -0.9693 N.am       1 <1>        0.000
      2 C11         1.9160    0.0320   -0.0445 C.2        1 <1>        0.000
      3 C12         2.6767    1.2837    0.2720 C.2        1 <1>        0.000
      4 O6          0.8601   -0.2257    0.5244 O.2        1 <1>        0.000
      5 N4          3.8324    1.5786   -0.3777 N.am       1 <1>        0.000
      6 C13         2.1542    2.0668    1.2200 C.2        1 <1>        0.000
      7 C14         4.9625    2.1698    0.0730 C.2        1 <1>        0.000
      8 O7          5.3358    2.3654    1.2243 O.2        1 <1>        0.000
      9 H           1.9514   -1.6786   -1.2015 H.spc      1 <1>        0.000
     10 H           3.3172   -0.5820   -1.4322 H.spc      1 <1>        0.000
     11 H           3.8511    1.3118   -1.3620 H.spc      1 <1>        0.000
     12 H           2.6591    2.9903    1.5035 H.spc      1 <1>        0.000
     13 H           1.2230    1.7822    1.7099 H.spc      1 <1>        0.000
     14 H           5.6417    2.5248   -0.7021 H.spc      1 <1>        0.000
@<TRIPOS>BOND
     1    1    2 am 
     2    2    3 1  
     3    2    4 2  
     4    3    6 2  
     5    3    5 1  
     6    5    7 am 
     7    7    8 2  
     8    1    9 1  
     9    1   10 1  
    10    5   11 1  
    11    6   12 1  
    12    6   13 1  
    13    7   14 1  
# Name:          frag3-244-5/96164 -- energy: -0.476265
# Creation time: Sat Jun  5 12:53:17 2010


@<TRIPOS>MOLECULE
frag3-244-5/96164 -- energy: -0.476265
   14    13     1     1     1
SMALL
USER_CHARGES


@<TRIPOS>ATOM
      1 N3          1.3272   -0.7979    0.8491 N.am       1 <1>        0.000
      2 C11         1.9133    0.1040    0.0152 C.2        1 <1>        0.000
      3 C12         2.6874    1.2682    0.5186 C.2        1 <1>        0.000
      4 O6          1.8432   -0.0601   -1.2086 O.2        1 <1>        0.000
      5 N4          3.4268    2.0072   -0.3406 N.am       1 <1>        0.000
      6 C13         2.6127    1.5600    1.8241 C.2        1 <1>        0.000
      7 C14         4.7555    2.3274   -0.2862 C.2        1 <1>        0.000
      8 O7          5.6098    2.0490    0.5505 O.2        1 <1>        0.000
      9 H           0.8339   -1.6032    0.4638 H.spc      1 <1>        0.000
     10 H           1.3813   -0.6685    1.8594 H.spc      1 <1>        0.000
     11 H           2.9206    2.3789   -1.1443 H.spc      1 <1>        0.000
     12 H           3.1578    2.4153    2.2234 H.spc      1 <1>        0.000
     13 H           2.0069    0.9421    2.4869 H.spc      1 <1>        0.000
     14 H           5.1145    2.9277   -1.1221 H.spc      1 <1>        0.000
@<TRIPOS>BOND
     1    1    2 am 
     2    2    3 1  
     3    2    4 2  
     4    3    6 2  
     5    3    5 1  
     6    5    7 am 
     7    7    8 2  
     8    1    9 1  
     9    1   10 1  
    10    5   11 1  
    11    6   12 1  
    12    6   13 1  
    13    7   14 1  
