#      Rotatable Fragment
#      Build by yxyuan
#
# Name:          frag3-211-7/96164
# Creation time: Sat Jun  5 12:53:11 2010


@<TRIPOS>MOLECULE
frag3-211-7/96164
    9     8     1     1     1
SMALL
USER_CHARGES


@<TRIPOS>ATOM
      1 N1         -1.5832   -0.2372    0.0719 N.am       1 <1>        0.000
      2 C11        -0.4345    0.4659    0.2753 C.2        1 <1>        0.000
      3 C12         0.8123    0.1233   -0.5110 C.2        1 <1>        0.000
      4 O3         -0.2727    1.3823    1.0554 O.2        1 <1>        0.000
      5 O4          1.8256    0.9643   -0.5224 O.3        1 <1>        0.000
      6 O5          0.7811   -0.9506   -1.0712 O.2        1 <1>        0.000
      7 H          -2.4221   -0.0089    0.6053 H.spc      1 <1>        0.000
      8 H          -1.6045   -0.9920   -0.6138 H.spc      1 <1>        0.000
      9 H           1.6012    1.7410   -0.0048 H.spc      1 <1>        0.000
@<TRIPOS>BOND
     1    1    2 am 
     2    2    3 1  
     3    2    4 2  
     4    3    5 1  
     5    3    6 2  
     6    1    7 1  
     7    1    8 1  
     8    5    9 1  
# Name:          frag3-211-7/96164
# Creation time: Sat Jun  5 12:53:11 2010


@<TRIPOS>MOLECULE
frag3-211-7/96164
    9     8     1     1     1
SMALL
USER_CHARGES


@<TRIPOS>ATOM
      1 N1         -1.5723    0.7200   -0.4042 N.am       1 <1>        0.000
      2 C11        -0.4377    0.4447    0.3009 C.2        1 <1>        0.000
      3 C12         0.8313    0.1161   -0.4907 C.2        1 <1>        0.000
      4 O3         -0.2802    0.4176    1.5100 O.2        1 <1>        0.000
      5 O4          1.1767    0.9494   -1.4503 O.3        1 <1>        0.000
      6 O5          1.4108   -0.8999   -0.1677 O.2        1 <1>        0.000
      7 H          -2.4379    0.9403    0.0882 H.spc      1 <1>        0.000
      8 H          -1.5552    0.7055   -1.4240 H.spc      1 <1>        0.000
      9 H           0.5431    1.6695   -1.4906 H.spc      1 <1>        0.000
@<TRIPOS>BOND
     1    1    2 am 
     2    2    3 1  
     3    2    4 2  
     4    3    5 1  
     5    3    6 2  
     6    1    7 1  
     7    1    8 1  
     8    5    9 1  
# Name:          frag3-211-7/96164
# Creation time: Sat Jun  5 12:53:11 2010


@<TRIPOS>MOLECULE
frag3-211-7/96164
    9     8     1     1     1
SMALL
USER_CHARGES


@<TRIPOS>ATOM
      1 N1         -1.2626   -0.5417    0.6495 N.am       1 <1>        0.000
      2 C11        -0.4562    0.4998    0.2701 C.2        1 <1>        0.000
      3 C12         0.8132    0.1335   -0.5504 C.2        1 <1>        0.000
      4 O3         -0.5631    1.6913    0.4878 O.2        1 <1>        0.000
      5 O4          1.9801    0.4510    0.0208 O.3        1 <1>        0.000
      6 O5          0.6173   -0.4858   -1.5800 O.2        1 <1>        0.000
      7 H          -2.1007   -0.3625    1.2026 H.spc      1 <1>        0.000
      8 H          -1.0246   -1.4959    0.3787 H.spc      1 <1>        0.000
      9 H           1.8163    0.9443    0.8279 H.spc      1 <1>        0.000
@<TRIPOS>BOND
     1    1    2 am 
     2    2    3 1  
     3    2    4 2  
     4    3    5 1  
     5    3    6 2  
     6    1    7 1  
     7    1    8 1  
     8    5    9 1  
# Name:          frag3-211-7/96164 -- energy: 0.325918
# Creation time: Sat Jun  5 12:53:11 2010


@<TRIPOS>MOLECULE
frag3-211-7/96164 -- energy: 0.325918
    9     8     1     1     1
SMALL
USER_CHARGES


@<TRIPOS>ATOM
      1 N1         -1.5832   -0.2372    0.0719 N.am       1 <1>        0.000
      2 C11        -0.4345    0.4659    0.2753 C.2        1 <1>        0.000
      3 C12         0.8123    0.1233   -0.5110 C.2        1 <1>        0.000
      4 O3         -0.2727    1.3823    1.0554 O.2        1 <1>        0.000
      5 O4          1.8256    0.9643   -0.5224 O.3        1 <1>        0.000
      6 O5          0.7811   -0.9506   -1.0712 O.2        1 <1>        0.000
      7 H          -2.4221   -0.0089    0.6053 H.spc      1 <1>        0.000
      8 H          -1.6045   -0.9920   -0.6138 H.spc      1 <1>        0.000
      9 H           1.6012    1.7410   -0.0048 H.spc      1 <1>        0.000
@<TRIPOS>BOND
     1    1    2 am 
     2    2    3 1  
     3    2    4 2  
     4    3    5 1  
     5    3    6 2  
     6    1    7 1  
     7    1    8 1  
     8    5    9 1  
# Name:          frag3-211-7/96164 -- energy: -0.364388
# Creation time: Sat Jun  5 12:53:11 2010


@<TRIPOS>MOLECULE
frag3-211-7/96164 -- energy: -0.364388
    9     8     1     1     1
SMALL
USER_CHARGES


@<TRIPOS>ATOM
      1 N1         -1.5723    0.7200   -0.4042 N.am       1 <1>        0.000
      2 C11        -0.4377    0.4447    0.3009 C.2        1 <1>        0.000
      3 C12         0.8313    0.1161   -0.4907 C.2        1 <1>        0.000
      4 O3         -0.2802    0.4176    1.5100 O.2        1 <1>        0.000
      5 O4          1.1767    0.9494   -1.4503 O.3        1 <1>        0.000
      6 O5          1.4108   -0.8999   -0.1677 O.2        1 <1>        0.000
      7 H          -2.4379    0.9403    0.0882 H.spc      1 <1>        0.000
      8 H          -1.5552    0.7055   -1.4240 H.spc      1 <1>        0.000
      9 H           0.5431    1.6695   -1.4906 H.spc      1 <1>        0.000
@<TRIPOS>BOND
     1    1    2 am 
     2    2    3 1  
     3    2    4 2  
     4    3    5 1  
     5    3    6 2  
     6    1    7 1  
     7    1    8 1  
     8    5    9 1  
# Name:          frag3-211-7/96164 -- energy: -0.360653
# Creation time: Sat Jun  5 12:53:11 2010


@<TRIPOS>MOLECULE
frag3-211-7/96164 -- energy: -0.360653
    9     8     1     1     1
SMALL
USER_CHARGES


@<TRIPOS>ATOM
      1 N1         -1.2626   -0.5417    0.6495 N.am       1 <1>        0.000
      2 C11        -0.4562    0.4998    0.2701 C.2        1 <1>        0.000
      3 C12         0.8132    0.1335   -0.5504 C.2        1 <1>        0.000
      4 O3         -0.5631    1.6913    0.4878 O.2        1 <1>        0.000
      5 O4          1.9801    0.4510    0.0208 O.3        1 <1>        0.000
      6 O5          0.6173   -0.4858   -1.5800 O.2        1 <1>        0.000
      7 H          -2.1007   -0.3625    1.2026 H.spc      1 <1>        0.000
      8 H          -1.0246   -1.4959    0.3787 H.spc      1 <1>        0.000
      9 H           1.8163    0.9443    0.8279 H.spc      1 <1>        0.000
@<TRIPOS>BOND
     1    1    2 am 
     2    2    3 1  
     3    2    4 2  
     4    3    5 1  
     5    3    6 2  
     6    1    7 1  
     7    1    8 1  
     8    5    9 1  
