#      Rotatable Fragment
#      Build by yxyuan
#
# Name:          frag5-651-74/138278
# Creation time: Sat Jun  5 12:53:50 2010


@<TRIPOS>MOLECULE
frag5-651-74/138278
   11    11     1     1     1
SMALL
USER_CHARGES


@<TRIPOS>ATOM
      1 N1          1.0874   -0.8055   -0.0194 N.ar       1 <1>        0.000
      2 C8          1.3337    0.4373    0.0787 C.ar       1 <1>        0.000
      3 C9         -0.2114   -1.3478   -0.0882 C.ar       1 <1>        0.000
      4 C12         0.1773    1.3246    0.0901 C.ar       1 <1>        0.000
      5 O3          2.3908    0.9512    0.1297 O.2        1 <1>        0.000
      6 C13        -1.2928   -0.5577   -0.0649 C.ar       1 <1>        0.000
      7 C16        -1.0935    0.8650   -0.0046 C.ar       1 <1>        0.000
      8 H          -0.3381   -2.4279   -0.1616 H.spc      1 <1>        0.000
      9 H           0.3413    2.3986    0.1782 H.spc      1 <1>        0.000
     10 H          -2.2966   -0.9817   -0.0909 H.spc      1 <1>        0.000
     11 H          -1.9388    1.5525   -0.0342 H.spc      1 <1>        0.000
@<TRIPOS>BOND
     1    1    2 ar 
     2    1    3 ar 
     3    2    4 ar 
     4    2    5 2  
     5    3    6 ar 
     6    4    7 ar 
     7    6    7 ar 
     8    3    8 1  
     9    4    9 1  
    10    6   10 1  
    11    7   11 1  
# Name:          frag5-651-74/138278 -- energy: 0.194429
# Creation time: Sat Jun  5 12:53:50 2010


@<TRIPOS>MOLECULE
frag5-651-74/138278 -- energy: 0.194429
   11    11     1     1     1
SMALL
USER_CHARGES


@<TRIPOS>ATOM
      1 N1          1.0874   -0.8055   -0.0194 N.ar       1 <1>        0.000
      2 C8          1.3337    0.4373    0.0787 C.ar       1 <1>        0.000
      3 C9         -0.2114   -1.3478   -0.0882 C.ar       1 <1>        0.000
      4 C12         0.1773    1.3246    0.0901 C.ar       1 <1>        0.000
      5 O3          2.3908    0.9512    0.1297 O.2        1 <1>        0.000
      6 C13        -1.2928   -0.5577   -0.0649 C.ar       1 <1>        0.000
      7 C16        -1.0935    0.8650   -0.0046 C.ar       1 <1>        0.000
      8 H          -0.3381   -2.4279   -0.1616 H.spc      1 <1>        0.000
      9 H           0.3413    2.3986    0.1782 H.spc      1 <1>        0.000
     10 H          -2.2966   -0.9817   -0.0909 H.spc      1 <1>        0.000
     11 H          -1.9388    1.5525   -0.0342 H.spc      1 <1>        0.000
@<TRIPOS>BOND
     1    1    2 ar 
     2    1    3 ar 
     3    2    4 ar 
     4    2    5 2  
     5    3    6 ar 
     6    4    7 ar 
     7    6    7 ar 
     8    3    8 1  
     9    4    9 1  
    10    6   10 1  
    11    7   11 1  
