#      Rotatable Fragment
#      Build by yxyuan
#
# Name:          frag4-314-956/150395
# Creation time: Sat Jun  5 12:53:30 2010


@<TRIPOS>MOLECULE
frag4-314-956/150395
    8     8     1     1     1
SMALL
USER_CHARGES


@<TRIPOS>ATOM
      1 N1          0.2673   -1.2142    0.1595 N.2        1 <1>        0.000
      2 C14         0.9112    0.1656    0.4607 C.2        1 <1>        0.000
      3 N2         -1.0129   -1.0020   -0.1438 N.2        1 <1>        0.000
      4 N3         -0.0296    1.0274    0.3248 N.2        1 <1>        0.000
      5 C16        -1.2780    0.4070    0.0209 C.3        1 <1>        0.000
      6 H           1.9485    0.3619    0.7317 H.spc      1 <1>        0.000
      7 H          -1.9996    0.5752    0.8203 H.spc      1 <1>        0.000
      8 H          -1.7103    0.8291   -0.8863 H.spc      1 <1>        0.000
@<TRIPOS>BOND
     1    1    2 1  
     2    1    3 2  
     3    2    4 2  
     4    3    5 1  
     5    4    5 1  
     6    2    6 1  
     7    5    7 1  
     8    5    8 1  
# Name:          frag4-314-956/150395 -- energy: -0.165073
# Creation time: Sat Jun  5 12:53:30 2010


@<TRIPOS>MOLECULE
frag4-314-956/150395 -- energy: -0.165073
    8     8     1     1     1
SMALL
USER_CHARGES


@<TRIPOS>ATOM
      1 N1          0.2673   -1.2142    0.1595 N.2        1 <1>        0.000
      2 C14         0.9112    0.1656    0.4607 C.2        1 <1>        0.000
      3 N2         -1.0129   -1.0020   -0.1438 N.2        1 <1>        0.000
      4 N3         -0.0296    1.0274    0.3248 N.2        1 <1>        0.000
      5 C16        -1.2780    0.4070    0.0209 C.3        1 <1>        0.000
      6 H           1.9485    0.3619    0.7317 H.spc      1 <1>        0.000
      7 H          -1.9996    0.5752    0.8203 H.spc      1 <1>        0.000
      8 H          -1.7103    0.8291   -0.8863 H.spc      1 <1>        0.000
@<TRIPOS>BOND
     1    1    2 1  
     2    1    3 2  
     3    2    4 2  
     4    3    5 1  
     5    4    5 1  
     6    2    6 1  
     7    5    7 1  
     8    5    8 1  
