#      Rotatable Fragment
#      Build by yxyuan
#
# Name:          frag4-389-247/150395
# Creation time: Sat Jun  5 12:53:33 2010


@<TRIPOS>MOLECULE
frag4-389-247/150395
   10    10     1     1     1
SMALL
USER_CHARGES


@<TRIPOS>ATOM
      1 N2          0.8845   -0.9947   -0.6781 N.ar       1 <1>        0.000
      2 C13         1.2356   -0.1234    0.1583 C.ar       1 <1>        0.000
      3 N3         -0.4493   -1.1443   -1.0808 N.ar       1 <1>        0.000
      4 C14         0.3029    0.7997    0.7038 C.ar       1 <1>        0.000
      5 C15        -1.2994   -0.3347   -0.5256 C.ar       1 <1>        0.000
      6 C16        -1.0051    0.7730    0.4148 C.ar       1 <1>        0.000
      7 H           2.2785   -0.0753    0.4717 H.spc      1 <1>        0.000
      8 H           0.6685    1.5647    1.3889 H.spc      1 <1>        0.000
      9 H          -2.3484   -0.4868   -0.7798 H.spc      1 <1>        0.000
     10 H          -1.7461    1.4658    0.8136 H.spc      1 <1>        0.000
@<TRIPOS>BOND
     1    1    2 ar 
     2    1    3 ar 
     3    2    4 ar 
     4    3    5 ar 
     5    4    6 ar 
     6    5    6 ar 
     7    2    7 1  
     8    4    8 1  
     9    5    9 1  
    10    6   10 1  
# Name:          frag4-389-247/150395 -- energy: 0.500358
# Creation time: Sat Jun  5 12:53:33 2010


@<TRIPOS>MOLECULE
frag4-389-247/150395 -- energy: 0.500358
   10    10     1     1     1
SMALL
USER_CHARGES


@<TRIPOS>ATOM
      1 N2          0.8845   -0.9947   -0.6781 N.ar       1 <1>        0.000
      2 C13         1.2356   -0.1234    0.1583 C.ar       1 <1>        0.000
      3 N3         -0.4493   -1.1443   -1.0808 N.ar       1 <1>        0.000
      4 C14         0.3029    0.7997    0.7038 C.ar       1 <1>        0.000
      5 C15        -1.2994   -0.3347   -0.5256 C.ar       1 <1>        0.000
      6 C16        -1.0051    0.7730    0.4148 C.ar       1 <1>        0.000
      7 H           2.2785   -0.0753    0.4717 H.spc      1 <1>        0.000
      8 H           0.6685    1.5647    1.3889 H.spc      1 <1>        0.000
      9 H          -2.3484   -0.4868   -0.7798 H.spc      1 <1>        0.000
     10 H          -1.7461    1.4658    0.8136 H.spc      1 <1>        0.000
@<TRIPOS>BOND
     1    1    2 ar 
     2    1    3 ar 
     3    2    4 ar 
     4    3    5 ar 
     5    4    6 ar 
     6    5    6 ar 
     7    2    7 1  
     8    4    8 1  
     9    5    9 1  
    10    6   10 1  
