#      Rotatable Fragment
#      Build by yxyuan
#
# Name:          frag4-352-121/48856
# Creation time: Sat Jun  5 12:53:07 2010


@<TRIPOS>MOLECULE
frag4-352-121/48856
   16    17     1     1     1
SMALL
USER_CHARGES


@<TRIPOS>ATOM
      1 C14         2.5686    0.2040   -0.0453 C.2        1 <1>        0.000
      2 O1          1.7528    1.2062   -0.1428 O.3        1 <1>        0.000
      3 C15         0.4605    0.8048   -0.0882 C.ar       1 <1>        0.000
      4 C16         0.3840   -0.6429    0.0633 C.ar       1 <1>        0.000
      5 C17         1.7685   -1.0795    0.0823 C.3        1 <1>        0.000
      6 C18        -0.8292   -1.2909    0.1425 C.ar       1 <1>        0.000
      7 C19        -1.9902   -0.5218    0.0741 C.ar       1 <1>        0.000
      8 C20        -1.9208    0.8927   -0.0741 C.ar       1 <1>        0.000
      9 C21        -0.6866    1.5607   -0.1560 C.ar       1 <1>        0.000
     10 H           3.6564    0.2720   -0.0536 H.spc      1 <1>        0.000
     11 H           2.0136   -1.6269    0.9925 H.spc      1 <1>        0.000
     12 H           1.9883   -1.7816   -0.7220 H.spc      1 <1>        0.000
     13 H          -0.8800   -2.3738    0.2554 H.spc      1 <1>        0.000
     14 H          -2.9631   -1.0095    0.1348 H.spc      1 <1>        0.000
     15 H          -2.8441    1.4697   -0.1251 H.spc      1 <1>        0.000
     16 H          -0.6401    2.6438   -0.2697 H.spc      1 <1>        0.000
@<TRIPOS>BOND
     1    8    9 ar 
     2    1    2 2  
     3    1    5 1  
     4    2    3 1  
     5    3    4 ar 
     6    4    5 1  
     7    4    6 ar 
     8    3    9 ar 
     9    6    7 ar 
    10    7    8 ar 
    11    1   10 1  
    12    5   11 1  
    13    5   12 1  
    14    6   13 1  
    15    7   14 1  
    16    8   15 1  
    17    9   16 1  
# Name:          frag4-352-121/48856 -- energy: -0.662902
# Creation time: Sat Jun  5 12:53:07 2010


@<TRIPOS>MOLECULE
frag4-352-121/48856 -- energy: -0.662902
   16    17     1     1     1
SMALL
USER_CHARGES


@<TRIPOS>ATOM
      1 C14         2.5686    0.2040   -0.0453 C.2        1 <1>        0.000
      2 O1          1.7528    1.2062   -0.1428 O.3        1 <1>        0.000
      3 C15         0.4605    0.8048   -0.0882 C.ar       1 <1>        0.000
      4 C16         0.3840   -0.6429    0.0633 C.ar       1 <1>        0.000
      5 C17         1.7685   -1.0795    0.0823 C.3        1 <1>        0.000
      6 C18        -0.8292   -1.2909    0.1425 C.ar       1 <1>        0.000
      7 C19        -1.9902   -0.5218    0.0741 C.ar       1 <1>        0.000
      8 C20        -1.9208    0.8927   -0.0741 C.ar       1 <1>        0.000
      9 C21        -0.6866    1.5607   -0.1560 C.ar       1 <1>        0.000
     10 H           3.6564    0.2720   -0.0536 H.spc      1 <1>        0.000
     11 H           2.0136   -1.6269    0.9925 H.spc      1 <1>        0.000
     12 H           1.9883   -1.7816   -0.7220 H.spc      1 <1>        0.000
     13 H          -0.8800   -2.3738    0.2554 H.spc      1 <1>        0.000
     14 H          -2.9631   -1.0095    0.1348 H.spc      1 <1>        0.000
     15 H          -2.8441    1.4697   -0.1251 H.spc      1 <1>        0.000
     16 H          -0.6401    2.6438   -0.2697 H.spc      1 <1>        0.000
@<TRIPOS>BOND
     1    8    9 ar 
     2    1    2 2  
     3    1    5 1  
     4    2    3 1  
     5    3    4 ar 
     6    4    5 1  
     7    4    6 ar 
     8    3    9 ar 
     9    6    7 ar 
    10    7    8 ar 
    11    1   10 1  
    12    5   11 1  
    13    5   12 1  
    14    6   13 1  
    15    7   14 1  
    16    8   15 1  
    17    9   16 1  
