#      Rotatable Fragment
#      Build by yxyuan
#
# Name:          frag2-043-82/92655
# Creation time: Sat Jun  5 12:51:57 2010


@<TRIPOS>MOLECULE
frag2-043-82/92655
   10    10     1     1     1
SMALL
USER_CHARGES


@<TRIPOS>ATOM
      1 C4         -1.2703   -0.4647   -0.0141 C.ar       1 <1>        0.000
      2 N1         -0.2466   -1.3546    0.0774 N.ar       1 <1>        0.000
      3 C5          1.0274   -0.8762    0.0923 C.ar       1 <1>        0.000
      4 C6          1.2693    0.4659    0.0103 C.ar       1 <1>        0.000
      5 N2          0.2450    1.3471   -0.0827 N.ar       1 <1>        0.000
      6 C7         -1.0241    0.8752   -0.0906 C.ar       1 <1>        0.000
      7 H          -2.2988   -0.8255   -0.0265 H.spc      1 <1>        0.000
      8 H           1.8635   -1.5711    0.1705 H.spc      1 <1>        0.000
      9 H           2.2963    0.8309    0.0198 H.spc      1 <1>        0.000
     10 H          -1.8583    1.5734   -0.1588 H.spc      1 <1>        0.000
@<TRIPOS>BOND
     1    1    2 ar 
     2    1    6 ar 
     3    2    3 ar 
     4    3    4 ar 
     5    4    5 ar 
     6    5    6 ar 
     7    1    7 1  
     8    3    8 1  
     9    4    9 1  
    10    6   10 1  
# Name:          frag2-043-82/92655 -- energy: 0.525754
# Creation time: Sat Jun  5 12:51:57 2010


@<TRIPOS>MOLECULE
frag2-043-82/92655 -- energy: 0.525754
   10    10     1     1     1
SMALL
USER_CHARGES


@<TRIPOS>ATOM
      1 C4         -1.2703   -0.4647   -0.0141 C.ar       1 <1>        0.000
      2 N1         -0.2466   -1.3546    0.0774 N.ar       1 <1>        0.000
      3 C5          1.0274   -0.8762    0.0923 C.ar       1 <1>        0.000
      4 C6          1.2693    0.4659    0.0103 C.ar       1 <1>        0.000
      5 N2          0.2450    1.3471   -0.0827 N.ar       1 <1>        0.000
      6 C7         -1.0241    0.8752   -0.0906 C.ar       1 <1>        0.000
      7 H          -2.2988   -0.8255   -0.0265 H.spc      1 <1>        0.000
      8 H           1.8635   -1.5711    0.1705 H.spc      1 <1>        0.000
      9 H           2.2963    0.8309    0.0198 H.spc      1 <1>        0.000
     10 H          -1.8583    1.5734   -0.1588 H.spc      1 <1>        0.000
@<TRIPOS>BOND
     1    1    2 ar 
     2    1    6 ar 
     3    2    3 ar 
     4    3    4 ar 
     5    4    5 ar 
     6    5    6 ar 
     7    1    7 1  
     8    3    8 1  
     9    4    9 1  
    10    6   10 1  
