#      Rotatable Fragment
#      Build by yxyuan
#
# Name:          frag5-540-217/138278
# Creation time: Sat Jun  5 12:53:42 2010


@<TRIPOS>MOLECULE
frag5-540-217/138278
   17    17     1     1     1
SMALL
USER_CHARGES


@<TRIPOS>ATOM
      1 C3         -1.4090   -0.6869   -1.1167 C.2        1 <1>        0.000
      2 N1         -2.5848   -0.0934   -0.7680 N.am       1 <1>        0.000
      3 O1         -1.1180   -1.8277   -1.4331 O.2        1 <1>        0.000
      4 C8         -3.8720   -0.7752   -0.7087 C.3        1 <1>        0.000
      5 C9         -2.7792    1.3379   -0.8341 C.3        1 <1>        0.000
      6 C11        -5.1167    0.0443   -0.3422 C.3        1 <1>        0.000
      7 C12        -4.0156    1.7737   -1.5895 C.3        1 <1>        0.000
      8 O3         -5.1775    1.2418   -1.0407 O.3        1 <1>        0.000
      9 H          -0.5584   -0.0054   -1.1118 H.spc      1 <1>        0.000
     10 H          -3.7691   -1.5105    0.0893 H.spc      1 <1>        0.000
     11 H          -4.0532   -1.1317   -1.7227 H.spc      1 <1>        0.000
     12 H          -1.9212    1.7505   -1.3649 H.spc      1 <1>        0.000
     13 H          -2.8930    1.6903    0.1911 H.spc      1 <1>        0.000
     14 H          -5.9982   -0.5436   -0.5979 H.spc      1 <1>        0.000
     15 H          -5.0714    0.2736    0.7224 H.spc      1 <1>        0.000
     16 H          -4.0810    2.8605   -1.5371 H.spc      1 <1>        0.000
     17 H          -3.9302    1.4178   -2.6162 H.spc      1 <1>        0.000
@<TRIPOS>BOND
     1    7    8 1  
     2    6    8 1  
     3    1    2 am 
     4    1    3 2  
     5    2    4 1  
     6    2    5 1  
     7    4    6 1  
     8    5    7 1  
     9    1    9 1  
    10    4   10 1  
    11    4   11 1  
    12    5   12 1  
    13    5   13 1  
    14    6   14 1  
    15    6   15 1  
    16    7   16 1  
    17    7   17 1  
# Name:          frag5-540-217/138278
# Creation time: Sat Jun  5 12:53:42 2010


@<TRIPOS>MOLECULE
frag5-540-217/138278
   17    17     1     1     1
SMALL
USER_CHARGES


@<TRIPOS>ATOM
      1 C3         -1.6172   -0.7210   -1.4169 C.2        1 <1>        0.000
      2 N1         -2.4801    0.1075   -0.7718 N.am       1 <1>        0.000
      3 O1         -1.6195   -1.9445   -1.3409 O.2        1 <1>        0.000
      4 C8         -2.6399    1.5384   -0.8272 C.3        1 <1>        0.000
      5 C9         -3.6342   -0.4124   -0.0421 C.3        1 <1>        0.000
      6 C11        -4.0925    1.9177   -1.1845 C.3        1 <1>        0.000
      7 C12        -4.8817   -0.4026   -0.9280 C.3        1 <1>        0.000
      8 O3         -5.1076    0.9315   -1.3218 O.3        1 <1>        0.000
      9 H          -0.8619   -0.2602   -2.0535 H.spc      1 <1>        0.000
     10 H          -1.9754    1.9356   -1.5945 H.spc      1 <1>        0.000
     11 H          -2.3993    1.9558    0.1506 H.spc      1 <1>        0.000
     12 H          -3.8146    0.2183    0.8284 H.spc      1 <1>        0.000
     13 H          -3.4261   -1.4380    0.2629 H.spc      1 <1>        0.000
     14 H          -4.4223    2.5127   -0.3329 H.spc      1 <1>        0.000
     15 H          -4.0106    2.3465   -2.1832 H.spc      1 <1>        0.000
     16 H          -4.7359   -1.0393   -1.8006 H.spc      1 <1>        0.000
     17 H          -5.7414   -0.7908   -0.3819 H.spc      1 <1>        0.000
@<TRIPOS>BOND
     1    7    8 1  
     2    6    8 1  
     3    1    2 am 
     4    1    3 2  
     5    2    4 1  
     6    2    5 1  
     7    4    6 1  
     8    5    7 1  
     9    1    9 1  
    10    4   10 1  
    11    4   11 1  
    12    5   12 1  
    13    5   13 1  
    14    6   14 1  
    15    6   15 1  
    16    7   16 1  
    17    7   17 1  
# Name:          frag5-540-217/138278
# Creation time: Sat Jun  5 12:53:42 2010


@<TRIPOS>MOLECULE
frag5-540-217/138278
   17    17     1     1     1
SMALL
USER_CHARGES


@<TRIPOS>ATOM
      1 C3         -1.9436   -1.1235   -1.2259 C.2        1 <1>        0.000
      2 N1         -2.7411   -0.2812   -0.5263 N.am       1 <1>        0.000
      3 O1         -0.9527   -0.8741   -1.8851 O.2        1 <1>        0.000
      4 C8         -4.0163   -0.6020    0.0697 C.3        1 <1>        0.000
      5 C9         -2.5748    1.1300   -0.7064 C.3        1 <1>        0.000
      6 C11        -5.2150    0.1994   -0.4157 C.3        1 <1>        0.000
      7 C12        -3.7144    1.6409   -1.5934 C.3        1 <1>        0.000
      8 O3         -4.9148    0.9252   -1.5500 O.3        1 <1>        0.000
      9 H          -2.2310   -2.1744   -1.1933 H.spc      1 <1>        0.000
     10 H          -3.9164   -0.3809    1.1323 H.spc      1 <1>        0.000
     11 H          -4.2202   -1.6395   -0.1952 H.spc      1 <1>        0.000
     12 H          -1.6138    1.3355   -1.1780 H.spc      1 <1>        0.000
     13 H          -2.5983    1.6349    0.2593 H.spc      1 <1>        0.000
     14 H          -6.0201   -0.4955   -0.6544 H.spc      1 <1>        0.000
     15 H          -5.5058    0.8951    0.3714 H.spc      1 <1>        0.000
     16 H          -3.9492    2.6423   -1.2326 H.spc      1 <1>        0.000
     17 H          -3.3547    1.5610   -2.6192 H.spc      1 <1>        0.000
@<TRIPOS>BOND
     1    7    8 1  
     2    6    8 1  
     3    1    2 am 
     4    1    3 2  
     5    2    4 1  
     6    2    5 1  
     7    4    6 1  
     8    5    7 1  
     9    1    9 1  
    10    4   10 1  
    11    4   11 1  
    12    5   12 1  
    13    5   13 1  
    14    6   14 1  
    15    6   15 1  
    16    7   16 1  
    17    7   17 1  
# Name:          frag5-540-217/138278 -- energy: -0.991565
# Creation time: Sat Jun  5 12:53:42 2010


@<TRIPOS>MOLECULE
frag5-540-217/138278 -- energy: -0.991565
   17    17     1     1     1
SMALL
USER_CHARGES


@<TRIPOS>ATOM
      1 C3         -1.4090   -0.6869   -1.1167 C.2        1 <1>        0.000
      2 N1         -2.5848   -0.0934   -0.7680 N.am       1 <1>        0.000
      3 O1         -1.1180   -1.8277   -1.4331 O.2        1 <1>        0.000
      4 C8         -3.8720   -0.7752   -0.7087 C.3        1 <1>        0.000
      5 C9         -2.7792    1.3379   -0.8341 C.3        1 <1>        0.000
      6 C11        -5.1167    0.0443   -0.3422 C.3        1 <1>        0.000
      7 C12        -4.0156    1.7737   -1.5895 C.3        1 <1>        0.000
      8 O3         -5.1775    1.2418   -1.0407 O.3        1 <1>        0.000
      9 H          -0.5584   -0.0054   -1.1118 H.spc      1 <1>        0.000
     10 H          -3.7691   -1.5105    0.0893 H.spc      1 <1>        0.000
     11 H          -4.0532   -1.1317   -1.7227 H.spc      1 <1>        0.000
     12 H          -1.9212    1.7505   -1.3649 H.spc      1 <1>        0.000
     13 H          -2.8930    1.6903    0.1911 H.spc      1 <1>        0.000
     14 H          -5.9982   -0.5436   -0.5979 H.spc      1 <1>        0.000
     15 H          -5.0714    0.2736    0.7224 H.spc      1 <1>        0.000
     16 H          -4.0810    2.8605   -1.5371 H.spc      1 <1>        0.000
     17 H          -3.9302    1.4178   -2.6162 H.spc      1 <1>        0.000
@<TRIPOS>BOND
     1    7    8 1  
     2    6    8 1  
     3    1    2 am 
     4    1    3 2  
     5    2    4 1  
     6    2    5 1  
     7    4    6 1  
     8    5    7 1  
     9    1    9 1  
    10    4   10 1  
    11    4   11 1  
    12    5   12 1  
    13    5   13 1  
    14    6   14 1  
    15    6   15 1  
    16    7   16 1  
    17    7   17 1  
# Name:          frag5-540-217/138278 -- energy: -0.902791
# Creation time: Sat Jun  5 12:53:42 2010


@<TRIPOS>MOLECULE
frag5-540-217/138278 -- energy: -0.902791
   17    17     1     1     1
SMALL
USER_CHARGES


@<TRIPOS>ATOM
      1 C3         -1.6172   -0.7210   -1.4169 C.2        1 <1>        0.000
      2 N1         -2.4801    0.1075   -0.7718 N.am       1 <1>        0.000
      3 O1         -1.6195   -1.9445   -1.3409 O.2        1 <1>        0.000
      4 C8         -2.6399    1.5384   -0.8272 C.3        1 <1>        0.000
      5 C9         -3.6342   -0.4124   -0.0421 C.3        1 <1>        0.000
      6 C11        -4.0925    1.9177   -1.1845 C.3        1 <1>        0.000
      7 C12        -4.8817   -0.4026   -0.9280 C.3        1 <1>        0.000
      8 O3         -5.1076    0.9315   -1.3218 O.3        1 <1>        0.000
      9 H          -0.8619   -0.2602   -2.0535 H.spc      1 <1>        0.000
     10 H          -1.9754    1.9356   -1.5945 H.spc      1 <1>        0.000
     11 H          -2.3993    1.9558    0.1506 H.spc      1 <1>        0.000
     12 H          -3.8146    0.2183    0.8284 H.spc      1 <1>        0.000
     13 H          -3.4261   -1.4380    0.2629 H.spc      1 <1>        0.000
     14 H          -4.4223    2.5127   -0.3329 H.spc      1 <1>        0.000
     15 H          -4.0106    2.3465   -2.1832 H.spc      1 <1>        0.000
     16 H          -4.7359   -1.0393   -1.8006 H.spc      1 <1>        0.000
     17 H          -5.7414   -0.7908   -0.3819 H.spc      1 <1>        0.000
@<TRIPOS>BOND
     1    7    8 1  
     2    6    8 1  
     3    1    2 am 
     4    1    3 2  
     5    2    4 1  
     6    2    5 1  
     7    4    6 1  
     8    5    7 1  
     9    1    9 1  
    10    4   10 1  
    11    4   11 1  
    12    5   12 1  
    13    5   13 1  
    14    6   14 1  
    15    6   15 1  
    16    7   16 1  
    17    7   17 1  
# Name:          frag5-540-217/138278 -- energy: -1.178683
# Creation time: Sat Jun  5 12:53:42 2010


@<TRIPOS>MOLECULE
frag5-540-217/138278 -- energy: -1.178683
   17    17     1     1     1
SMALL
USER_CHARGES


@<TRIPOS>ATOM
      1 C3         -1.9436   -1.1235   -1.2259 C.2        1 <1>        0.000
      2 N1         -2.7411   -0.2812   -0.5263 N.am       1 <1>        0.000
      3 O1         -0.9527   -0.8741   -1.8851 O.2        1 <1>        0.000
      4 C8         -4.0163   -0.6020    0.0697 C.3        1 <1>        0.000
      5 C9         -2.5748    1.1300   -0.7064 C.3        1 <1>        0.000
      6 C11        -5.2150    0.1994   -0.4157 C.3        1 <1>        0.000
      7 C12        -3.7144    1.6409   -1.5934 C.3        1 <1>        0.000
      8 O3         -4.9148    0.9252   -1.5500 O.3        1 <1>        0.000
      9 H          -2.2310   -2.1744   -1.1933 H.spc      1 <1>        0.000
     10 H          -3.9164   -0.3809    1.1323 H.spc      1 <1>        0.000
     11 H          -4.2202   -1.6395   -0.1952 H.spc      1 <1>        0.000
     12 H          -1.6138    1.3355   -1.1780 H.spc      1 <1>        0.000
     13 H          -2.5983    1.6349    0.2593 H.spc      1 <1>        0.000
     14 H          -6.0201   -0.4955   -0.6544 H.spc      1 <1>        0.000
     15 H          -5.5058    0.8951    0.3714 H.spc      1 <1>        0.000
     16 H          -3.9492    2.6423   -1.2326 H.spc      1 <1>        0.000
     17 H          -3.3547    1.5610   -2.6192 H.spc      1 <1>        0.000
@<TRIPOS>BOND
     1    7    8 1  
     2    6    8 1  
     3    1    2 am 
     4    1    3 2  
     5    2    4 1  
     6    2    5 1  
     7    4    6 1  
     8    5    7 1  
     9    1    9 1  
    10    4   10 1  
    11    4   11 1  
    12    5   12 1  
    13    5   13 1  
    14    6   14 1  
    15    6   15 1  
    16    7   16 1  
    17    7   17 1  
