#      Rotatable Fragment
#      Build by yxyuan
#
# Name:          frag5-587-39/41815
# Creation time: Sat Jun  5 12:52:57 2010


@<TRIPOS>MOLECULE
frag5-587-39/41815
   16    17     1     1     1
SMALL
USER_CHARGES


@<TRIPOS>ATOM
      1 O1          7.9327   -1.5660    3.3296 O.3        1 <1>        0.000
      2 C1          9.0843   -1.1439    2.5444 C.3        1 <1>        0.000
      3 O2          8.8219    0.0481    1.7499 O.3        1 <1>        0.000
      4 C2          7.4561   -0.0412    1.6847 C.ar       1 <1>        0.000
      5 C3          6.9457   -0.9674    2.5910 C.ar       1 <1>        0.000
      6 C4          5.5849   -1.2129    2.6748 C.ar       1 <1>        0.000
      7 C5          4.7133   -0.5118    1.8309 C.ar       1 <1>        0.000
      8 C6          5.2502    0.4250    0.9179 C.ar       1 <1>        0.000
      9 C7          6.6193    0.6686    0.8337 C.ar       1 <1>        0.000
     10 O3          3.3532   -0.7492    1.9098 O.3        1 <1>        0.000
     11 H           9.3343   -1.9531    1.8583 H.spc      1 <1>        0.000
     12 H           9.8927   -0.9109    3.2375 H.spc      1 <1>        0.000
     13 H           5.1976   -1.9413    3.3872 H.spc      1 <1>        0.000
     14 H           4.5737    0.9721    0.2613 H.spc      1 <1>        0.000
     15 H           7.0201    1.3920    0.1237 H.spc      1 <1>        0.000
     16 H           3.1838   -1.4127    2.5827 H.spc      1 <1>        0.000
@<TRIPOS>BOND
     1    7   10 1  
     2    8    9 ar 
     3    7    8 ar 
     4    1    2 1  
     5    1    5 1  
     6    2    3 1  
     7    3    4 1  
     8    4    5 ar 
     9    4    9 ar 
    10    5    6 ar 
    11    6    7 ar 
    12    2   11 1  
    13    2   12 1  
    14    6   13 1  
    15    8   14 1  
    16    9   15 1  
    17   10   16 1  
# Name:          frag5-587-39/41815 -- energy: -0.521758
# Creation time: Sat Jun  5 12:52:57 2010


@<TRIPOS>MOLECULE
frag5-587-39/41815 -- energy: -0.521758
   16    17     1     1     1
SMALL
USER_CHARGES


@<TRIPOS>ATOM
      1 O1          7.9327   -1.5660    3.3296 O.3        1 <1>        0.000
      2 C1          9.0843   -1.1439    2.5444 C.3        1 <1>        0.000
      3 O2          8.8219    0.0481    1.7499 O.3        1 <1>        0.000
      4 C2          7.4561   -0.0412    1.6847 C.ar       1 <1>        0.000
      5 C3          6.9457   -0.9674    2.5910 C.ar       1 <1>        0.000
      6 C4          5.5849   -1.2129    2.6748 C.ar       1 <1>        0.000
      7 C5          4.7133   -0.5118    1.8309 C.ar       1 <1>        0.000
      8 C6          5.2502    0.4250    0.9179 C.ar       1 <1>        0.000
      9 C7          6.6193    0.6686    0.8337 C.ar       1 <1>        0.000
     10 O3          3.3532   -0.7492    1.9098 O.3        1 <1>        0.000
     11 H           9.3343   -1.9531    1.8583 H.spc      1 <1>        0.000
     12 H           9.8927   -0.9109    3.2375 H.spc      1 <1>        0.000
     13 H           5.1976   -1.9413    3.3872 H.spc      1 <1>        0.000
     14 H           4.5737    0.9721    0.2613 H.spc      1 <1>        0.000
     15 H           7.0201    1.3920    0.1237 H.spc      1 <1>        0.000
     16 H           3.1838   -1.4127    2.5827 H.spc      1 <1>        0.000
@<TRIPOS>BOND
     1    7   10 1  
     2    8    9 ar 
     3    7    8 ar 
     4    1    2 1  
     5    1    5 1  
     6    2    3 1  
     7    3    4 1  
     8    4    5 ar 
     9    4    9 ar 
    10    5    6 ar 
    11    6    7 ar 
    12    2   11 1  
    13    2   12 1  
    14    6   13 1  
    15    8   14 1  
    16    9   15 1  
    17   10   16 1  
