#      Rotatable Fragment
#      Build by yxyuan
#
# Name:          frag5-511-453/138278
# Creation time: Sat Jun  5 12:53:40 2010


@<TRIPOS>MOLECULE
frag5-511-453/138278
   13    13     1     1     1
SMALL
USER_CHARGES


@<TRIPOS>ATOM
      1 C6          0.8230    0.9511   -0.0749 C.ar       1 <1>        0.000
      2 C10         1.0049   -0.4407    0.0173 C.ar       1 <1>        0.000
      3 C11        -0.4657    1.5184   -0.0971 C.ar       1 <1>        0.000
      4 C14        -0.1480   -1.2418    0.0873 C.ar       1 <1>        0.000
      5 C15        -1.5969    0.7014   -0.0301 C.ar       1 <1>        0.000
      6 C18        -1.4383   -0.6827    0.0655 C.ar       1 <1>        0.000
      7 C26         2.3058   -1.0154    0.0396 C.1        1 <1>        0.000
      8 N4          3.3618   -1.4835    0.0590 N.1        1 <1>        0.000
      9 H           1.6954    1.6023   -0.1302 H.spc      1 <1>        0.000
     10 H          -0.5811    2.6000   -0.1669 H.spc      1 <1>        0.000
     11 H          -0.0392   -2.3239    0.1603 H.spc      1 <1>        0.000
     12 H          -2.5944    1.1404   -0.0522 H.spc      1 <1>        0.000
     13 H          -2.3139   -1.3293    0.1232 H.spc      1 <1>        0.000
@<TRIPOS>BOND
     1    1    2 ar 
     2    1    3 ar 
     3    2    7 1  
     4    2    4 ar 
     5    3    5 ar 
     6    4    6 ar 
     7    5    6 ar 
     8    7    8 3  
     9    1    9 1  
    10    3   10 1  
    11    4   11 1  
    12    5   12 1  
    13    6   13 1  
# Name:          frag5-511-453/138278 -- energy: -0.188815
# Creation time: Sat Jun  5 12:53:40 2010


@<TRIPOS>MOLECULE
frag5-511-453/138278 -- energy: -0.188815
   13    13     1     1     1
SMALL
USER_CHARGES


@<TRIPOS>ATOM
      1 C6          0.8230    0.9511   -0.0749 C.ar       1 <1>        0.000
      2 C10         1.0049   -0.4407    0.0173 C.ar       1 <1>        0.000
      3 C11        -0.4657    1.5184   -0.0971 C.ar       1 <1>        0.000
      4 C14        -0.1480   -1.2418    0.0873 C.ar       1 <1>        0.000
      5 C15        -1.5969    0.7014   -0.0301 C.ar       1 <1>        0.000
      6 C18        -1.4383   -0.6827    0.0655 C.ar       1 <1>        0.000
      7 C26         2.3058   -1.0154    0.0396 C.1        1 <1>        0.000
      8 N4          3.3618   -1.4835    0.0590 N.1        1 <1>        0.000
      9 H           1.6954    1.6023   -0.1302 H.spc      1 <1>        0.000
     10 H          -0.5811    2.6000   -0.1669 H.spc      1 <1>        0.000
     11 H          -0.0392   -2.3239    0.1603 H.spc      1 <1>        0.000
     12 H          -2.5944    1.1404   -0.0522 H.spc      1 <1>        0.000
     13 H          -2.3139   -1.3293    0.1232 H.spc      1 <1>        0.000
@<TRIPOS>BOND
     1    1    2 ar 
     2    1    3 ar 
     3    2    7 1  
     4    2    4 ar 
     5    3    5 ar 
     6    4    6 ar 
     7    5    6 ar 
     8    7    8 3  
     9    1    9 1  
    10    3   10 1  
    11    4   11 1  
    12    5   12 1  
    13    6   13 1  
