#      Rotatable Fragment
#      Build by yxyuan
#
# Name:          frag4-477-33/48856
# Creation time: Sat Jun  5 12:52:49 2010


@<TRIPOS>MOLECULE
frag4-477-33/48856
   71    73     1     1     1
SMALL
USER_CHARGES


@<TRIPOS>ATOM
      1 N1          9.6539    1.2296   -2.8269 N.3        1 <1>        0.000
      2 C1         10.1660   -0.0028   -2.4151 C.3        1 <1>        0.000
      3 C2          9.3697   -0.6008   -1.3284 C.3        1 <1>        0.000
      4 N2          9.4113   -1.9434   -0.9844 N.3        1 <1>        0.000
      5 C3          8.6406   -2.4483    0.0597 C.3        1 <1>        0.000
      6 C4          8.6938   -3.9443   -0.1960 C.3        1 <1>        0.000
      7 C5         10.0860   -4.1210   -0.7222 C.3        1 <1>        0.000
      8 C6         10.2808   -2.8951   -1.5775 C.3        1 <1>        0.000
      9 N5          5.1673    3.2013    1.4572 N.3        1 <1>        0.000
     10 C7          9.3202   -2.0841    1.3316 C.3        1 <1>        0.000
     11 N4          8.7784   -2.5097    2.5262 N.3        1 <1>        0.000
     12 C8          8.1486   -1.5413    3.3303 C.3        1 <1>        0.000
     13 C9          6.8626   -1.0803    2.6669 C.3        1 <1>        0.000
     14 C10         6.4355    0.3408    2.8614 C.3        1 <1>        0.000
     15 C11         5.1744    0.7514    2.1697 C.3        1 <1>        0.000
     16 C12         4.8929    2.1782    2.3519 C.3        1 <1>        0.000
     17 C13         6.2883    3.4364    0.6488 C.3        1 <1>        0.000
     18 C14         6.7777    4.8358    0.7799 C.3        1 <1>        0.000
     19 N6          7.8068    5.4454    0.0790 N.3        1 <1>        0.000
     20 C15         8.6222    4.7713   -0.8568 C.3        1 <1>        0.000
     21 C16         9.0033    5.9572   -1.7401 C.3        1 <1>        0.000
     22 C17         9.2056    7.0666   -0.7493 C.3        1 <1>        0.000
     23 C18         8.1258    6.8077    0.2682 C.3        1 <1>        0.000
     24 C19         9.7308    4.1062   -0.1035 C.3        1 <1>        0.000
     25 N7         11.0080    3.8666   -0.6099 N.3        1 <1>        0.000
     26 C20        11.2164    2.7388   -1.4092 C.3        1 <1>        0.000
     27 C21        10.1075    2.4650   -2.3753 C.3        1 <1>        0.000
     28 H           9.9024    1.2519   -3.8159 H.spc      1 <1>        0.000
     29 H          10.1417   -0.6822   -3.2671 H.spc      1 <1>        0.000
     30 H          11.1788    0.1570   -2.0453 H.spc      1 <1>        0.000
     31 H           9.7711   -0.1129   -0.4402 H.spc      1 <1>        0.000
     32 H           8.3468   -0.4755   -1.6834 H.spc      1 <1>        0.000
     33 H           7.6171   -2.0786    0.1214 H.spc      1 <1>        0.000
     34 H           8.4889   -4.5417    0.6924 H.spc      1 <1>        0.000
     35 H           7.9243   -4.2921   -0.8852 H.spc      1 <1>        0.000
     36 H          10.8300   -4.2072    0.0697 H.spc      1 <1>        0.000
     37 H          10.2136   -5.0497   -1.2783 H.spc      1 <1>        0.000
     38 H          10.0527   -3.0752   -2.6281 H.spc      1 <1>        0.000
     39 H          11.3176   -2.5596   -1.6010 H.spc      1 <1>        0.000
     40 H           5.2495    3.9849    2.1050 H.spc      1 <1>        0.000
     41 H          10.2949   -2.5689    1.2774 H.spc      1 <1>        0.000
     42 H           9.2717   -0.9960    1.3737 H.spc      1 <1>        0.000
     43 H           8.0494   -3.1779    2.2764 H.spc      1 <1>        0.000
     44 H           7.9172   -1.9753    4.3030 H.spc      1 <1>        0.000
     45 H           8.8153   -0.6882    3.4564 H.spc      1 <1>        0.000
     46 H           6.0743   -1.6816    3.1198 H.spc      1 <1>        0.000
     47 H           7.0390   -1.1831    1.5962 H.spc      1 <1>        0.000
     48 H           7.2290    0.9577    2.4396 H.spc      1 <1>        0.000
     49 H           6.2499    0.4597    3.9289 H.spc      1 <1>        0.000
     50 H           5.2905    0.5587    1.1032 H.spc      1 <1>        0.000
     51 H           4.3487    0.1822    2.5967 H.spc      1 <1>        0.000
     52 H           5.5578    2.4277    3.1788 H.spc      1 <1>        0.000
     53 H           3.8030    2.1855    2.3638 H.spc      1 <1>        0.000
     54 H           6.0041    3.2678   -0.3899 H.spc      1 <1>        0.000
     55 H           7.0856    2.7629    0.9630 H.spc      1 <1>        0.000
     56 H           7.1893    4.8216    1.7891 H.spc      1 <1>        0.000
     57 H           5.9154    5.3956    0.4178 H.spc      1 <1>        0.000
     58 H           8.2060    3.9561   -1.4486 H.spc      1 <1>        0.000
     59 H           8.2424    6.1902   -2.4850 H.spc      1 <1>        0.000
     60 H           9.8893    5.7651   -2.3452 H.spc      1 <1>        0.000
     61 H           9.1343    8.0562   -1.2006 H.spc      1 <1>        0.000
     62 H          10.2053    7.0699   -0.3149 H.spc      1 <1>        0.000
     63 H           8.4538    7.0204    1.2857 H.spc      1 <1>        0.000
     64 H           7.2626    7.4594    0.1332 H.spc      1 <1>        0.000
     65 H           9.9276    4.8178    0.6984 H.spc      1 <1>        0.000
     66 H           9.3434    3.0974    0.0391 H.spc      1 <1>        0.000
     67 H          11.5943    3.7196    0.2117 H.spc      1 <1>        0.000
     68 H          11.2851    1.8786   -0.7433 H.spc      1 <1>        0.000
     69 H          12.1181    2.9192   -1.9944 H.spc      1 <1>        0.000
     70 H          10.5186    2.8864   -3.2926 H.spc      1 <1>        0.000
     71 H           9.2437    2.8119   -1.8081 H.spc      1 <1>        0.000
@<TRIPOS>BOND
     1   24   25 1  
     2   25   26 1  
     3   26   27 1  
     4   12   13 1  
     5   11   12 1  
     6   10   11 1  
     7    7    8 1  
     8    6    7 1  
     9    5   10 1  
    10    5    6 1  
    11    4    5 1  
    12    4    8 1  
    13    3    4 1  
    14    1   27 1  
    15    2    3 1  
    16    1    2 1  
    17   15   16 1  
    18   13   14 1  
    19   14   15 1  
    20   16    9 1  
    21    9   17 1  
    22   17   18 1  
    23   18   19 1  
    24   19   20 1  
    25   19   23 1  
    26   20   21 1  
    27   20   24 1  
    28   21   22 1  
    29   22   23 1  
    30    1   28 1  
    31    2   29 1  
    32    2   30 1  
    33    3   31 1  
    34    3   32 1  
    35    5   33 1  
    36    6   34 1  
    37    6   35 1  
    38    7   36 1  
    39    7   37 1  
    40    8   38 1  
    41    8   39 1  
    42    9   40 1  
    43   10   41 1  
    44   10   42 1  
    45   11   43 1  
    46   12   44 1  
    47   12   45 1  
    48   13   46 1  
    49   13   47 1  
    50   14   48 1  
    51   14   49 1  
    52   15   50 1  
    53   15   51 1  
    54   16   52 1  
    55   16   53 1  
    56   17   54 1  
    57   17   55 1  
    58   18   56 1  
    59   18   57 1  
    60   20   58 1  
    61   21   59 1  
    62   21   60 1  
    63   22   61 1  
    64   22   62 1  
    65   23   63 1  
    66   23   64 1  
    67   24   65 1  
    68   24   66 1  
    69   25   67 1  
    70   26   68 1  
    71   26   69 1  
    72   27   70 1  
    73   27   71 1  
# Name:          frag4-477-33/48856 -- energy: -4.451757
# Creation time: Sat Jun  5 12:52:49 2010


@<TRIPOS>MOLECULE
frag4-477-33/48856 -- energy: -4.451757
   71    73     1     1     1
SMALL
USER_CHARGES


@<TRIPOS>ATOM
      1 N1          9.6539    1.2296   -2.8269 N.3        1 <1>        0.000
      2 C1         10.1660   -0.0028   -2.4151 C.3        1 <1>        0.000
      3 C2          9.3697   -0.6008   -1.3284 C.3        1 <1>        0.000
      4 N2          9.4113   -1.9434   -0.9844 N.3        1 <1>        0.000
      5 C3          8.6406   -2.4483    0.0597 C.3        1 <1>        0.000
      6 C4          8.6938   -3.9443   -0.1960 C.3        1 <1>        0.000
      7 C5         10.0860   -4.1210   -0.7222 C.3        1 <1>        0.000
      8 C6         10.2808   -2.8951   -1.5775 C.3        1 <1>        0.000
      9 N5          5.1673    3.2013    1.4572 N.3        1 <1>        0.000
     10 C7          9.3202   -2.0841    1.3316 C.3        1 <1>        0.000
     11 N4          8.7784   -2.5097    2.5262 N.3        1 <1>        0.000
     12 C8          8.1486   -1.5413    3.3303 C.3        1 <1>        0.000
     13 C9          6.8626   -1.0803    2.6669 C.3        1 <1>        0.000
     14 C10         6.4355    0.3408    2.8614 C.3        1 <1>        0.000
     15 C11         5.1744    0.7514    2.1697 C.3        1 <1>        0.000
     16 C12         4.8929    2.1782    2.3519 C.3        1 <1>        0.000
     17 C13         6.2883    3.4364    0.6488 C.3        1 <1>        0.000
     18 C14         6.7777    4.8358    0.7799 C.3        1 <1>        0.000
     19 N6          7.8068    5.4454    0.0790 N.3        1 <1>        0.000
     20 C15         8.6222    4.7713   -0.8568 C.3        1 <1>        0.000
     21 C16         9.0033    5.9572   -1.7401 C.3        1 <1>        0.000
     22 C17         9.2056    7.0666   -0.7493 C.3        1 <1>        0.000
     23 C18         8.1258    6.8077    0.2682 C.3        1 <1>        0.000
     24 C19         9.7308    4.1062   -0.1035 C.3        1 <1>        0.000
     25 N7         11.0080    3.8666   -0.6099 N.3        1 <1>        0.000
     26 C20        11.2164    2.7388   -1.4092 C.3        1 <1>        0.000
     27 C21        10.1075    2.4650   -2.3753 C.3        1 <1>        0.000
     28 H           9.9024    1.2519   -3.8159 H.spc      1 <1>        0.000
     29 H          10.1417   -0.6822   -3.2671 H.spc      1 <1>        0.000
     30 H          11.1788    0.1570   -2.0453 H.spc      1 <1>        0.000
     31 H           9.7711   -0.1129   -0.4402 H.spc      1 <1>        0.000
     32 H           8.3468   -0.4755   -1.6834 H.spc      1 <1>        0.000
     33 H           7.6171   -2.0786    0.1214 H.spc      1 <1>        0.000
     34 H           8.4889   -4.5417    0.6924 H.spc      1 <1>        0.000
     35 H           7.9243   -4.2921   -0.8852 H.spc      1 <1>        0.000
     36 H          10.8300   -4.2072    0.0697 H.spc      1 <1>        0.000
     37 H          10.2136   -5.0497   -1.2783 H.spc      1 <1>        0.000
     38 H          10.0527   -3.0752   -2.6281 H.spc      1 <1>        0.000
     39 H          11.3176   -2.5596   -1.6010 H.spc      1 <1>        0.000
     40 H           5.2495    3.9849    2.1050 H.spc      1 <1>        0.000
     41 H          10.2949   -2.5689    1.2774 H.spc      1 <1>        0.000
     42 H           9.2717   -0.9960    1.3737 H.spc      1 <1>        0.000
     43 H           8.0494   -3.1779    2.2764 H.spc      1 <1>        0.000
     44 H           7.9172   -1.9753    4.3030 H.spc      1 <1>        0.000
     45 H           8.8153   -0.6882    3.4564 H.spc      1 <1>        0.000
     46 H           6.0743   -1.6816    3.1198 H.spc      1 <1>        0.000
     47 H           7.0390   -1.1831    1.5962 H.spc      1 <1>        0.000
     48 H           7.2290    0.9577    2.4396 H.spc      1 <1>        0.000
     49 H           6.2499    0.4597    3.9289 H.spc      1 <1>        0.000
     50 H           5.2905    0.5587    1.1032 H.spc      1 <1>        0.000
     51 H           4.3487    0.1822    2.5967 H.spc      1 <1>        0.000
     52 H           5.5578    2.4277    3.1788 H.spc      1 <1>        0.000
     53 H           3.8030    2.1855    2.3638 H.spc      1 <1>        0.000
     54 H           6.0041    3.2678   -0.3899 H.spc      1 <1>        0.000
     55 H           7.0856    2.7629    0.9630 H.spc      1 <1>        0.000
     56 H           7.1893    4.8216    1.7891 H.spc      1 <1>        0.000
     57 H           5.9154    5.3956    0.4178 H.spc      1 <1>        0.000
     58 H           8.2060    3.9561   -1.4486 H.spc      1 <1>        0.000
     59 H           8.2424    6.1902   -2.4850 H.spc      1 <1>        0.000
     60 H           9.8893    5.7651   -2.3452 H.spc      1 <1>        0.000
     61 H           9.1343    8.0562   -1.2006 H.spc      1 <1>        0.000
     62 H          10.2053    7.0699   -0.3149 H.spc      1 <1>        0.000
     63 H           8.4538    7.0204    1.2857 H.spc      1 <1>        0.000
     64 H           7.2626    7.4594    0.1332 H.spc      1 <1>        0.000
     65 H           9.9276    4.8178    0.6984 H.spc      1 <1>        0.000
     66 H           9.3434    3.0974    0.0391 H.spc      1 <1>        0.000
     67 H          11.5943    3.7196    0.2117 H.spc      1 <1>        0.000
     68 H          11.2851    1.8786   -0.7433 H.spc      1 <1>        0.000
     69 H          12.1181    2.9192   -1.9944 H.spc      1 <1>        0.000
     70 H          10.5186    2.8864   -3.2926 H.spc      1 <1>        0.000
     71 H           9.2437    2.8119   -1.8081 H.spc      1 <1>        0.000
@<TRIPOS>BOND
     1   24   25 1  
     2   25   26 1  
     3   26   27 1  
     4   12   13 1  
     5   11   12 1  
     6   10   11 1  
     7    7    8 1  
     8    6    7 1  
     9    5   10 1  
    10    5    6 1  
    11    4    5 1  
    12    4    8 1  
    13    3    4 1  
    14    1   27 1  
    15    2    3 1  
    16    1    2 1  
    17   15   16 1  
    18   13   14 1  
    19   14   15 1  
    20   16    9 1  
    21    9   17 1  
    22   17   18 1  
    23   18   19 1  
    24   19   20 1  
    25   19   23 1  
    26   20   21 1  
    27   20   24 1  
    28   21   22 1  
    29   22   23 1  
    30    1   28 1  
    31    2   29 1  
    32    2   30 1  
    33    3   31 1  
    34    3   32 1  
    35    5   33 1  
    36    6   34 1  
    37    6   35 1  
    38    7   36 1  
    39    7   37 1  
    40    8   38 1  
    41    8   39 1  
    42    9   40 1  
    43   10   41 1  
    44   10   42 1  
    45   11   43 1  
    46   12   44 1  
    47   12   45 1  
    48   13   46 1  
    49   13   47 1  
    50   14   48 1  
    51   14   49 1  
    52   15   50 1  
    53   15   51 1  
    54   16   52 1  
    55   16   53 1  
    56   17   54 1  
    57   17   55 1  
    58   18   56 1  
    59   18   57 1  
    60   20   58 1  
    61   21   59 1  
    62   21   60 1  
    63   22   61 1  
    64   22   62 1  
    65   23   63 1  
    66   23   64 1  
    67   24   65 1  
    68   24   66 1  
    69   25   67 1  
    70   26   68 1  
    71   26   69 1  
    72   27   70 1  
    73   27   71 1  
