#      Rotatable Fragment
#      Build by yxyuan
#
# Name:          frag5-505-575/138278
# Creation time: Sat Jun  5 12:53:40 2010


@<TRIPOS>MOLECULE
frag5-505-575/138278
   18    18     1     1     1
SMALL
USER_CHARGES


@<TRIPOS>ATOM
      1 N3         -0.7328    0.1516   -0.1470 N.am       1 <1>        0.000
      2 C19         0.0965   -0.6282    0.5914 C.2        1 <1>        0.000
      3 N4          1.4464   -0.5883    0.4393 N.am       1 <1>        0.000
      4 O1         -0.3832   -1.3997    1.4044 O.2        1 <1>        0.000
      5 C21         2.1779    0.6188    0.2480 C.ar       1 <1>        0.000
      6 C22         3.4423    0.5772   -0.3487 C.ar       1 <1>        0.000
      7 C23         1.6533    1.8433    0.6723 C.ar       1 <1>        0.000
      8 C24         4.1773    1.7543   -0.5229 C.ar       1 <1>        0.000
      9 C25         2.3758    3.0245    0.4737 C.ar       1 <1>        0.000
     10 C26         3.6409    2.9802   -0.1193 C.ar       1 <1>        0.000
     11 H          -1.7426    0.0874   -0.0179 H.spc      1 <1>        0.000
     12 H          -0.3465    0.8020   -0.8312 H.spc      1 <1>        0.000
     13 H           1.9622   -1.4679    0.4634 H.spc      1 <1>        0.000
     14 H           3.8561   -0.3756   -0.6790 H.spc      1 <1>        0.000
     15 H           0.6787    1.8776    1.1592 H.spc      1 <1>        0.000
     16 H           5.1690    1.7156   -0.9737 H.spc      1 <1>        0.000
     17 H           1.9519    3.9803    0.7816 H.spc      1 <1>        0.000
     18 H           4.2077    3.8995   -0.2666 H.spc      1 <1>        0.000
@<TRIPOS>BOND
     1    6    8 ar 
     2    9   10 ar 
     3    8   10 ar 
     4    5    7 ar 
     5    7    9 ar 
     6    1    2 am 
     7    2    3 am 
     8    2    4 2  
     9    3    5 1  
    10    5    6 ar 
    11    1   11 1  
    12    1   12 1  
    13    3   13 1  
    14    6   14 1  
    15    7   15 1  
    16    8   16 1  
    17    9   17 1  
    18   10   18 1  
# Name:          frag5-505-575/138278
# Creation time: Sat Jun  5 12:53:40 2010


@<TRIPOS>MOLECULE
frag5-505-575/138278
   18    18     1     1     1
SMALL
USER_CHARGES


@<TRIPOS>ATOM
      1 N3         -0.1989   -0.4796   -0.7915 N.am       1 <1>        0.000
      2 C19         0.1957   -0.7513    0.4759 C.2        1 <1>        0.000
      3 N4          0.9001    0.1390    1.2203 N.am       1 <1>        0.000
      4 O1         -0.0802   -1.8387    0.9604 O.2        1 <1>        0.000
      5 C21         1.8741    1.0197    0.6737 C.ar       1 <1>        0.000
      6 C22         2.6781    0.5962   -0.3897 C.ar       1 <1>        0.000
      7 C23         2.0533    2.3013    1.2056 C.ar       1 <1>        0.000
      8 C24         3.6521    1.4476   -0.9201 C.ar       1 <1>        0.000
      9 C25         3.0081    3.1638    0.6584 C.ar       1 <1>        0.000
     10 C26         3.8122    2.7356   -0.4017 C.ar       1 <1>        0.000
     11 H          -0.7174   -1.1775   -1.3249 H.spc      1 <1>        0.000
     12 H           0.0225    0.4228   -1.2122 H.spc      1 <1>        0.000
     13 H           0.7216    0.1784    2.2238 H.spc      1 <1>        0.000
     14 H           2.5447   -0.4020   -0.8067 H.spc      1 <1>        0.000
     15 H           1.4463    2.6286    2.0497 H.spc      1 <1>        0.000
     16 H           4.2867    1.1067   -1.7381 H.spc      1 <1>        0.000
     17 H           3.1255    4.1708    1.0588 H.spc      1 <1>        0.000
     18 H           4.5624    3.4047   -0.8231 H.spc      1 <1>        0.000
@<TRIPOS>BOND
     1    6    8 ar 
     2    9   10 ar 
     3    8   10 ar 
     4    5    7 ar 
     5    7    9 ar 
     6    1    2 am 
     7    2    3 am 
     8    2    4 2  
     9    3    5 1  
    10    5    6 ar 
    11    1   11 1  
    12    1   12 1  
    13    3   13 1  
    14    6   14 1  
    15    7   15 1  
    16    8   16 1  
    17    9   17 1  
    18   10   18 1  
# Name:          frag5-505-575/138278
# Creation time: Sat Jun  5 12:53:40 2010


@<TRIPOS>MOLECULE
frag5-505-575/138278
   18    18     1     1     1
SMALL
USER_CHARGES


@<TRIPOS>ATOM
      1 N3         -0.6169   -1.5862    1.1338 N.am       1 <1>        0.000
      2 C19         0.0711   -0.5882    0.5141 C.2        1 <1>        0.000
      3 N4          1.4312   -0.5760    0.4886 N.am       1 <1>        0.000
      4 O1         -0.5427    0.3144   -0.0165 O.2        1 <1>        0.000
      5 C21         2.1903    0.6190    0.2937 C.ar       1 <1>        0.000
      6 C22         1.7106    1.8362    0.7836 C.ar       1 <1>        0.000
      7 C23         3.4020    0.5805   -0.4044 C.ar       1 <1>        0.000
      8 C24         2.4405    3.0127    0.5799 C.ar       1 <1>        0.000
      9 C25         4.1456    1.7516   -0.5844 C.ar       1 <1>        0.000
     10 C26         3.6627    2.9697   -0.0971 C.ar       1 <1>        0.000
     11 H          -1.6367   -1.5698    1.1485 H.spc      1 <1>        0.000
     12 H          -0.1126   -2.3504    1.5834 H.spc      1 <1>        0.000
     13 H           1.9301   -1.4568    0.6139 H.spc      1 <1>        0.000
     14 H           0.7656    1.8696    1.3258 H.spc      1 <1>        0.000
     15 H           3.7673   -0.3635   -0.8087 H.spc      1 <1>        0.000
     16 H           2.0557    3.9632    0.9494 H.spc      1 <1>        0.000
     17 H           5.1025    1.7144   -1.1051 H.spc      1 <1>        0.000
     18 H           4.2379    3.8837   -0.2447 H.spc      1 <1>        0.000
@<TRIPOS>BOND
     1    6    8 ar 
     2    9   10 ar 
     3    8   10 ar 
     4    5    7 ar 
     5    7    9 ar 
     6    1    2 am 
     7    2    3 am 
     8    2    4 2  
     9    3    5 1  
    10    5    6 ar 
    11    1   11 1  
    12    1   12 1  
    13    3   13 1  
    14    6   14 1  
    15    7   15 1  
    16    8   16 1  
    17    9   17 1  
    18   10   18 1  
# Name:          frag5-505-575/138278
# Creation time: Sat Jun  5 12:53:40 2010


@<TRIPOS>MOLECULE
frag5-505-575/138278
   18    18     1     1     1
SMALL
USER_CHARGES


@<TRIPOS>ATOM
      1 N3         -0.8616   -1.5369    0.2101 N.am       1 <1>        0.000
      2 C19         0.0778   -0.5987    0.5114 C.2        1 <1>        0.000
      3 N4          1.0253   -0.2305   -0.3928 N.am       1 <1>        0.000
      4 O1          0.0769   -0.0910    1.6137 O.2        1 <1>        0.000
      5 C21         1.9813    0.8000   -0.1337 C.ar       1 <1>        0.000
      6 C22         3.3165    0.6139   -0.5058 C.ar       1 <1>        0.000
      7 C23         1.5977    1.9818    0.5059 C.ar       1 <1>        0.000
      8 C24         4.2645    1.6081   -0.2418 C.ar       1 <1>        0.000
      9 C25         2.5404    2.9877    0.7467 C.ar       1 <1>        0.000
     10 C26         3.8755    2.7993    0.3776 C.ar       1 <1>        0.000
     11 H          -1.5558   -1.8058    0.9074 H.spc      1 <1>        0.000
     12 H          -0.8712   -1.9709   -0.7129 H.spc      1 <1>        0.000
     13 H           1.0547   -0.7096   -1.2928 H.spc      1 <1>        0.000
     14 H           3.6191   -0.3079   -1.0026 H.spc      1 <1>        0.000
     15 H           0.5625    2.1204    0.8178 H.spc      1 <1>        0.000
     16 H           5.3072    1.4538   -0.5193 H.spc      1 <1>        0.000
     17 H           2.2333    3.9190    1.2225 H.spc      1 <1>        0.000
     18 H           4.6114    3.5794    0.5723 H.spc      1 <1>        0.000
@<TRIPOS>BOND
     1    6    8 ar 
     2    9   10 ar 
     3    8   10 ar 
     4    5    7 ar 
     5    7    9 ar 
     6    1    2 am 
     7    2    3 am 
     8    2    4 2  
     9    3    5 1  
    10    5    6 ar 
    11    1   11 1  
    12    1   12 1  
    13    3   13 1  
    14    6   14 1  
    15    7   15 1  
    16    8   16 1  
    17    9   17 1  
    18   10   18 1  
# Name:          frag5-505-575/138278 -- energy: -1.064250
# Creation time: Sat Jun  5 12:53:40 2010


@<TRIPOS>MOLECULE
frag5-505-575/138278 -- energy: -1.064250
   18    18     1     1     1
SMALL
USER_CHARGES


@<TRIPOS>ATOM
      1 N3         -0.7328    0.1516   -0.1470 N.am       1 <1>        0.000
      2 C19         0.0965   -0.6282    0.5914 C.2        1 <1>        0.000
      3 N4          1.4464   -0.5883    0.4393 N.am       1 <1>        0.000
      4 O1         -0.3832   -1.3997    1.4044 O.2        1 <1>        0.000
      5 C21         2.1779    0.6188    0.2480 C.ar       1 <1>        0.000
      6 C22         3.4423    0.5772   -0.3487 C.ar       1 <1>        0.000
      7 C23         1.6533    1.8433    0.6723 C.ar       1 <1>        0.000
      8 C24         4.1773    1.7543   -0.5229 C.ar       1 <1>        0.000
      9 C25         2.3758    3.0245    0.4737 C.ar       1 <1>        0.000
     10 C26         3.6409    2.9802   -0.1193 C.ar       1 <1>        0.000
     11 H          -1.7426    0.0874   -0.0179 H.spc      1 <1>        0.000
     12 H          -0.3465    0.8020   -0.8312 H.spc      1 <1>        0.000
     13 H           1.9622   -1.4679    0.4634 H.spc      1 <1>        0.000
     14 H           3.8561   -0.3756   -0.6790 H.spc      1 <1>        0.000
     15 H           0.6787    1.8776    1.1592 H.spc      1 <1>        0.000
     16 H           5.1690    1.7156   -0.9737 H.spc      1 <1>        0.000
     17 H           1.9519    3.9803    0.7816 H.spc      1 <1>        0.000
     18 H           4.2077    3.8995   -0.2666 H.spc      1 <1>        0.000
@<TRIPOS>BOND
     1    6    8 ar 
     2    9   10 ar 
     3    8   10 ar 
     4    5    7 ar 
     5    7    9 ar 
     6    1    2 am 
     7    2    3 am 
     8    2    4 2  
     9    3    5 1  
    10    5    6 ar 
    11    1   11 1  
    12    1   12 1  
    13    3   13 1  
    14    6   14 1  
    15    7   15 1  
    16    8   16 1  
    17    9   17 1  
    18   10   18 1  
# Name:          frag5-505-575/138278 -- energy: -1.135615
# Creation time: Sat Jun  5 12:53:40 2010


@<TRIPOS>MOLECULE
frag5-505-575/138278 -- energy: -1.135615
   18    18     1     1     1
SMALL
USER_CHARGES


@<TRIPOS>ATOM
      1 N3         -0.1989   -0.4796   -0.7915 N.am       1 <1>        0.000
      2 C19         0.1957   -0.7513    0.4759 C.2        1 <1>        0.000
      3 N4          0.9001    0.1390    1.2203 N.am       1 <1>        0.000
      4 O1         -0.0802   -1.8387    0.9604 O.2        1 <1>        0.000
      5 C21         1.8741    1.0197    0.6737 C.ar       1 <1>        0.000
      6 C22         2.6781    0.5962   -0.3897 C.ar       1 <1>        0.000
      7 C23         2.0533    2.3013    1.2056 C.ar       1 <1>        0.000
      8 C24         3.6521    1.4476   -0.9201 C.ar       1 <1>        0.000
      9 C25         3.0081    3.1638    0.6584 C.ar       1 <1>        0.000
     10 C26         3.8122    2.7356   -0.4017 C.ar       1 <1>        0.000
     11 H          -0.7174   -1.1775   -1.3249 H.spc      1 <1>        0.000
     12 H           0.0225    0.4228   -1.2122 H.spc      1 <1>        0.000
     13 H           0.7216    0.1784    2.2238 H.spc      1 <1>        0.000
     14 H           2.5447   -0.4020   -0.8067 H.spc      1 <1>        0.000
     15 H           1.4463    2.6286    2.0497 H.spc      1 <1>        0.000
     16 H           4.2867    1.1067   -1.7381 H.spc      1 <1>        0.000
     17 H           3.1255    4.1708    1.0588 H.spc      1 <1>        0.000
     18 H           4.5624    3.4047   -0.8231 H.spc      1 <1>        0.000
@<TRIPOS>BOND
     1    6    8 ar 
     2    9   10 ar 
     3    8   10 ar 
     4    5    7 ar 
     5    7    9 ar 
     6    1    2 am 
     7    2    3 am 
     8    2    4 2  
     9    3    5 1  
    10    5    6 ar 
    11    1   11 1  
    12    1   12 1  
    13    3   13 1  
    14    6   14 1  
    15    7   15 1  
    16    8   16 1  
    17    9   17 1  
    18   10   18 1  
# Name:          frag5-505-575/138278 -- energy: -0.667774
# Creation time: Sat Jun  5 12:53:40 2010


@<TRIPOS>MOLECULE
frag5-505-575/138278 -- energy: -0.667774
   18    18     1     1     1
SMALL
USER_CHARGES


@<TRIPOS>ATOM
      1 N3         -0.6169   -1.5862    1.1338 N.am       1 <1>        0.000
      2 C19         0.0711   -0.5882    0.5141 C.2        1 <1>        0.000
      3 N4          1.4312   -0.5760    0.4886 N.am       1 <1>        0.000
      4 O1         -0.5427    0.3144   -0.0165 O.2        1 <1>        0.000
      5 C21         2.1903    0.6190    0.2937 C.ar       1 <1>        0.000
      6 C22         1.7106    1.8362    0.7836 C.ar       1 <1>        0.000
      7 C23         3.4020    0.5805   -0.4044 C.ar       1 <1>        0.000
      8 C24         2.4405    3.0127    0.5799 C.ar       1 <1>        0.000
      9 C25         4.1456    1.7516   -0.5844 C.ar       1 <1>        0.000
     10 C26         3.6627    2.9697   -0.0971 C.ar       1 <1>        0.000
     11 H          -1.6367   -1.5698    1.1485 H.spc      1 <1>        0.000
     12 H          -0.1126   -2.3504    1.5834 H.spc      1 <1>        0.000
     13 H           1.9301   -1.4568    0.6139 H.spc      1 <1>        0.000
     14 H           0.7656    1.8696    1.3258 H.spc      1 <1>        0.000
     15 H           3.7673   -0.3635   -0.8087 H.spc      1 <1>        0.000
     16 H           2.0557    3.9632    0.9494 H.spc      1 <1>        0.000
     17 H           5.1025    1.7144   -1.1051 H.spc      1 <1>        0.000
     18 H           4.2379    3.8837   -0.2447 H.spc      1 <1>        0.000
@<TRIPOS>BOND
     1    6    8 ar 
     2    9   10 ar 
     3    8   10 ar 
     4    5    7 ar 
     5    7    9 ar 
     6    1    2 am 
     7    2    3 am 
     8    2    4 2  
     9    3    5 1  
    10    5    6 ar 
    11    1   11 1  
    12    1   12 1  
    13    3   13 1  
    14    6   14 1  
    15    7   15 1  
    16    8   16 1  
    17    9   17 1  
    18   10   18 1  
# Name:          frag5-505-575/138278 -- energy: -0.605267
# Creation time: Sat Jun  5 12:53:40 2010


@<TRIPOS>MOLECULE
frag5-505-575/138278 -- energy: -0.605267
   18    18     1     1     1
SMALL
USER_CHARGES


@<TRIPOS>ATOM
      1 N3         -0.8616   -1.5369    0.2101 N.am       1 <1>        0.000
      2 C19         0.0778   -0.5987    0.5114 C.2        1 <1>        0.000
      3 N4          1.0253   -0.2305   -0.3928 N.am       1 <1>        0.000
      4 O1          0.0769   -0.0910    1.6137 O.2        1 <1>        0.000
      5 C21         1.9813    0.8000   -0.1337 C.ar       1 <1>        0.000
      6 C22         3.3165    0.6139   -0.5058 C.ar       1 <1>        0.000
      7 C23         1.5977    1.9818    0.5059 C.ar       1 <1>        0.000
      8 C24         4.2645    1.6081   -0.2418 C.ar       1 <1>        0.000
      9 C25         2.5404    2.9877    0.7467 C.ar       1 <1>        0.000
     10 C26         3.8755    2.7993    0.3776 C.ar       1 <1>        0.000
     11 H          -1.5558   -1.8058    0.9074 H.spc      1 <1>        0.000
     12 H          -0.8712   -1.9709   -0.7129 H.spc      1 <1>        0.000
     13 H           1.0547   -0.7096   -1.2928 H.spc      1 <1>        0.000
     14 H           3.6191   -0.3079   -1.0026 H.spc      1 <1>        0.000
     15 H           0.5625    2.1204    0.8178 H.spc      1 <1>        0.000
     16 H           5.3072    1.4538   -0.5193 H.spc      1 <1>        0.000
     17 H           2.2333    3.9190    1.2225 H.spc      1 <1>        0.000
     18 H           4.6114    3.5794    0.5723 H.spc      1 <1>        0.000
@<TRIPOS>BOND
     1    6    8 ar 
     2    9   10 ar 
     3    8   10 ar 
     4    5    7 ar 
     5    7    9 ar 
     6    1    2 am 
     7    2    3 am 
     8    2    4 2  
     9    3    5 1  
    10    5    6 ar 
    11    1   11 1  
    12    1   12 1  
    13    3   13 1  
    14    6   14 1  
    15    7   15 1  
    16    8   16 1  
    17    9   17 1  
    18   10   18 1  
