#      Rotatable Fragment
#      Build by yxyuan
#
# Name:          frag5-528-100/41815
# Creation time: Sat Jun  5 12:52:51 2010


@<TRIPOS>MOLECULE
frag5-528-100/41815
   40    43     1     1     1
SMALL
USER_CHARGES


@<TRIPOS>ATOM
      1 C3         -4.5141   -1.3962   -0.7803 C.3        1 <1>        0.000
      2 C4         -2.9890   -1.4665   -0.6023 C.3        1 <1>        0.000
      3 C5         -2.1153   -0.8655   -1.7183 C.3        1 <1>        0.000
      4 C6         -0.6290   -0.8882   -1.2882 C.3        1 <1>        0.000
      5 C7         -0.4005   -0.1539    0.0680 C.3        1 <1>        0.000
      6 C8         -1.3092   -0.7975    1.1579 C.3        1 <1>        0.000
      7 C9         -1.0407   -0.1280    2.5192 C.3        1 <1>        0.000
      8 C10         0.3860   -0.4872    2.9741 C.3        1 <1>        0.000
      9 C11         1.4242   -0.2969    1.8736 C.ar       1 <1>        0.000
     10 C12         1.0642   -0.0770    0.5249 C.ar       1 <1>        0.000
     11 C13         2.0875    0.2393   -0.3808 C.ar       1 <1>        0.000
     12 C14         3.4281    0.1862   -0.0157 C.ar       1 <1>        0.000
     13 C15         3.7969   -0.1183    1.3030 C.ar       1 <1>        0.000
     14 C16         2.7747   -0.3463    2.2273 C.ar       1 <1>        0.000
     15 O1          5.1193   -0.1899    1.7007 O.3        1 <1>        0.000
     16 C18        -2.7870   -0.6993    0.7176 C.3        1 <1>        0.000
     17 C19        -3.8615   -1.3453    1.6158 C.3        1 <1>        0.000
     18 C20        -5.0493   -1.6263    0.6552 C.3        1 <1>        0.000
     19 H          -4.8887   -2.1323   -1.4916 H.spc      1 <1>        0.000
     20 H          -4.8445   -0.4484   -1.2052 H.spc      1 <1>        0.000
     21 H          -2.6624   -2.5062   -0.6205 H.spc      1 <1>        0.000
     22 H          -2.2368   -1.4537   -2.6279 H.spc      1 <1>        0.000
     23 H          -2.4222    0.1642   -1.9018 H.spc      1 <1>        0.000
     24 H          -0.3255   -1.9281   -1.1675 H.spc      1 <1>        0.000
     25 H          -0.0453   -0.3776   -2.0542 H.spc      1 <1>        0.000
     26 H          -0.6799    0.8877   -0.0906 H.spc      1 <1>        0.000
     27 H          -1.0780   -1.8562    1.2751 H.spc      1 <1>        0.000
     28 H          -1.7635   -0.4817    3.2544 H.spc      1 <1>        0.000
     29 H          -1.1378    0.9536    2.4251 H.spc      1 <1>        0.000
     30 H           0.6494    0.1749    3.7989 H.spc      1 <1>        0.000
     31 H           0.3903   -1.5396    3.2579 H.spc      1 <1>        0.000
     32 H           1.8251    0.5343   -1.3968 H.spc      1 <1>        0.000
     33 H           4.1991    0.3829   -0.7606 H.spc      1 <1>        0.000
     34 H           3.0401   -0.5706    3.2604 H.spc      1 <1>        0.000
     35 H           5.6885   -0.0085    0.9493 H.spc      1 <1>        0.000
     36 H          -2.9287    0.3814    0.7063 H.spc      1 <1>        0.000
     37 H          -3.5005   -2.2540    2.0975 H.spc      1 <1>        0.000
     38 H          -4.1484   -0.6960    2.4430 H.spc      1 <1>        0.000
     39 H          -5.4183   -2.6447    0.7767 H.spc      1 <1>        0.000
     40 H          -5.8904   -0.9670    0.8696 H.spc      1 <1>        0.000
@<TRIPOS>BOND
     1    5    6 1  
     2    4    5 1  
     3    3    4 1  
     4    1    2 1  
     5    1   18 1  
     6    2   16 1  
     7    2    3 1  
     8    5   10 1  
     9    6   16 1  
    10    6    7 1  
    11   17   18 1  
    12   16   17 1  
    13   13   15 1  
    14   13   14 ar 
    15   12   13 ar 
    16   11   12 ar 
    17    9   14 ar 
    18   10   11 ar 
    19    9   10 ar 
    20    8    9 1  
    21    7    8 1  
    22    1   19 1  
    23    1   20 1  
    24    2   21 1  
    25    3   22 1  
    26    3   23 1  
    27    4   24 1  
    28    4   25 1  
    29    5   26 1  
    30    6   27 1  
    31    7   28 1  
    32    7   29 1  
    33    8   30 1  
    34    8   31 1  
    35   11   32 1  
    36   12   33 1  
    37   14   34 1  
    38   15   35 1  
    39   16   36 1  
    40   17   37 1  
    41   17   38 1  
    42   18   39 1  
    43   18   40 1  
# Name:          frag5-528-100/41815 -- energy: -6.350816
# Creation time: Sat Jun  5 12:52:51 2010


@<TRIPOS>MOLECULE
frag5-528-100/41815 -- energy: -6.350816
   40    43     1     1     1
SMALL
USER_CHARGES


@<TRIPOS>ATOM
      1 C3         -4.5141   -1.3962   -0.7803 C.3        1 <1>        0.000
      2 C4         -2.9890   -1.4665   -0.6023 C.3        1 <1>        0.000
      3 C5         -2.1153   -0.8655   -1.7183 C.3        1 <1>        0.000
      4 C6         -0.6290   -0.8882   -1.2882 C.3        1 <1>        0.000
      5 C7         -0.4005   -0.1539    0.0680 C.3        1 <1>        0.000
      6 C8         -1.3092   -0.7975    1.1579 C.3        1 <1>        0.000
      7 C9         -1.0407   -0.1280    2.5192 C.3        1 <1>        0.000
      8 C10         0.3860   -0.4872    2.9741 C.3        1 <1>        0.000
      9 C11         1.4242   -0.2969    1.8736 C.ar       1 <1>        0.000
     10 C12         1.0642   -0.0770    0.5249 C.ar       1 <1>        0.000
     11 C13         2.0875    0.2393   -0.3808 C.ar       1 <1>        0.000
     12 C14         3.4281    0.1862   -0.0157 C.ar       1 <1>        0.000
     13 C15         3.7969   -0.1183    1.3030 C.ar       1 <1>        0.000
     14 C16         2.7747   -0.3463    2.2273 C.ar       1 <1>        0.000
     15 O1          5.1193   -0.1899    1.7007 O.3        1 <1>        0.000
     16 C18        -2.7870   -0.6993    0.7176 C.3        1 <1>        0.000
     17 C19        -3.8615   -1.3453    1.6158 C.3        1 <1>        0.000
     18 C20        -5.0493   -1.6263    0.6552 C.3        1 <1>        0.000
     19 H          -4.8887   -2.1323   -1.4916 H.spc      1 <1>        0.000
     20 H          -4.8445   -0.4484   -1.2052 H.spc      1 <1>        0.000
     21 H          -2.6624   -2.5062   -0.6205 H.spc      1 <1>        0.000
     22 H          -2.2368   -1.4537   -2.6279 H.spc      1 <1>        0.000
     23 H          -2.4222    0.1642   -1.9018 H.spc      1 <1>        0.000
     24 H          -0.3255   -1.9281   -1.1675 H.spc      1 <1>        0.000
     25 H          -0.0453   -0.3776   -2.0542 H.spc      1 <1>        0.000
     26 H          -0.6799    0.8877   -0.0906 H.spc      1 <1>        0.000
     27 H          -1.0780   -1.8562    1.2751 H.spc      1 <1>        0.000
     28 H          -1.7635   -0.4817    3.2544 H.spc      1 <1>        0.000
     29 H          -1.1378    0.9536    2.4251 H.spc      1 <1>        0.000
     30 H           0.6494    0.1749    3.7989 H.spc      1 <1>        0.000
     31 H           0.3903   -1.5396    3.2579 H.spc      1 <1>        0.000
     32 H           1.8251    0.5343   -1.3968 H.spc      1 <1>        0.000
     33 H           4.1991    0.3829   -0.7606 H.spc      1 <1>        0.000
     34 H           3.0401   -0.5706    3.2604 H.spc      1 <1>        0.000
     35 H           5.6885   -0.0085    0.9493 H.spc      1 <1>        0.000
     36 H          -2.9287    0.3814    0.7063 H.spc      1 <1>        0.000
     37 H          -3.5005   -2.2540    2.0975 H.spc      1 <1>        0.000
     38 H          -4.1484   -0.6960    2.4430 H.spc      1 <1>        0.000
     39 H          -5.4183   -2.6447    0.7767 H.spc      1 <1>        0.000
     40 H          -5.8904   -0.9670    0.8696 H.spc      1 <1>        0.000
@<TRIPOS>BOND
     1    5    6 1  
     2    4    5 1  
     3    3    4 1  
     4    1    2 1  
     5    1   18 1  
     6    2   16 1  
     7    2    3 1  
     8    5   10 1  
     9    6   16 1  
    10    6    7 1  
    11   17   18 1  
    12   16   17 1  
    13   13   15 1  
    14   13   14 ar 
    15   12   13 ar 
    16   11   12 ar 
    17    9   14 ar 
    18   10   11 ar 
    19    9   10 ar 
    20    8    9 1  
    21    7    8 1  
    22    1   19 1  
    23    1   20 1  
    24    2   21 1  
    25    3   22 1  
    26    3   23 1  
    27    4   24 1  
    28    4   25 1  
    29    5   26 1  
    30    6   27 1  
    31    7   28 1  
    32    7   29 1  
    33    8   30 1  
    34    8   31 1  
    35   11   32 1  
    36   12   33 1  
    37   14   34 1  
    38   15   35 1  
    39   16   36 1  
    40   17   37 1  
    41   17   38 1  
    42   18   39 1  
    43   18   40 1  
