#      Rotatable Fragment
#      Build by yxyuan
#
# Name:          frag4-484-33/48856
# Creation time: Sat Jun  5 12:52:49 2010


@<TRIPOS>MOLECULE
frag4-484-33/48856
   32    34     1     1     1
SMALL
USER_CHARGES


@<TRIPOS>ATOM
      1 C1         -2.2393   -0.0756    0.8084 C.3        1 <1>        0.000
      2 C2         -1.9515   -1.2197    1.7486 C.3        1 <1>        0.000
      3 C3         -1.1542   -2.3600    1.2013 C.3        1 <1>        0.000
      4 C4          0.2608   -1.9991    1.2151 C.ar       1 <1>        0.000
      5 C5          0.7452   -0.8633    0.5775 C.ar       1 <1>        0.000
      6 C6          1.8979   -0.3075    1.1959 C.ar       1 <1>        0.000
      7 C7          2.8482   -1.0823    1.8214 C.ar       1 <1>        0.000
      8 C16        -0.4623    2.1160   -2.8655 C.3        1 <1>        0.000
      9 C8          2.5859   -2.4194    1.9271 C.ar       1 <1>        0.000
     10 C9          1.3189   -2.8689    1.5334 C.ar       1 <1>        0.000
     11 C13         0.0986    0.1473   -0.3072 C.2        1 <1>        0.000
     12 C14         0.7447    0.3353   -1.6036 C.2        1 <1>        0.000
     13 C15         0.5657    1.0976   -2.6886 C.2        1 <1>        0.000
     14 C17        -1.4965    2.2777   -1.9041 C.2        1 <1>        0.000
     15 C18        -1.8261    1.7096   -0.7896 C.2        1 <1>        0.000
     16 C19        -1.1613    0.6485   -0.0269 C.2        1 <1>        0.000
     17 H          -2.5867    0.7074    1.4824 H.spc      1 <1>        0.000
     18 H          -2.8608   -0.5431    0.0447 H.spc      1 <1>        0.000
     19 H          -1.3542   -0.7986    2.5573 H.spc      1 <1>        0.000
     20 H          -2.9221   -1.6361    2.0182 H.spc      1 <1>        0.000
     21 H          -1.4697   -2.5729    0.1799 H.spc      1 <1>        0.000
     22 H          -1.3136   -3.2477    1.8134 H.spc      1 <1>        0.000
     23 H           2.0346    0.7737    1.1740 H.spc      1 <1>        0.000
     24 H           3.7680   -0.6492    2.2145 H.spc      1 <1>        0.000
     25 H           0.0857    3.0575   -2.8287 H.spc      1 <1>        0.000
     26 H          -0.9858    1.8120   -3.7719 H.spc      1 <1>        0.000
     27 H           3.3373   -3.1127    2.3050 H.spc      1 <1>        0.000
     28 H           1.1451   -3.9431    1.4709 H.spc      1 <1>        0.000
     29 H           1.6054   -0.3236   -1.7182 H.spc      1 <1>        0.000
     30 H           1.2541    0.9423   -3.5193 H.spc      1 <1>        0.000
     31 H          -2.1831    3.0805   -2.1728 H.spc      1 <1>        0.000
     32 H          -2.7494    2.0806   -0.3446 H.spc      1 <1>        0.000
@<TRIPOS>BOND
     1    2    3 1  
     2   11   16 2  
     3   11   12 1  
     4   15   16 1  
     5    8   14 1  
     6    3    4 1  
     7   13    8 1  
     8   12   13 2  
     9    4    5 ar 
    10    6    7 ar 
    11    1    2 1  
    12    4   10 ar 
    13    5    6 ar 
    14    5   11 1  
    15    7    9 ar 
    16    9   10 ar 
    17   14   15 2  
    18    1   16 1  
    19    1   17 1  
    20    1   18 1  
    21    2   19 1  
    22    2   20 1  
    23    3   21 1  
    24    3   22 1  
    25    6   23 1  
    26    7   24 1  
    27    8   25 1  
    28    8   26 1  
    29    9   27 1  
    30   10   28 1  
    31   12   29 1  
    32   13   30 1  
    33   14   31 1  
    34   15   32 1  
# Name:          frag4-484-33/48856 -- energy: -3.716868
# Creation time: Sat Jun  5 12:52:49 2010


@<TRIPOS>MOLECULE
frag4-484-33/48856 -- energy: -3.716868
   32    34     1     1     1
SMALL
USER_CHARGES


@<TRIPOS>ATOM
      1 C1         -2.2393   -0.0756    0.8084 C.3        1 <1>        0.000
      2 C2         -1.9515   -1.2197    1.7486 C.3        1 <1>        0.000
      3 C3         -1.1542   -2.3600    1.2013 C.3        1 <1>        0.000
      4 C4          0.2608   -1.9991    1.2151 C.ar       1 <1>        0.000
      5 C5          0.7452   -0.8633    0.5775 C.ar       1 <1>        0.000
      6 C6          1.8979   -0.3075    1.1959 C.ar       1 <1>        0.000
      7 C7          2.8482   -1.0823    1.8214 C.ar       1 <1>        0.000
      8 C16        -0.4623    2.1160   -2.8655 C.3        1 <1>        0.000
      9 C8          2.5859   -2.4194    1.9271 C.ar       1 <1>        0.000
     10 C9          1.3189   -2.8689    1.5334 C.ar       1 <1>        0.000
     11 C13         0.0986    0.1473   -0.3072 C.2        1 <1>        0.000
     12 C14         0.7447    0.3353   -1.6036 C.2        1 <1>        0.000
     13 C15         0.5657    1.0976   -2.6886 C.2        1 <1>        0.000
     14 C17        -1.4965    2.2777   -1.9041 C.2        1 <1>        0.000
     15 C18        -1.8261    1.7096   -0.7896 C.2        1 <1>        0.000
     16 C19        -1.1613    0.6485   -0.0269 C.2        1 <1>        0.000
     17 H          -2.5867    0.7074    1.4824 H.spc      1 <1>        0.000
     18 H          -2.8608   -0.5431    0.0447 H.spc      1 <1>        0.000
     19 H          -1.3542   -0.7986    2.5573 H.spc      1 <1>        0.000
     20 H          -2.9221   -1.6361    2.0182 H.spc      1 <1>        0.000
     21 H          -1.4697   -2.5729    0.1799 H.spc      1 <1>        0.000
     22 H          -1.3136   -3.2477    1.8134 H.spc      1 <1>        0.000
     23 H           2.0346    0.7737    1.1740 H.spc      1 <1>        0.000
     24 H           3.7680   -0.6492    2.2145 H.spc      1 <1>        0.000
     25 H           0.0857    3.0575   -2.8287 H.spc      1 <1>        0.000
     26 H          -0.9858    1.8120   -3.7719 H.spc      1 <1>        0.000
     27 H           3.3373   -3.1127    2.3050 H.spc      1 <1>        0.000
     28 H           1.1451   -3.9431    1.4709 H.spc      1 <1>        0.000
     29 H           1.6054   -0.3236   -1.7182 H.spc      1 <1>        0.000
     30 H           1.2541    0.9423   -3.5193 H.spc      1 <1>        0.000
     31 H          -2.1831    3.0805   -2.1728 H.spc      1 <1>        0.000
     32 H          -2.7494    2.0806   -0.3446 H.spc      1 <1>        0.000
@<TRIPOS>BOND
     1    2    3 1  
     2   11   16 2  
     3   11   12 1  
     4   15   16 1  
     5    8   14 1  
     6    3    4 1  
     7   13    8 1  
     8   12   13 2  
     9    4    5 ar 
    10    6    7 ar 
    11    1    2 1  
    12    4   10 ar 
    13    5    6 ar 
    14    5   11 1  
    15    7    9 ar 
    16    9   10 ar 
    17   14   15 2  
    18    1   16 1  
    19    1   17 1  
    20    1   18 1  
    21    2   19 1  
    22    2   20 1  
    23    3   21 1  
    24    3   22 1  
    25    6   23 1  
    26    7   24 1  
    27    8   25 1  
    28    8   26 1  
    29    9   27 1  
    30   10   28 1  
    31   12   29 1  
    32   13   30 1  
    33   14   31 1  
    34   15   32 1  
