#      Rotatable Fragment
#      Build by yxyuan
#
# Name:          frag3-137-36/96164
# Creation time: Sat Jun  5 12:53:04 2010


@<TRIPOS>MOLECULE
frag3-137-36/96164
    9     8     1     1     1
SMALL
USER_CHARGES


@<TRIPOS>ATOM
      1 N4         -2.0452    0.9538   -0.1984 N.am       1 <1>        0.000
      2 S1         -2.9461   -0.2902    0.1421 S.o2       1 <1>        0.000
      3 N5         -4.3275    0.4365   -0.0621 N.am       1 <1>        0.000
      4 O5         -2.8011   -1.1982   -0.9321 O.2        1 <1>        0.000
      5 O6         -2.8140   -0.5304    1.5322 O.2        1 <1>        0.000
      6 H          -1.5085    0.9727   -1.0656 H.spc      1 <1>        0.000
      7 H          -1.9978    1.7414    0.4480 H.spc      1 <1>        0.000
      8 H          -4.9135    0.2022   -0.8634 H.spc      1 <1>        0.000
      9 H          -4.6366    1.1417    0.6069 H.spc      1 <1>        0.000
@<TRIPOS>BOND
     1    1    2 1  
     2    2    3 1  
     3    2    4 2  
     4    2    5 2  
     5    1    6 1  
     6    1    7 1  
     7    3    8 1  
     8    3    9 1  
# Name:          frag3-137-36/96164 -- energy: -0.357678
# Creation time: Sat Jun  5 12:53:04 2010


@<TRIPOS>MOLECULE
frag3-137-36/96164 -- energy: -0.357678
    9     8     1     1     1
SMALL
USER_CHARGES


@<TRIPOS>ATOM
      1 N4         -2.0452    0.9538   -0.1984 N.am       1 <1>        0.000
      2 S1         -2.9461   -0.2902    0.1421 S.o2       1 <1>        0.000
      3 N5         -4.3275    0.4365   -0.0621 N.am       1 <1>        0.000
      4 O5         -2.8011   -1.1982   -0.9321 O.2        1 <1>        0.000
      5 O6         -2.8140   -0.5304    1.5322 O.2        1 <1>        0.000
      6 H          -1.5085    0.9727   -1.0656 H.spc      1 <1>        0.000
      7 H          -1.9978    1.7414    0.4480 H.spc      1 <1>        0.000
      8 H          -4.9135    0.2022   -0.8634 H.spc      1 <1>        0.000
      9 H          -4.6366    1.1417    0.6069 H.spc      1 <1>        0.000
@<TRIPOS>BOND
     1    1    2 1  
     2    2    3 1  
     3    2    4 2  
     4    2    5 2  
     5    1    6 1  
     6    1    7 1  
     7    3    8 1  
     8    3    9 1  
