#      Rotatable Fragment
#      Build by yxyuan
#
# Name:          frag3-113-73/31924
# Creation time: Sat Jun  5 12:52:02 2010


@<TRIPOS>MOLECULE
frag3-113-73/31924
    4     3     1     1     1
SMALL
USER_CHARGES


@<TRIPOS>ATOM
      1 S1          0.9561   -1.4901   -0.5643 S.3        1 <1>        0.000
      2 S2         -0.4615   -1.7911    0.8847 S.3        1 <1>        0.000
      3 H           0.6014   -2.1376   -1.6706 H.spc      1 <1>        0.000
      4 H          -0.1068   -1.1436    1.9910 H.spc      1 <1>        0.000
@<TRIPOS>BOND
     1    1    2 1  
     2    1    3 1  
     3    2    4 1  
# Name:          frag3-113-73/31924 -- energy: -0.002358
# Creation time: Sat Jun  5 12:52:02 2010


@<TRIPOS>MOLECULE
frag3-113-73/31924 -- energy: -0.002358
    4     3     1     1     1
SMALL
USER_CHARGES


@<TRIPOS>ATOM
      1 S1          0.9561   -1.4901   -0.5643 S.3        1 <1>        0.000
      2 S2         -0.4615   -1.7911    0.8847 S.3        1 <1>        0.000
      3 H           0.6014   -2.1376   -1.6706 H.spc      1 <1>        0.000
      4 H          -0.1068   -1.1436    1.9910 H.spc      1 <1>        0.000
@<TRIPOS>BOND
     1    1    2 1  
     2    1    3 1  
     3    2    4 1  
