#      Rotatable Fragment
#      Build by yxyuan
#
# Name:          frag2-047-33/92655
# Creation time: Sat Jun  5 12:51:57 2010


@<TRIPOS>MOLECULE
frag2-047-33/92655
   16    17     1     1     1
SMALL
USER_CHARGES


@<TRIPOS>ATOM
      1 C1          2.5701   -0.4515    0.1835 C.ar       1 <1>        0.000
      2 N2          1.4644   -1.2225    0.2122 N.ar       1 <1>        0.000
      3 C2          0.2344   -0.6764    0.0873 C.ar       1 <1>        0.000
      4 C3          0.1115    0.7075   -0.0729 C.ar       1 <1>        0.000
      5 N3          1.2264    1.4715   -0.1005 N.ar       1 <1>        0.000
      6 C4          2.4483    0.9174    0.0251 C.ar       1 <1>        0.000
      7 C5         -1.1561    1.2815   -0.2022 C.ar       1 <1>        0.000
      8 C6         -2.2934    0.4839   -0.1731 C.ar       1 <1>        0.000
      9 C7         -2.1730   -0.8973   -0.0139 C.ar       1 <1>        0.000
     10 C8         -0.9131   -1.4746    0.1170 C.ar       1 <1>        0.000
     11 H           3.5561   -0.9050    0.2847 H.spc      1 <1>        0.000
     12 H           3.3384    1.5461    0.0020 H.spc      1 <1>        0.000
     13 H          -1.2530    2.3600   -0.3265 H.spc      1 <1>        0.000
     14 H          -3.2796    0.9369   -0.2746 H.spc      1 <1>        0.000
     15 H          -3.0648   -1.5236    0.0079 H.spc      1 <1>        0.000
     16 H          -0.8208   -2.5533    0.2432 H.spc      1 <1>        0.000
@<TRIPOS>BOND
     1    8    9 ar 
     2    9   10 ar 
     3    1    2 ar 
     4    2    3 ar 
     5    1    6 ar 
     6    3    4 ar 
     7    3   10 ar 
     8    4    5 ar 
     9    4    7 ar 
    10    5    6 ar 
    11    7    8 ar 
    12    1   11 1  
    13    6   12 1  
    14    7   13 1  
    15    8   14 1  
    16    9   15 1  
    17   10   16 1  
# Name:          frag2-047-33/92655 -- energy: 0.197331
# Creation time: Sat Jun  5 12:51:57 2010


@<TRIPOS>MOLECULE
frag2-047-33/92655 -- energy: 0.197331
   16    17     1     1     1
SMALL
USER_CHARGES


@<TRIPOS>ATOM
      1 C1          2.5701   -0.4515    0.1835 C.ar       1 <1>        0.000
      2 N2          1.4644   -1.2225    0.2122 N.ar       1 <1>        0.000
      3 C2          0.2344   -0.6764    0.0873 C.ar       1 <1>        0.000
      4 C3          0.1115    0.7075   -0.0729 C.ar       1 <1>        0.000
      5 N3          1.2264    1.4715   -0.1005 N.ar       1 <1>        0.000
      6 C4          2.4483    0.9174    0.0251 C.ar       1 <1>        0.000
      7 C5         -1.1561    1.2815   -0.2022 C.ar       1 <1>        0.000
      8 C6         -2.2934    0.4839   -0.1731 C.ar       1 <1>        0.000
      9 C7         -2.1730   -0.8973   -0.0139 C.ar       1 <1>        0.000
     10 C8         -0.9131   -1.4746    0.1170 C.ar       1 <1>        0.000
     11 H           3.5561   -0.9050    0.2847 H.spc      1 <1>        0.000
     12 H           3.3384    1.5461    0.0020 H.spc      1 <1>        0.000
     13 H          -1.2530    2.3600   -0.3265 H.spc      1 <1>        0.000
     14 H          -3.2796    0.9369   -0.2746 H.spc      1 <1>        0.000
     15 H          -3.0648   -1.5236    0.0079 H.spc      1 <1>        0.000
     16 H          -0.8208   -2.5533    0.2432 H.spc      1 <1>        0.000
@<TRIPOS>BOND
     1    8    9 ar 
     2    9   10 ar 
     3    1    2 ar 
     4    2    3 ar 
     5    1    6 ar 
     6    3    4 ar 
     7    3   10 ar 
     8    4    5 ar 
     9    4    7 ar 
    10    5    6 ar 
    11    7    8 ar 
    12    1   11 1  
    13    6   12 1  
    14    7   13 1  
    15    8   14 1  
    16    9   15 1  
    17   10   16 1  
