#      Rotatable Fragment
#      Build by yxyuan
#
# Name:          frag4-375-270/150395
# Creation time: Sat Jun  5 12:53:32 2010


@<TRIPOS>MOLECULE
frag4-375-270/150395
   15    15     1     1     1
SMALL
USER_CHARGES


@<TRIPOS>ATOM
      1 C1         -2.4178   -1.1300   -0.2193 C.3        1 <1>        0.000
      2 C2         -2.2879    0.3284    0.0337 C.3        1 <1>        0.000
      3 C3         -3.7384   -1.5367    0.3665 C.3        1 <1>        0.000
      4 C4         -3.7312    0.6392   -0.0300 C.3        1 <1>        0.000
      5 C6         -4.7032   -0.4740   -0.0181 C.3        1 <1>        0.000
      6 H          -1.5970   -1.6839    0.2362 H.spc      1 <1>        0.000
      7 H          -2.3748   -1.3506   -1.2859 H.spc      1 <1>        0.000
      8 H          -1.6440    0.8818   -0.6499 H.spc      1 <1>        0.000
      9 H          -1.7719    0.6156    0.9499 H.spc      1 <1>        0.000
     10 H          -3.6747   -1.6382    1.4499 H.spc      1 <1>        0.000
     11 H          -4.0535   -2.5101   -0.0093 H.spc      1 <1>        0.000
     12 H          -3.8720    1.1255   -0.9953 H.spc      1 <1>        0.000
     13 H          -3.9381    1.2032    0.8795 H.spc      1 <1>        0.000
     14 H          -5.5704   -0.3511    0.6307 H.spc      1 <1>        0.000
     15 H          -5.2606   -0.6384   -0.9403 H.spc      1 <1>        0.000
@<TRIPOS>BOND
     1    1    2 1  
     2    1    3 1  
     3    2    4 1  
     4    3    5 1  
     5    4    5 1  
     6    1    6 1  
     7    1    7 1  
     8    2    8 1  
     9    2    9 1  
    10    3   10 1  
    11    3   11 1  
    12    4   12 1  
    13    4   13 1  
    14    5   14 1  
    15    5   15 1  
# Name:          frag4-375-270/150395 -- energy: -1.014502
# Creation time: Sat Jun  5 12:53:32 2010


@<TRIPOS>MOLECULE
frag4-375-270/150395 -- energy: -1.014502
   15    15     1     1     1
SMALL
USER_CHARGES


@<TRIPOS>ATOM
      1 C1         -2.4178   -1.1300   -0.2193 C.3        1 <1>        0.000
      2 C2         -2.2879    0.3284    0.0337 C.3        1 <1>        0.000
      3 C3         -3.7384   -1.5367    0.3665 C.3        1 <1>        0.000
      4 C4         -3.7312    0.6392   -0.0300 C.3        1 <1>        0.000
      5 C6         -4.7032   -0.4740   -0.0181 C.3        1 <1>        0.000
      6 H          -1.5970   -1.6839    0.2362 H.spc      1 <1>        0.000
      7 H          -2.3748   -1.3506   -1.2859 H.spc      1 <1>        0.000
      8 H          -1.6440    0.8818   -0.6499 H.spc      1 <1>        0.000
      9 H          -1.7719    0.6156    0.9499 H.spc      1 <1>        0.000
     10 H          -3.6747   -1.6382    1.4499 H.spc      1 <1>        0.000
     11 H          -4.0535   -2.5101   -0.0093 H.spc      1 <1>        0.000
     12 H          -3.8720    1.1255   -0.9953 H.spc      1 <1>        0.000
     13 H          -3.9381    1.2032    0.8795 H.spc      1 <1>        0.000
     14 H          -5.5704   -0.3511    0.6307 H.spc      1 <1>        0.000
     15 H          -5.2606   -0.6384   -0.9403 H.spc      1 <1>        0.000
@<TRIPOS>BOND
     1    1    2 1  
     2    1    3 1  
     3    2    4 1  
     4    3    5 1  
     5    4    5 1  
     6    1    6 1  
     7    1    7 1  
     8    2    8 1  
     9    2    9 1  
    10    3   10 1  
    11    3   11 1  
    12    4   12 1  
    13    4   13 1  
    14    5   14 1  
    15    5   15 1  
