#      Rotatable Fragment
#      Build by yxyuan
#
# Name:          frag4-398-60/48856
# Creation time: Sat Jun  5 12:53:48 2010


@<TRIPOS>MOLECULE
frag4-398-60/48856
   15    16     1     1     1
SMALL
USER_CHARGES


@<TRIPOS>ATOM
      1 C7          2.6043   -0.0788   -0.2498 C.2        1 <1>        0.000
      2 N2          1.8133    1.0534   -0.5174 N.2        1 <1>        0.000
      3 C8          0.5738    0.7270   -0.2652 C.2        1 <1>        0.000
      4 C9          0.6254   -0.7506   -0.0216 C.2        1 <1>        0.000
      5 O1          1.8949   -1.1414   -0.0965 O.3        1 <1>        0.000
      6 C10        -0.4886   -1.4477    0.1389 C.2        1 <1>        0.000
      7 C11        -1.7637   -0.7307    0.2458 C.3        1 <1>        0.000
      8 C12        -1.7775    0.7447    0.1670 C.2        1 <1>        0.000
      9 C13        -0.6736    1.4773   -0.0931 C.2        1 <1>        0.000
     10 H           3.6919   -0.0583   -0.1804 H.spc      1 <1>        0.000
     11 H          -0.4587   -2.5361    0.1907 H.spc      1 <1>        0.000
     12 H          -2.1255   -0.9576    1.2487 H.spc      1 <1>        0.000
     13 H          -2.3393   -1.0594   -0.6195 H.spc      1 <1>        0.000
     14 H          -2.7218    1.2653    0.3261 H.spc      1 <1>        0.000
     15 H          -0.7080    2.5640   -0.1706 H.spc      1 <1>        0.000
@<TRIPOS>BOND
     1    1    2 1  
     2    1    5 2  
     3    2    3 2  
     4    3    4 1  
     5    4    5 1  
     6    3    9 1  
     7    6    7 1  
     8    4    6 2  
     9    7    8 1  
    10    8    9 2  
    11    1   10 1  
    12    6   11 1  
    13    7   12 1  
    14    7   13 1  
    15    8   14 1  
    16    9   15 1  
# Name:          frag4-398-60/48856 -- energy: -0.730498
# Creation time: Sat Jun  5 12:53:48 2010


@<TRIPOS>MOLECULE
frag4-398-60/48856 -- energy: -0.730498
   15    16     1     1     1
SMALL
USER_CHARGES


@<TRIPOS>ATOM
      1 C7          2.6043   -0.0788   -0.2498 C.2        1 <1>        0.000
      2 N2          1.8133    1.0534   -0.5174 N.2        1 <1>        0.000
      3 C8          0.5738    0.7270   -0.2652 C.2        1 <1>        0.000
      4 C9          0.6254   -0.7506   -0.0216 C.2        1 <1>        0.000
      5 O1          1.8949   -1.1414   -0.0965 O.3        1 <1>        0.000
      6 C10        -0.4886   -1.4477    0.1389 C.2        1 <1>        0.000
      7 C11        -1.7637   -0.7307    0.2458 C.3        1 <1>        0.000
      8 C12        -1.7775    0.7447    0.1670 C.2        1 <1>        0.000
      9 C13        -0.6736    1.4773   -0.0931 C.2        1 <1>        0.000
     10 H           3.6919   -0.0583   -0.1804 H.spc      1 <1>        0.000
     11 H          -0.4587   -2.5361    0.1907 H.spc      1 <1>        0.000
     12 H          -2.1255   -0.9576    1.2487 H.spc      1 <1>        0.000
     13 H          -2.3393   -1.0594   -0.6195 H.spc      1 <1>        0.000
     14 H          -2.7218    1.2653    0.3261 H.spc      1 <1>        0.000
     15 H          -0.7080    2.5640   -0.1706 H.spc      1 <1>        0.000
@<TRIPOS>BOND
     1    1    2 1  
     2    1    5 2  
     3    2    3 2  
     4    3    4 1  
     5    4    5 1  
     6    3    9 1  
     7    6    7 1  
     8    4    6 2  
     9    7    8 1  
    10    8    9 2  
    11    1   10 1  
    12    6   11 1  
    13    7   12 1  
    14    7   13 1  
    15    8   14 1  
    16    9   15 1  
