#      Rotatable Fragment
#      Build by yxyuan
#
# Name:          frag3-281-2/31924
# Creation time: Sat Jun  5 12:52:45 2010


@<TRIPOS>MOLECULE
frag3-281-2/31924
   13    12     1     1     1
SMALL
USER_CHARGES


@<TRIPOS>ATOM
      1 N1          0.6640   -0.2668    1.1712 N.pl3      1 <1>        0.000
      2 N2          2.0301   -0.1900    1.2573 N.3        1 <1>        0.000
      3 C1         -0.0417    0.3055    0.1808 C.cat      1 <1>        0.000
      4 N3         -1.2840    0.5339    0.2691 N.pl3      1 <1>        0.000
      5 N4          0.6502    0.6324   -0.9343 N.pl3      1 <1>        0.000
      6 N5          0.0505    1.0945   -2.0698 N.3        1 <1>        0.000
      7 H           0.1596   -0.7823    1.8925 H.spc      1 <1>        0.000
      8 H           2.3463   -0.6950    2.0852 H.spc      1 <1>        0.000
      9 H           2.4460   -0.6063    0.4242 H.spc      1 <1>        0.000
     10 H          -1.7787    0.9711   -0.5084 H.spc      1 <1>        0.000
     11 H           1.6649    0.5290   -0.9263 H.spc      1 <1>        0.000
     12 H           0.7612    1.2755   -2.7787 H.spc      1 <1>        0.000
     13 H          -0.6056    0.3942   -2.4155 H.spc      1 <1>        0.000
@<TRIPOS>BOND
     1    1    2 1  
     2    1    3 ar 
     3    3    4 ar 
     4    3    5 ar 
     5    5    6 1  
     6    1    7 1  
     7    2    8 1  
     8    2    9 1  
     9    4   10 1  
    10    5   11 1  
    11    6   12 1  
    12    6   13 1  
# Name:          frag3-281-2/31924
# Creation time: Sat Jun  5 12:52:45 2010


@<TRIPOS>MOLECULE
frag3-281-2/31924
   13    12     1     1     1
SMALL
USER_CHARGES


@<TRIPOS>ATOM
      1 N1          0.5781    0.6846   -1.2982 N.pl3      1 <1>        0.000
      2 N2         -0.4311    1.1420   -2.1044 N.3        1 <1>        0.000
      3 C1          0.3202    0.3483   -0.0068 C.cat      1 <1>        0.000
      4 N3         -0.8653    0.4666    0.4609 N.pl3      1 <1>        0.000
      5 N4          1.3303   -0.1094    0.7496 N.pl3      1 <1>        0.000
      6 N5          1.1368   -0.4226    2.0732 N.3        1 <1>        0.000
      7 H           1.5246    0.5963   -1.6679 H.spc      1 <1>        0.000
      8 H          -0.0584    1.3440   -3.0322 H.spc      1 <1>        0.000
      9 H          -1.1570    0.4290   -2.1761 H.spc      1 <1>        0.000
     10 H          -1.0596    0.2105    1.4289 H.spc      1 <1>        0.000
     11 H           2.2551   -0.2264    0.3356 H.spc      1 <1>        0.000
     12 H           2.0148   -0.7508    2.4756 H.spc      1 <1>        0.000
     13 H           0.8206    0.4072    2.5750 H.spc      1 <1>        0.000
@<TRIPOS>BOND
     1    1    2 1  
     2    1    3 ar 
     3    3    4 ar 
     4    3    5 ar 
     5    5    6 1  
     6    1    7 1  
     7    2    8 1  
     8    2    9 1  
     9    4   10 1  
    10    5   11 1  
    11    6   12 1  
    12    6   13 1  
# Name:          frag3-281-2/31924
# Creation time: Sat Jun  5 12:52:45 2010


@<TRIPOS>MOLECULE
frag3-281-2/31924
   13    12     1     1     1
SMALL
USER_CHARGES


@<TRIPOS>ATOM
      1 N1          0.9586   -0.4911    0.7717 N.pl3      1 <1>        0.000
      2 N2          1.6481    0.1717    1.7557 N.3        1 <1>        0.000
      3 C1          0.0212    0.1276    0.0252 C.cat      1 <1>        0.000
      4 N3         -0.9513    0.7339    0.5827 N.pl3      1 <1>        0.000
      5 N4          0.2168    0.1754   -1.3111 N.pl3      1 <1>        0.000
      6 N5          0.1758    1.3921   -1.9499 N.3        1 <1>        0.000
      7 H           1.1601   -1.4763    0.6006 H.spc      1 <1>        0.000
      8 H           2.3059   -0.4694    2.1991 H.spc      1 <1>        0.000
      9 H           2.1582    0.9533    1.3443 H.spc      1 <1>        0.000
     10 H          -1.6072    1.2733    0.0177 H.spc      1 <1>        0.000
     11 H           0.3925   -0.6797   -1.8387 H.spc      1 <1>        0.000
     12 H           0.3411    1.2568   -2.9473 H.spc      1 <1>        0.000
     13 H          -0.7408    1.8172   -1.8105 H.spc      1 <1>        0.000
@<TRIPOS>BOND
     1    1    2 1  
     2    1    3 ar 
     3    3    4 ar 
     4    3    5 ar 
     5    5    6 1  
     6    1    7 1  
     7    2    8 1  
     8    2    9 1  
     9    4   10 1  
    10    5   11 1  
    11    6   12 1  
    12    6   13 1  
# Name:          frag3-281-2/31924
# Creation time: Sat Jun  5 12:52:45 2010


@<TRIPOS>MOLECULE
frag3-281-2/31924
   13    12     1     1     1
SMALL
USER_CHARGES


@<TRIPOS>ATOM
      1 N1          0.1337    1.0760   -0.8662 N.pl3      1 <1>        0.000
      2 N2          0.9990    0.5544   -1.8009 N.3        1 <1>        0.000
      3 C1         -0.2634    0.3862    0.2245 C.cat      1 <1>        0.000
      4 N3         -1.4432    0.5142    0.7074 N.pl3      1 <1>        0.000
      5 N4          0.6655   -0.4226    0.7746 N.pl3      1 <1>        0.000
      6 N5          1.9774    0.0014    0.8348 N.3        1 <1>        0.000
      7 H          -0.2220    2.0221   -1.0030 H.spc      1 <1>        0.000
      8 H           1.1602    1.2437   -2.5352 H.spc      1 <1>        0.000
      9 H           1.8843    0.3221   -1.3506 H.spc      1 <1>        0.000
     10 H          -1.7122   -0.0076    1.5415 H.spc      1 <1>        0.000
     11 H           0.4013   -1.3368    1.1418 H.spc      1 <1>        0.000
     12 H           2.5470   -0.7208    1.2757 H.spc      1 <1>        0.000
     13 H           2.3203    0.1772   -0.1096 H.spc      1 <1>        0.000
@<TRIPOS>BOND
     1    1    2 1  
     2    1    3 ar 
     3    3    4 ar 
     4    3    5 ar 
     5    5    6 1  
     6    1    7 1  
     7    2    8 1  
     8    2    9 1  
     9    4   10 1  
    10    5   11 1  
    11    6   12 1  
    12    6   13 1  
# Name:          frag3-281-2/31924 -- energy: -0.225898
# Creation time: Sat Jun  5 12:52:45 2010


@<TRIPOS>MOLECULE
frag3-281-2/31924 -- energy: -0.225898
   13    12     1     1     1
SMALL
USER_CHARGES


@<TRIPOS>ATOM
      1 N1          0.6640   -0.2668    1.1712 N.pl3      1 <1>        0.000
      2 N2          2.0301   -0.1900    1.2573 N.3        1 <1>        0.000
      3 C1         -0.0417    0.3055    0.1808 C.cat      1 <1>        0.000
      4 N3         -1.2840    0.5339    0.2691 N.pl3      1 <1>        0.000
      5 N4          0.6502    0.6324   -0.9343 N.pl3      1 <1>        0.000
      6 N5          0.0505    1.0945   -2.0698 N.3        1 <1>        0.000
      7 H           0.1596   -0.7823    1.8925 H.spc      1 <1>        0.000
      8 H           2.3463   -0.6950    2.0852 H.spc      1 <1>        0.000
      9 H           2.4460   -0.6063    0.4242 H.spc      1 <1>        0.000
     10 H          -1.7787    0.9711   -0.5084 H.spc      1 <1>        0.000
     11 H           1.6649    0.5290   -0.9263 H.spc      1 <1>        0.000
     12 H           0.7612    1.2755   -2.7787 H.spc      1 <1>        0.000
     13 H          -0.6056    0.3942   -2.4155 H.spc      1 <1>        0.000
@<TRIPOS>BOND
     1    1    2 1  
     2    1    3 ar 
     3    3    4 ar 
     4    3    5 ar 
     5    5    6 1  
     6    1    7 1  
     7    2    8 1  
     8    2    9 1  
     9    4   10 1  
    10    5   11 1  
    11    6   12 1  
    12    6   13 1  
# Name:          frag3-281-2/31924 -- energy: -0.567352
# Creation time: Sat Jun  5 12:52:45 2010


@<TRIPOS>MOLECULE
frag3-281-2/31924 -- energy: -0.567352
   13    12     1     1     1
SMALL
USER_CHARGES


@<TRIPOS>ATOM
      1 N1          0.5781    0.6846   -1.2982 N.pl3      1 <1>        0.000
      2 N2         -0.4311    1.1420   -2.1044 N.3        1 <1>        0.000
      3 C1          0.3202    0.3483   -0.0068 C.cat      1 <1>        0.000
      4 N3         -0.8653    0.4666    0.4609 N.pl3      1 <1>        0.000
      5 N4          1.3303   -0.1094    0.7496 N.pl3      1 <1>        0.000
      6 N5          1.1368   -0.4226    2.0732 N.3        1 <1>        0.000
      7 H           1.5246    0.5963   -1.6679 H.spc      1 <1>        0.000
      8 H          -0.0584    1.3440   -3.0322 H.spc      1 <1>        0.000
      9 H          -1.1570    0.4290   -2.1761 H.spc      1 <1>        0.000
     10 H          -1.0596    0.2105    1.4289 H.spc      1 <1>        0.000
     11 H           2.2551   -0.2264    0.3356 H.spc      1 <1>        0.000
     12 H           2.0148   -0.7508    2.4756 H.spc      1 <1>        0.000
     13 H           0.8206    0.4072    2.5750 H.spc      1 <1>        0.000
@<TRIPOS>BOND
     1    1    2 1  
     2    1    3 ar 
     3    3    4 ar 
     4    3    5 ar 
     5    5    6 1  
     6    1    7 1  
     7    2    8 1  
     8    2    9 1  
     9    4   10 1  
    10    5   11 1  
    11    6   12 1  
    12    6   13 1  
# Name:          frag3-281-2/31924 -- energy: -0.826934
# Creation time: Sat Jun  5 12:52:45 2010


@<TRIPOS>MOLECULE
frag3-281-2/31924 -- energy: -0.826934
   13    12     1     1     1
SMALL
USER_CHARGES


@<TRIPOS>ATOM
      1 N1          0.9586   -0.4911    0.7717 N.pl3      1 <1>        0.000
      2 N2          1.6481    0.1717    1.7557 N.3        1 <1>        0.000
      3 C1          0.0212    0.1276    0.0252 C.cat      1 <1>        0.000
      4 N3         -0.9513    0.7339    0.5827 N.pl3      1 <1>        0.000
      5 N4          0.2168    0.1754   -1.3111 N.pl3      1 <1>        0.000
      6 N5          0.1758    1.3921   -1.9499 N.3        1 <1>        0.000
      7 H           1.1601   -1.4763    0.6006 H.spc      1 <1>        0.000
      8 H           2.3059   -0.4694    2.1991 H.spc      1 <1>        0.000
      9 H           2.1582    0.9533    1.3443 H.spc      1 <1>        0.000
     10 H          -1.6072    1.2733    0.0177 H.spc      1 <1>        0.000
     11 H           0.3925   -0.6797   -1.8387 H.spc      1 <1>        0.000
     12 H           0.3411    1.2568   -2.9473 H.spc      1 <1>        0.000
     13 H          -0.7408    1.8172   -1.8105 H.spc      1 <1>        0.000
@<TRIPOS>BOND
     1    1    2 1  
     2    1    3 ar 
     3    3    4 ar 
     4    3    5 ar 
     5    5    6 1  
     6    1    7 1  
     7    2    8 1  
     8    2    9 1  
     9    4   10 1  
    10    5   11 1  
    11    6   12 1  
    12    6   13 1  
