#      Rotatable Fragment
#      Build by yxyuan
#
# Name:          frag3-109-93/31924
# Creation time: Sat Jun  5 12:52:00 2010


@<TRIPOS>MOLECULE
frag3-109-93/31924
    5     4     1     1     1
SMALL
USER_CHARGES


@<TRIPOS>ATOM
      1 S1          0.8991    0.8257   -0.1329 S.3        1 <1>        0.000
      2 C20        -0.5595   -0.0445   -0.0478 C.2        1 <1>        0.000
      3 O4         -1.5324    0.3017    0.6045 O.2        1 <1>        0.000
      4 H           1.7524    0.1814   -0.9239 H.spc      1 <1>        0.000
      5 H          -0.6310   -0.9736   -0.6133 H.spc      1 <1>        0.000
@<TRIPOS>BOND
     1    1    2 1  
     2    2    3 2  
     3    1    4 1  
     4    2    5 1  
# Name:          frag3-109-93/31924 -- energy: -0.027736
# Creation time: Sat Jun  5 12:52:00 2010


@<TRIPOS>MOLECULE
frag3-109-93/31924 -- energy: -0.027736
    5     4     1     1     1
SMALL
USER_CHARGES


@<TRIPOS>ATOM
      1 S1          0.8991    0.8257   -0.1329 S.3        1 <1>        0.000
      2 C20        -0.5595   -0.0445   -0.0478 C.2        1 <1>        0.000
      3 O4         -1.5324    0.3017    0.6045 O.2        1 <1>        0.000
      4 H           1.7524    0.1814   -0.9239 H.spc      1 <1>        0.000
      5 H          -0.6310   -0.9736   -0.6133 H.spc      1 <1>        0.000
@<TRIPOS>BOND
     1    1    2 1  
     2    2    3 2  
     3    1    4 1  
     4    2    5 1  
