#      Rotatable Fragment
#      Build by yxyuan
#
# Name:          frag3-234-3/31924
# Creation time: Sat Jun  5 12:52:25 2010


@<TRIPOS>MOLECULE
frag3-234-3/31924
   12    11     1     1     1
SMALL
USER_CHARGES


@<TRIPOS>ATOM
      1 S1         -0.7801    0.3033    0.6075 S.3        1 <1>        0.000
      2 S2          0.7756   -0.6404   -0.2235 S.3        1 <1>        0.000
      3 S3          1.7764    0.9483   -0.8969 S.3        1 <1>        0.000
      4 C1          2.6511    1.3849    0.5473 C.2        1 <1>        0.000
      5 S4          2.9902    2.9749    0.9939 S.2        1 <1>        0.000
      6 O1          3.0555    0.3456    1.3500 O.3        1 <1>        0.000
      7 S5         -1.8970    0.5434   -1.0281 S.3        1 <1>        0.000
      8 C3         -2.6552   -1.0271   -1.1127 C.2        1 <1>        0.000
      9 S6         -3.0456   -1.8042   -2.5566 S.2        1 <1>        0.000
     10 O2         -2.9194   -1.6383    0.0892 O.3        1 <1>        0.000
     11 H           2.7855   -0.4865    0.9545 H.spc      1 <1>        0.000
     12 H          -2.6381   -1.0658    0.8067 H.spc      1 <1>        0.000
@<TRIPOS>BOND
     1    1    2 1  
     2    1    7 1  
     3    2    3 1  
     4    3    4 1  
     5    4    5 2  
     6    4    6 1  
     7    7    8 1  
     8    8    9 2  
     9    8   10 1  
    10    6   11 1  
    11   10   12 1  
# Name:          frag3-234-3/31924
# Creation time: Sat Jun  5 12:52:25 2010


@<TRIPOS>MOLECULE
frag3-234-3/31924
   12    11     1     1     1
SMALL
USER_CHARGES


@<TRIPOS>ATOM
      1 S1          0.8396   -0.5714   -0.1432 S.3        1 <1>        0.000
      2 S2         -0.8695    0.1450    0.5935 S.3        1 <1>        0.000
      3 S3         -1.8461    0.4158   -1.1271 S.3        1 <1>        0.000
      4 C1         -2.5434   -1.1642   -1.3149 C.2        1 <1>        0.000
      5 S4         -4.2050   -1.4408   -1.1857 S.2        1 <1>        0.000
      6 O1         -1.6921   -2.2197   -1.5104 O.3        1 <1>        0.000
      7 S5          1.6513    1.1486   -0.7455 S.3        1 <1>        0.000
      8 C3          2.5466    1.5812    0.6781 C.2        1 <1>        0.000
      9 S6          4.2015    1.9034    0.6533 S.2        1 <1>        0.000
     10 O2          1.8686    1.5925    1.8720 O.3        1 <1>        0.000
     11 H          -0.7897   -1.8962   -1.5619 H.spc      1 <1>        0.000
     12 H           0.9431    1.3916    1.7150 H.spc      1 <1>        0.000
@<TRIPOS>BOND
     1    1    2 1  
     2    1    7 1  
     3    2    3 1  
     4    3    4 1  
     5    4    5 2  
     6    4    6 1  
     7    7    8 1  
     8    8    9 2  
     9    8   10 1  
    10    6   11 1  
    11   10   12 1  
# Name:          frag3-234-3/31924
# Creation time: Sat Jun  5 12:52:25 2010


@<TRIPOS>MOLECULE
frag3-234-3/31924
   12    11     1     1     1
SMALL
USER_CHARGES


@<TRIPOS>ATOM
      1 S1         -1.1129    1.8398   -0.2461 S.3        1 <1>        0.000
      2 S2          0.5319    1.8110   -1.3604 S.3        1 <1>        0.000
      3 S3          1.2561    0.0027   -0.9387 S.3        1 <1>        0.000
      4 C1          2.0697    0.3493    0.5449 C.2        1 <1>        0.000
      5 S4          1.4490    0.0350    2.0827 S.2        1 <1>        0.000
      6 O1          3.2771    0.9875    0.4282 O.3        1 <1>        0.000
      7 S5         -2.2604    0.6134   -1.3114 S.3        1 <1>        0.000
      8 C3         -1.8846   -0.9372   -0.6408 C.2        1 <1>        0.000
      9 S6         -1.4882   -2.3088   -1.5256 S.2        1 <1>        0.000
     10 O2         -1.8862   -1.0024    0.7372 O.3        1 <1>        0.000
     11 H           3.4933    1.0933   -0.5011 H.spc      1 <1>        0.000
     12 H          -2.1308   -0.1465    1.0966 H.spc      1 <1>        0.000
@<TRIPOS>BOND
     1    1    2 1  
     2    1    7 1  
     3    2    3 1  
     4    3    4 1  
     5    4    5 2  
     6    4    6 1  
     7    7    8 1  
     8    8    9 2  
     9    8   10 1  
    10    6   11 1  
    11   10   12 1  
# Name:          frag3-234-3/31924
# Creation time: Sat Jun  5 12:52:25 2010


@<TRIPOS>MOLECULE
frag3-234-3/31924
   12    11     1     1     1
SMALL
USER_CHARGES


@<TRIPOS>ATOM
      1 S1         -0.2139    0.5797    0.8093 S.3        1 <1>        0.000
      2 S2          0.2461   -0.8129   -0.5549 S.3        1 <1>        0.000
      3 S3         -1.1237   -0.3614   -1.9319 S.3        1 <1>        0.000
      4 C1         -2.4917   -1.2303   -1.2816 C.2        1 <1>        0.000
      5 S4         -4.0750   -0.6489   -1.3272 S.2        1 <1>        0.000
      6 O1         -2.2196   -2.4393   -0.6905 O.3        1 <1>        0.000
      7 S5          0.9296    2.0633    0.1234 S.3        1 <1>        0.000
      8 C3          2.4922    1.5527    0.7445 C.2        1 <1>        0.000
      9 S6          3.9255    1.6893   -0.1211 S.2        1 <1>        0.000
     10 O2          2.4822    0.9983    2.0001 O.3        1 <1>        0.000
     11 H          -1.2785   -2.6190   -0.7506 H.spc      1 <1>        0.000
     12 H           1.5854    1.0010    2.3427 H.spc      1 <1>        0.000
@<TRIPOS>BOND
     1    1    2 1  
     2    1    7 1  
     3    2    3 1  
     4    3    4 1  
     5    4    5 2  
     6    4    6 1  
     7    7    8 1  
     8    8    9 2  
     9    8   10 1  
    10    6   11 1  
    11   10   12 1  
# Name:          frag3-234-3/31924
# Creation time: Sat Jun  5 12:52:25 2010


@<TRIPOS>MOLECULE
frag3-234-3/31924
   12    11     1     1     1
SMALL
USER_CHARGES


@<TRIPOS>ATOM
      1 S1         -0.2858    1.9602   -0.6268 S.3        1 <1>        0.000
      2 S2         -1.7006    1.1918    0.5252 S.3        1 <1>        0.000
      3 S3         -1.0939   -0.6973    0.6865 S.3        1 <1>        0.000
      4 C1         -1.7650   -1.3490   -0.7649 C.2        1 <1>        0.000
      5 S4         -0.9078   -1.6092   -2.1943 S.2        1 <1>        0.000
      6 O1         -3.1143   -1.5960   -0.7404 O.3        1 <1>        0.000
      7 S5          1.1841    2.1114    0.7172 S.3        1 <1>        0.000
      8 C3          2.2163    0.8116    0.2634 C.2        1 <1>        0.000
      9 S6          3.3987    0.9773   -0.9354 S.2        1 <1>        0.000
     10 O2          2.0199   -0.4104    0.8396 O.3        1 <1>        0.000
     11 H          -3.4580   -1.4026    0.1348 H.spc      1 <1>        0.000
     12 H           1.3221   -0.3452    1.4956 H.spc      1 <1>        0.000
@<TRIPOS>BOND
     1    1    2 1  
     2    1    7 1  
     3    2    3 1  
     4    3    4 1  
     5    4    5 2  
     6    4    6 1  
     7    7    8 1  
     8    8    9 2  
     9    8   10 1  
    10    6   11 1  
    11   10   12 1  
# Name:          frag3-234-3/31924
# Creation time: Sat Jun  5 12:52:25 2010


@<TRIPOS>MOLECULE
frag3-234-3/31924
   12    11     1     1     1
SMALL
USER_CHARGES


@<TRIPOS>ATOM
      1 S1          0.7627   -0.8948    0.5907 S.3        1 <1>        0.000
      2 S2         -1.0013   -0.3325    1.3155 S.3        1 <1>        0.000
      3 S3         -2.1932   -1.5705    0.3110 S.3        1 <1>        0.000
      4 C1         -2.4021   -0.6860   -1.1713 C.2        1 <1>        0.000
      5 S4         -1.5511   -1.0251   -2.5957 S.2        1 <1>        0.000
      6 O1         -3.2689    0.3708   -1.1332 O.3        1 <1>        0.000
      7 S5          1.1504    0.5792   -0.6809 S.3        1 <1>        0.000
      8 C3          2.4582    1.3697    0.1303 C.2        1 <1>        0.000
      9 S6          2.5103    3.0217    0.4572 S.2        1 <1>        0.000
     10 O2          3.4866    0.5577    0.5464 O.3        1 <1>        0.000
     11 H          -3.6668    0.4256   -0.2612 H.spc      1 <1>        0.000
     12 H           3.3046   -0.3474    0.2833 H.spc      1 <1>        0.000
@<TRIPOS>BOND
     1    1    2 1  
     2    1    7 1  
     3    2    3 1  
     4    3    4 1  
     5    4    5 2  
     6    4    6 1  
     7    7    8 1  
     8    8    9 2  
     9    8   10 1  
    10    6   11 1  
    11   10   12 1  
# Name:          frag3-234-3/31924
# Creation time: Sat Jun  5 12:52:25 2010


@<TRIPOS>MOLECULE
frag3-234-3/31924
   12    11     1     1     1
SMALL
USER_CHARGES


@<TRIPOS>ATOM
      1 S1         -0.8815    1.2460   -0.3340 S.3        1 <1>        0.000
      2 S2          0.7432    0.8202   -1.4149 S.3        1 <1>        0.000
      3 S3          1.7600   -0.2921   -0.1297 S.3        1 <1>        0.000
      4 C1          2.5230    0.9651    0.8125 C.2        1 <1>        0.000
      5 S4          2.7493    0.8774    2.4818 S.2        1 <1>        0.000
      6 O1          2.9269    2.0817    0.1229 O.3        1 <1>        0.000
      7 S5         -2.2822    0.5024   -1.5213 S.3        1 <1>        0.000
      8 C3         -2.4609   -1.1089   -0.8865 C.2        1 <1>        0.000
      9 S6         -2.9899   -2.4231   -1.7989 S.2        1 <1>        0.000
     10 O2         -2.1362   -1.2784    0.4382 O.3        1 <1>        0.000
     11 H           2.7268    1.9705   -0.8094 H.spc      1 <1>        0.000
     12 H          -1.8561   -0.4379    0.8079 H.spc      1 <1>        0.000
@<TRIPOS>BOND
     1    1    2 1  
     2    1    7 1  
     3    2    3 1  
     4    3    4 1  
     5    4    5 2  
     6    4    6 1  
     7    7    8 1  
     8    8    9 2  
     9    8   10 1  
    10    6   11 1  
    11   10   12 1  
# Name:          frag3-234-3/31924
# Creation time: Sat Jun  5 12:52:25 2010


@<TRIPOS>MOLECULE
frag3-234-3/31924
   12    11     1     1     1
SMALL
USER_CHARGES


@<TRIPOS>ATOM
      1 S1         -0.8954    0.4578    0.1382 S.3        1 <1>        0.000
      2 S2          0.8654   -0.2057   -0.5082 S.3        1 <1>        0.000
      3 S3          1.8354    1.5249   -0.6839 S.3        1 <1>        0.000
      4 C1          2.9042    1.4087    0.6841 C.2        1 <1>        0.000
      5 S4          3.0266    2.6021    1.8751 S.2        1 <1>        0.000
      6 O1          3.6469    0.2614    0.7805 O.3        1 <1>        0.000
      7 S5         -1.9708    0.2212   -1.5220 S.3        1 <1>        0.000
      8 C3         -2.9049   -1.1814   -1.0821 C.2        1 <1>        0.000
      9 S6         -2.9760   -2.5860   -2.0196 S.2        1 <1>        0.000
     10 O2         -3.5799   -1.1127    0.1078 O.3        1 <1>        0.000
     11 H           3.4588   -0.3044    0.0281 H.spc      1 <1>        0.000
     12 H          -3.4334   -0.2526    0.5083 H.spc      1 <1>        0.000
@<TRIPOS>BOND
     1    1    2 1  
     2    1    7 1  
     3    2    3 1  
     4    3    4 1  
     5    4    5 2  
     6    4    6 1  
     7    7    8 1  
     8    8    9 2  
     9    8   10 1  
    10    6   11 1  
    11   10   12 1  
# Name:          frag3-234-3/31924
# Creation time: Sat Jun  5 12:52:25 2010


@<TRIPOS>MOLECULE
frag3-234-3/31924
   12    11     1     1     1
SMALL
USER_CHARGES


@<TRIPOS>ATOM
      1 S1          0.8493   -1.1905    0.4791 S.3        1 <1>        0.000
      2 S2         -0.6768   -0.0841    1.1628 S.3        1 <1>        0.000
      3 S3         -1.3760    0.6660   -0.5357 S.3        1 <1>        0.000
      4 C1         -2.2853   -0.7061   -1.1116 C.2        1 <1>        0.000
      5 S4         -2.2446   -1.2645   -2.7015 S.2        1 <1>        0.000
      6 O1         -3.0480   -1.3620   -0.1759 O.3        1 <1>        0.000
      7 S5          2.3589   -0.0693    1.1057 S.3        1 <1>        0.000
      8 C3          2.1698    1.3499    0.1026 C.2        1 <1>        0.000
      9 S6          2.5236    2.9161    0.6089 S.2        1 <1>        0.000
     10 O2          1.6808    1.1348   -1.1645 O.3        1 <1>        0.000
     11 H          -2.9618   -0.9204    0.6721 H.spc      1 <1>        0.000
     12 H           1.5327    0.1952   -1.2939 H.spc      1 <1>        0.000
@<TRIPOS>BOND
     1    1    2 1  
     2    1    7 1  
     3    2    3 1  
     4    3    4 1  
     5    4    5 2  
     6    4    6 1  
     7    7    8 1  
     8    8    9 2  
     9    8   10 1  
    10    6   11 1  
    11   10   12 1  
# Name:          frag3-234-3/31924
# Creation time: Sat Jun  5 12:52:25 2010


@<TRIPOS>MOLECULE
frag3-234-3/31924
   12    11     1     1     1
SMALL
USER_CHARGES


@<TRIPOS>ATOM
      1 S1         -1.7435    1.4855   -0.3481 S.3        1 <1>        0.000
      2 S2          0.0354    1.3613   -1.2324 S.3        1 <1>        0.000
      3 S3          1.1739    2.1651    0.1889 S.3        1 <1>        0.000
      4 C1          2.3278    0.9127    0.4756 C.2        1 <1>        0.000
      5 S4          3.9869    1.2003    0.5774 S.2        1 <1>        0.000
      6 O1          1.8502   -0.3708    0.5619 O.3        1 <1>        0.000
      7 S5         -1.7472   -0.2301    0.6598 S.3        1 <1>        0.000
      8 C3         -1.9606   -1.3527   -0.6629 C.2        1 <1>        0.000
      9 S6         -1.0902   -2.7865   -0.8323 S.2        1 <1>        0.000
     10 O2         -2.8811   -0.9945   -1.6181 O.3        1 <1>        0.000
     11 H           0.8932   -0.3607    0.4862 H.spc      1 <1>        0.000
     12 H          -3.2856   -0.1589   -1.3736 H.spc      1 <1>        0.000
@<TRIPOS>BOND
     1    1    2 1  
     2    1    7 1  
     3    2    3 1  
     4    3    4 1  
     5    4    5 2  
     6    4    6 1  
     7    7    8 1  
     8    8    9 2  
     9    8   10 1  
    10    6   11 1  
    11   10   12 1  
# Name:          frag3-234-3/31924
# Creation time: Sat Jun  5 12:52:25 2010


@<TRIPOS>MOLECULE
frag3-234-3/31924
   12    11     1     1     1
SMALL
USER_CHARGES


@<TRIPOS>ATOM
      1 S1          0.3642   -0.3331    1.2964 S.3        1 <1>        0.000
      2 S2         -1.5357    0.2458    1.2514 S.3        1 <1>        0.000
      3 S3         -1.7476    0.5990   -0.6988 S.3        1 <1>        0.000
      4 C1         -2.1315   -1.0081   -1.2517 C.2        1 <1>        0.000
      5 S4         -1.4360   -1.7264   -2.6103 S.2        1 <1>        0.000
      6 O1         -3.0383   -1.7089   -0.4948 O.3        1 <1>        0.000
      7 S5          1.2488    1.4560    1.3186 S.3        1 <1>        0.000
      8 C3          2.3591    1.3239   -0.0002 C.2        1 <1>        0.000
      9 S6          3.9933    1.7258    0.1372 S.2        1 <1>        0.000
     10 O2          1.8753    0.8163   -1.1778 O.3        1 <1>        0.000
     11 H          -3.3355   -1.1608    0.2352 H.spc      1 <1>        0.000
     12 H           0.9354    0.6428   -1.0880 H.spc      1 <1>        0.000
@<TRIPOS>BOND
     1    1    2 1  
     2    1    7 1  
     3    2    3 1  
     4    3    4 1  
     5    4    5 2  
     6    4    6 1  
     7    7    8 1  
     8    8    9 2  
     9    8   10 1  
    10    6   11 1  
    11   10   12 1  
# Name:          frag3-234-3/31924
# Creation time: Sat Jun  5 12:52:25 2010


@<TRIPOS>MOLECULE
frag3-234-3/31924
   12    11     1     1     1
SMALL
USER_CHARGES


@<TRIPOS>ATOM
      1 S1         -0.8151    1.3171   -1.6318 S.3        1 <1>        0.000
      2 S2         -0.2273    1.9420    0.1536 S.3        1 <1>        0.000
      3 S3          0.6217    0.2979    0.8739 S.3        1 <1>        0.000
      4 C1          2.2789    0.6359    0.5647 C.2        1 <1>        0.000
      5 S4          3.4046    0.8929    1.7890 S.2        1 <1>        0.000
      6 O1          2.6667    0.7817   -0.7458 O.3        1 <1>        0.000
      7 S5         -2.5376    0.4487   -1.1094 S.3        1 <1>        0.000
      8 C3         -2.0047   -1.1538   -0.7393 C.2        1 <1>        0.000
      9 S6         -1.5519   -2.2507   -1.9519 S.2        1 <1>        0.000
     10 O2         -1.8837   -1.5211    0.5672 O.3        1 <1>        0.000
     11 H           1.9193    0.6032   -1.3213 H.spc      1 <1>        0.000
     12 H          -2.1770   -0.8004    1.1295 H.spc      1 <1>        0.000
@<TRIPOS>BOND
     1    1    2 1  
     2    1    7 1  
     3    2    3 1  
     4    3    4 1  
     5    4    5 2  
     6    4    6 1  
     7    7    8 1  
     8    8    9 2  
     9    8   10 1  
    10    6   11 1  
    11   10   12 1  
# Name:          frag3-234-3/31924
# Creation time: Sat Jun  5 12:52:25 2010


@<TRIPOS>MOLECULE
frag3-234-3/31924
   12    11     1     1     1
SMALL
USER_CHARGES


@<TRIPOS>ATOM
      1 S1          0.0426    0.8162    0.6813 S.3        1 <1>        0.000
      2 S2         -0.0998   -0.8723   -0.3558 S.3        1 <1>        0.000
      3 S3         -1.4112   -0.2796   -1.7425 S.3        1 <1>        0.000
      4 C1         -2.8191   -1.1315   -1.1990 C.2        1 <1>        0.000
      5 S4         -3.4017   -2.5059   -1.9997 S.2        1 <1>        0.000
      6 O1         -3.4269   -0.7012   -0.0535 O.3        1 <1>        0.000
      7 S5          1.4446    1.7324   -0.4161 S.3        1 <1>        0.000
      8 C3          2.8268    1.4627    0.5990 C.2        1 <1>        0.000
      9 S6          3.2809    2.5737    1.7997 S.2        1 <1>        0.000
     10 O2          3.5154    0.2959    0.4566 O.3        1 <1>        0.000
     11 H          -2.9776    0.0828    0.2707 H.spc      1 <1>        0.000
     12 H           3.1334   -0.2143   -0.2613 H.spc      1 <1>        0.000
@<TRIPOS>BOND
     1    1    2 1  
     2    1    7 1  
     3    2    3 1  
     4    3    4 1  
     5    4    5 2  
     6    4    6 1  
     7    7    8 1  
     8    8    9 2  
     9    8   10 1  
    10    6   11 1  
    11   10   12 1  
# Name:          frag3-234-3/31924
# Creation time: Sat Jun  5 12:52:25 2010


@<TRIPOS>MOLECULE
frag3-234-3/31924
   12    11     1     1     1
SMALL
USER_CHARGES


@<TRIPOS>ATOM
      1 S1          0.6761    1.1112   -1.9436 S.3        1 <1>        0.000
      2 S2         -1.2644    1.5468   -1.8200 S.3        1 <1>        0.000
      3 S3         -2.0525   -0.2642   -1.8180 S.3        1 <1>        0.000
      4 C1         -1.5668   -0.8420   -0.2459 C.2        1 <1>        0.000
      5 S4         -1.1345   -2.4351    0.0846 S.2        1 <1>        0.000
      6 O1         -1.5252    0.0978    0.7583 O.3        1 <1>        0.000
      7 S5          1.3653    1.8930   -0.2636 S.3        1 <1>        0.000
      8 C3          1.7250    0.4894    0.6817 C.2        1 <1>        0.000
      9 S6          1.6463    0.4302    2.3611 S.2        1 <1>        0.000
     10 O2          2.0823   -0.6367   -0.0247 O.3        1 <1>        0.000
     11 H          -1.7988    0.9494    0.4096 H.spc      1 <1>        0.000
     12 H           2.0797   -0.4381   -0.9639 H.spc      1 <1>        0.000
@<TRIPOS>BOND
     1    1    2 1  
     2    1    7 1  
     3    2    3 1  
     4    3    4 1  
     5    4    5 2  
     6    4    6 1  
     7    7    8 1  
     8    8    9 2  
     9    8   10 1  
    10    6   11 1  
    11   10   12 1  
# Name:          frag3-234-3/31924
# Creation time: Sat Jun  5 12:52:25 2010


@<TRIPOS>MOLECULE
frag3-234-3/31924
   12    11     1     1     1
SMALL
USER_CHARGES


@<TRIPOS>ATOM
      1 S1         -1.0235    0.4043    0.7124 S.3        1 <1>        0.000
      2 S2          0.5680   -0.5879    1.3772 S.3        1 <1>        0.000
      3 S3          1.7426    0.9382    1.8733 S.3        1 <1>        0.000
      4 C1          2.4770    1.2897    0.3359 C.2        1 <1>        0.000
      5 S4          1.9818    2.5588   -0.6706 S.2        1 <1>        0.000
      6 O1          3.4692    0.4435   -0.0738 O.3        1 <1>        0.000
      7 S5         -0.9239    0.0115   -1.2296 S.3        1 <1>        0.000
      8 C3         -2.3298   -0.9815   -1.4258 C.2        1 <1>        0.000
      9 S6         -3.5419   -0.6337   -2.5483 S.2        1 <1>        0.000
     10 O2         -2.4678   -2.0526   -0.5806 O.3        1 <1>        0.000
     11 H           3.6285   -0.2144    0.6069 H.spc      1 <1>        0.000
     12 H          -1.6976   -2.1102   -0.0105 H.spc      1 <1>        0.000
@<TRIPOS>BOND
     1    1    2 1  
     2    1    7 1  
     3    2    3 1  
     4    3    4 1  
     5    4    5 2  
     6    4    6 1  
     7    7    8 1  
     8    8    9 2  
     9    8   10 1  
    10    6   11 1  
    11   10   12 1  
# Name:          frag3-234-3/31924
# Creation time: Sat Jun  5 12:52:25 2010


@<TRIPOS>MOLECULE
frag3-234-3/31924
   12    11     1     1     1
SMALL
USER_CHARGES


@<TRIPOS>ATOM
      1 S1         -0.2484    2.3612    0.3542 S.3        1 <1>        0.000
      2 S2         -1.6849    1.6195   -0.7772 S.3        1 <1>        0.000
      3 S3         -2.2263    0.0122    0.2635 S.3        1 <1>        0.000
      4 C1         -1.4772   -1.2383   -0.6542 C.2        1 <1>        0.000
      5 S4         -1.9529   -1.5772   -2.2525 S.2        1 <1>        0.000
      6 O1         -0.4455   -1.9309   -0.1050 O.3        1 <1>        0.000
      7 S5          1.3709    1.8318   -0.6384 S.3        1 <1>        0.000
      8 C3          1.9897    0.5102    0.2794 C.2        1 <1>        0.000
      9 S6          3.2120   -0.5194   -0.2221 S.2        1 <1>        0.000
     10 O2          1.4142    0.3212    1.5223 O.3        1 <1>        0.000
     11 H          -0.2999   -1.6267    0.7938 H.spc      1 <1>        0.000
     12 H           0.7352    0.9850    1.6636 H.spc      1 <1>        0.000
@<TRIPOS>BOND
     1    1    2 1  
     2    1    7 1  
     3    2    3 1  
     4    3    4 1  
     5    4    5 2  
     6    4    6 1  
     7    7    8 1  
     8    8    9 2  
     9    8   10 1  
    10    6   11 1  
    11   10   12 1  
# Name:          frag3-234-3/31924
# Creation time: Sat Jun  5 12:52:25 2010


@<TRIPOS>MOLECULE
frag3-234-3/31924
   12    11     1     1     1
SMALL
USER_CHARGES


@<TRIPOS>ATOM
      1 S1         -1.3480    1.2809    0.2696 S.3        1 <1>        0.000
      2 S2         -0.0724    1.8793   -1.1220 S.3        1 <1>        0.000
      3 S3          1.4597    2.3970    0.0371 S.3        1 <1>        0.000
      4 C1          2.1556    0.8592    0.3846 C.2        1 <1>        0.000
      5 S4          2.9232   -0.0761   -0.8013 S.2        1 <1>        0.000
      6 O1          2.0149    0.3366    1.6375 O.3        1 <1>        0.000
      7 S5         -0.8489   -0.6200    0.5397 S.3        1 <1>        0.000
      8 C3         -1.8300   -1.3641   -0.6548 C.2        1 <1>        0.000
      9 S6         -1.4258   -1.5516   -2.2805 S.2        1 <1>        0.000
     10 O2         -3.0767   -1.7509   -0.2399 O.3        1 <1>        0.000
     11 H           1.5658    0.9722    2.1995 H.spc      1 <1>        0.000
     12 H          -3.1646   -1.5867    0.7019 H.spc      1 <1>        0.000
@<TRIPOS>BOND
     1    1    2 1  
     2    1    7 1  
     3    2    3 1  
     4    3    4 1  
     5    4    5 2  
     6    4    6 1  
     7    7    8 1  
     8    8    9 2  
     9    8   10 1  
    10    6   11 1  
    11   10   12 1  
# Name:          frag3-234-3/31924
# Creation time: Sat Jun  5 12:52:25 2010


@<TRIPOS>MOLECULE
frag3-234-3/31924
   12    11     1     1     1
SMALL
USER_CHARGES


@<TRIPOS>ATOM
      1 S1          0.6698    0.6398   -1.2859 S.3        1 <1>        0.000
      2 S2         -0.9166    1.3151   -0.2780 S.3        1 <1>        0.000
      3 S3         -2.3744    0.6459   -1.4304 S.3        1 <1>        0.000
      4 C1         -2.4847   -1.0111   -0.9101 C.2        1 <1>        0.000
      5 S4         -2.5955   -2.3259   -1.9579 S.2        1 <1>        0.000
      6 O1         -2.4508   -1.2213    0.4485 O.3        1 <1>        0.000
      7 S5          1.6041   -0.4100    0.1152 S.3        1 <1>        0.000
      8 C3          2.5964    0.8490    0.7951 C.2        1 <1>        0.000
      9 S6          2.0754    1.8823    2.0359 S.2        1 <1>        0.000
     10 O2          3.8279    1.0266    0.2376 O.3        1 <1>        0.000
     11 H          -2.3871   -0.3767    0.9004 H.spc      1 <1>        0.000
     12 H           3.9679    0.3650   -0.4438 H.spc      1 <1>        0.000
@<TRIPOS>BOND
     1    1    2 1  
     2    1    7 1  
     3    2    3 1  
     4    3    4 1  
     5    4    5 2  
     6    4    6 1  
     7    7    8 1  
     8    8    9 2  
     9    8   10 1  
    10    6   11 1  
    11   10   12 1  
# Name:          frag3-234-3/31924
# Creation time: Sat Jun  5 12:52:25 2010


@<TRIPOS>MOLECULE
frag3-234-3/31924
   12    11     1     1     1
SMALL
USER_CHARGES


@<TRIPOS>ATOM
      1 S1         -0.9033   -0.6208    1.4047 S.3        1 <1>        0.000
      2 S2          0.8745   -1.2454    0.7968 S.3        1 <1>        0.000
      3 S3          2.0131    0.2684    1.3978 S.3        1 <1>        0.000
      4 C1          2.1411    1.2248   -0.0284 C.2        1 <1>        0.000
      5 S4          1.3903    2.7108   -0.2762 S.2        1 <1>        0.000
      6 O1          2.8757    0.6699   -1.0510 O.3        1 <1>        0.000
      7 S5         -1.3963    0.6647   -0.0326 S.3        1 <1>        0.000
      8 C3         -2.1654   -0.4034   -1.1416 C.2        1 <1>        0.000
      9 S6         -1.3670   -1.2992   -2.3320 S.2        1 <1>        0.000
     10 O2         -3.5110   -0.5795   -0.9676 O.3        1 <1>        0.000
     11 H           3.2398   -0.1703   -0.7626 H.spc      1 <1>        0.000
     12 H          -3.8189   -0.0067   -0.2614 H.spc      1 <1>        0.000
@<TRIPOS>BOND
     1    1    2 1  
     2    1    7 1  
     3    2    3 1  
     4    3    4 1  
     5    4    5 2  
     6    4    6 1  
     7    7    8 1  
     8    8    9 2  
     9    8   10 1  
    10    6   11 1  
    11   10   12 1  
# Name:          frag3-234-3/31924
# Creation time: Sat Jun  5 12:52:25 2010


@<TRIPOS>MOLECULE
frag3-234-3/31924
   12    11     1     1     1
SMALL
USER_CHARGES


@<TRIPOS>ATOM
      1 S1         -1.3841   -0.8665    1.6703 S.3        1 <1>        0.000
      2 S2          0.4699   -0.2003    1.8794 S.3        1 <1>        0.000
      3 S3          0.4271    1.4131    0.7122 S.3        1 <1>        0.000
      4 C1          1.8097    1.1753   -0.2912 C.2        1 <1>        0.000
      5 S4          2.8548    2.4213   -0.7304 S.2        1 <1>        0.000
      6 O1          2.0742   -0.1119   -0.6920 O.3        1 <1>        0.000
      7 S5         -1.2252   -1.8244   -0.0683 S.3        1 <1>        0.000
      8 C3         -1.6177   -0.5669   -1.2043 C.2        1 <1>        0.000
      9 S6         -0.8309   -0.3395   -2.6762 S.2        1 <1>        0.000
     10 O2         -2.6263    0.2902   -0.8295 O.3        1 <1>        0.000
     11 H           1.3880   -0.6962   -0.3614 H.spc      1 <1>        0.000
     12 H          -2.9677    0.0254    0.0278 H.spc      1 <1>        0.000
@<TRIPOS>BOND
     1    1    2 1  
     2    1    7 1  
     3    2    3 1  
     4    3    4 1  
     5    4    5 2  
     6    4    6 1  
     7    7    8 1  
     8    8    9 2  
     9    8   10 1  
    10    6   11 1  
    11   10   12 1  
# Name:          frag3-234-3/31924
# Creation time: Sat Jun  5 12:52:25 2010


@<TRIPOS>MOLECULE
frag3-234-3/31924
   12    11     1     1     1
SMALL
USER_CHARGES


@<TRIPOS>ATOM
      1 S1          0.0094    2.3936   -0.0492 S.3        1 <1>        0.000
      2 S2         -1.0786    0.9493    0.7813 S.3        1 <1>        0.000
      3 S3         -2.2855    0.5049   -0.7397 S.3        1 <1>        0.000
      4 C1         -1.9867   -1.1815   -0.9580 C.2        1 <1>        0.000
      5 S4         -1.7638   -1.9158   -2.4572 S.2        1 <1>        0.000
      6 O1         -1.9088   -1.9337    0.1906 O.3        1 <1>        0.000
      7 S5          1.3393    1.2890   -1.0358 S.3        1 <1>        0.000
      8 C3          2.2676    0.6618    0.3058 C.2        1 <1>        0.000
      9 S6          2.9448   -0.8790    0.3465 S.2        1 <1>        0.000
     10 O2          2.4139    1.5017    1.3857 O.3        1 <1>        0.000
     11 H          -2.0583   -1.3689    0.9524 H.spc      1 <1>        0.000
     12 H           1.9729    2.3348    1.2038 H.spc      1 <1>        0.000
@<TRIPOS>BOND
     1    1    2 1  
     2    1    7 1  
     3    2    3 1  
     4    3    4 1  
     5    4    5 2  
     6    4    6 1  
     7    7    8 1  
     8    8    9 2  
     9    8   10 1  
    10    6   11 1  
    11   10   12 1  
# Name:          frag3-234-3/31924
# Creation time: Sat Jun  5 12:52:25 2010


@<TRIPOS>MOLECULE
frag3-234-3/31924
   12    11     1     1     1
SMALL
USER_CHARGES


@<TRIPOS>ATOM
      1 S1         -0.8677    0.1191    1.1073 S.3        1 <1>        0.000
      2 S2          0.7462   -1.0481    0.9310 S.3        1 <1>        0.000
      3 S3          1.6917   -0.1452   -0.5558 S.3        1 <1>        0.000
      4 C1          2.2537    1.2840    0.2703 C.2        1 <1>        0.000
      5 S4          2.3615    2.8068   -0.4372 S.2        1 <1>        0.000
      6 O1          2.6042    1.1201    1.5918 O.3        1 <1>        0.000
      7 S5         -2.2338   -1.1028    0.3534 S.3        1 <1>        0.000
      8 C3         -2.1618   -0.7048   -1.3361 C.2        1 <1>        0.000
      9 S6         -3.4910   -0.1116   -2.1895 S.2        1 <1>        0.000
     10 O2         -0.9515   -0.8271   -1.9654 O.3        1 <1>        0.000
     11 H           2.4873    0.2004    1.8410 H.spc      1 <1>        0.000
     12 H          -0.3047   -1.1759   -1.3477 H.spc      1 <1>        0.000
@<TRIPOS>BOND
     1    1    2 1  
     2    1    7 1  
     3    2    3 1  
     4    3    4 1  
     5    4    5 2  
     6    4    6 1  
     7    7    8 1  
     8    8    9 2  
     9    8   10 1  
    10    6   11 1  
    11   10   12 1  
# Name:          frag3-234-3/31924
# Creation time: Sat Jun  5 12:52:25 2010


@<TRIPOS>MOLECULE
frag3-234-3/31924
   12    11     1     1     1
SMALL
USER_CHARGES


@<TRIPOS>ATOM
      1 S1         -1.4056    0.3391    1.2775 S.3        1 <1>        0.000
      2 S2          0.4251   -0.4181    1.1994 S.3        1 <1>        0.000
      3 S3          1.1019    0.3324   -0.5255 S.3        1 <1>        0.000
      4 C1          2.5075    1.1482    0.0457 C.2        1 <1>        0.000
      5 S4          2.4402    2.5508    1.0039 S.2        1 <1>        0.000
      6 O1          3.7123    0.5855   -0.2418 O.3        1 <1>        0.000
      7 S5         -2.4068   -1.1358    0.3970 S.3        1 <1>        0.000
      8 C3         -2.2169   -0.7418   -1.2859 C.2        1 <1>        0.000
      9 S6         -1.8491   -1.8592   -2.4894 S.2        1 <1>        0.000
     10 O2         -2.3570    0.5892   -1.6109 O.3        1 <1>        0.000
     11 H           3.5786   -0.1928   -0.7876 H.spc      1 <1>        0.000
     12 H          -2.5647    1.0906   -0.8191 H.spc      1 <1>        0.000
@<TRIPOS>BOND
     1    1    2 1  
     2    1    7 1  
     3    2    3 1  
     4    3    4 1  
     5    4    5 2  
     6    4    6 1  
     7    7    8 1  
     8    8    9 2  
     9    8   10 1  
    10    6   11 1  
    11   10   12 1  
# Name:          frag3-234-3/31924
# Creation time: Sat Jun  5 12:52:25 2010


@<TRIPOS>MOLECULE
frag3-234-3/31924
   12    11     1     1     1
SMALL
USER_CHARGES


@<TRIPOS>ATOM
      1 S1         -0.8115    1.0279   -0.0309 S.3        1 <1>        0.000
      2 S2          0.5900    0.0241   -1.0416 S.3        1 <1>        0.000
      3 S3          1.8415   -0.4097    0.4423 S.3        1 <1>        0.000
      4 C1          2.6549    1.1156    0.5735 C.2        1 <1>        0.000
      5 S4          2.1877    2.3629    1.6157 S.2        1 <1>        0.000
      6 O1          3.6990    1.3209   -0.2878 O.3        1 <1>        0.000
      7 S5         -1.9119   -0.4986    0.6082 S.3        1 <1>        0.000
      8 C3         -2.6075   -1.0055   -0.9036 C.2        1 <1>        0.000
      9 S6         -2.1163   -2.3626   -1.7792 S.2        1 <1>        0.000
     10 O2         -3.5743   -0.1846   -1.4266 O.3        1 <1>        0.000
     11 H           3.8428    0.5278   -0.8093 H.spc      1 <1>        0.000
     12 H          -3.7438    0.5372   -0.8168 H.spc      1 <1>        0.000
@<TRIPOS>BOND
     1    1    2 1  
     2    1    7 1  
     3    2    3 1  
     4    3    4 1  
     5    4    5 2  
     6    4    6 1  
     7    7    8 1  
     8    8    9 2  
     9    8   10 1  
    10    6   11 1  
    11   10   12 1  
# Name:          frag3-234-3/31924
# Creation time: Sat Jun  5 12:52:25 2010


@<TRIPOS>MOLECULE
frag3-234-3/31924
   12    11     1     1     1
SMALL
USER_CHARGES


@<TRIPOS>ATOM
      1 S1         -0.8253   -0.2789    1.2983 S.3        1 <1>        0.000
      2 S2          0.9283   -1.2069    1.2079 S.3        1 <1>        0.000
      3 S3          1.7012   -0.4127   -0.4395 S.3        1 <1>        0.000
      4 C1          2.0477    1.1850    0.1429 C.2        1 <1>        0.000
      5 S4          1.1900    2.5751   -0.2781 S.2        1 <1>        0.000
      6 O1          3.0641    1.2786    1.0610 O.3        1 <1>        0.000
      7 S5         -1.8718   -1.4144    0.0522 S.3        1 <1>        0.000
      8 C3         -1.9946   -0.4299   -1.3547 C.2        1 <1>        0.000
      9 S6         -3.4618    0.0879   -1.9926 S.2        1 <1>        0.000
     10 O2         -0.8262    0.0066   -1.9273 O.3        1 <1>        0.000
     11 H           3.4534    0.4114    1.1952 H.spc      1 <1>        0.000
     12 H          -0.0798   -0.3715   -1.4567 H.spc      1 <1>        0.000
@<TRIPOS>BOND
     1    1    2 1  
     2    1    7 1  
     3    2    3 1  
     4    3    4 1  
     5    4    5 2  
     6    4    6 1  
     7    7    8 1  
     8    8    9 2  
     9    8   10 1  
    10    6   11 1  
    11   10   12 1  
# Name:          frag3-234-3/31924
# Creation time: Sat Jun  5 12:52:25 2010


@<TRIPOS>MOLECULE
frag3-234-3/31924
   12    11     1     1     1
SMALL
USER_CHARGES


@<TRIPOS>ATOM
      1 S1         -1.1214    0.7448    1.1864 S.3        1 <1>        0.000
      2 S2          0.3289   -0.4887    1.7426 S.3        1 <1>        0.000
      3 S3          1.3572   -0.7083    0.0662 S.3        1 <1>        0.000
      4 C1          2.0666    0.8613   -0.0590 C.2        1 <1>        0.000
      5 S4          1.5970    2.0774   -1.1191 S.2        1 <1>        0.000
      6 O1          3.0537    1.1359    0.8579 O.3        1 <1>        0.000
      7 S5         -2.3794   -0.5605    0.3643 S.3        1 <1>        0.000
      8 C3         -1.8189   -0.6233   -1.2598 C.2        1 <1>        0.000
      9 S6         -1.9862    0.6820   -2.3245 S.2        1 <1>        0.000
     10 O2         -1.1457   -1.7302   -1.6849 O.3        1 <1>        0.000
     11 H           3.2179    0.3559    1.3929 H.spc      1 <1>        0.000
     12 H          -1.1301   -2.3836   -0.9817 H.spc      1 <1>        0.000
@<TRIPOS>BOND
     1    1    2 1  
     2    1    7 1  
     3    2    3 1  
     4    3    4 1  
     5    4    5 2  
     6    4    6 1  
     7    7    8 1  
     8    8    9 2  
     9    8   10 1  
    10    6   11 1  
    11   10   12 1  
# Name:          frag3-234-3/31924
# Creation time: Sat Jun  5 12:52:25 2010


@<TRIPOS>MOLECULE
frag3-234-3/31924
   12    11     1     1     1
SMALL
USER_CHARGES


@<TRIPOS>ATOM
      1 S1          0.1161    1.6130    1.7570 S.3        1 <1>        0.000
      2 S2         -1.3642    0.3373    1.4621 S.3        1 <1>        0.000
      3 S3         -1.8536    0.6928   -0.4211 S.3        1 <1>        0.000
      4 C1         -1.6269   -0.8349   -1.1766 C.2        1 <1>        0.000
      5 S4         -1.1646   -1.0551   -2.7755 S.2        1 <1>        0.000
      6 O1         -1.8455   -1.9369   -0.3748 O.3        1 <1>        0.000
      7 S5          1.6881    0.4216    1.4807 S.3        1 <1>        0.000
      8 C3          1.9199    0.5834   -0.2288 C.2        1 <1>        0.000
      9 S6          2.5661    1.9981   -0.9121 S.2        1 <1>        0.000
     10 O2          1.5162   -0.4290   -1.0409 O.3        1 <1>        0.000
     11 H          -2.1014   -1.6464    0.5037 H.spc      1 <1>        0.000
     12 H           1.1780   -1.1511   -0.5063 H.spc      1 <1>        0.000
@<TRIPOS>BOND
     1    1    2 1  
     2    1    7 1  
     3    2    3 1  
     4    3    4 1  
     5    4    5 2  
     6    4    6 1  
     7    7    8 1  
     8    8    9 2  
     9    8   10 1  
    10    6   11 1  
    11   10   12 1  
# Name:          frag3-234-3/31924
# Creation time: Sat Jun  5 12:52:25 2010


@<TRIPOS>MOLECULE
frag3-234-3/31924
   12    11     1     1     1
SMALL
USER_CHARGES


@<TRIPOS>ATOM
      1 S1          0.7828   -0.3725   -0.1992 S.3        1 <1>        0.000
      2 S2         -0.9051    0.6178    0.1412 S.3        1 <1>        0.000
      3 S3         -1.8497    0.2713   -1.5710 S.3        1 <1>        0.000
      4 C1         -2.8415   -1.0770   -1.1112 C.2        1 <1>        0.000
      5 S4         -3.1002   -2.4354   -2.0711 S.2        1 <1>        0.000
      6 O1         -3.4196   -1.0024    0.1364 O.3        1 <1>        0.000
      7 S5          1.9469    1.1339   -0.8171 S.3        1 <1>        0.000
      8 C3          2.8954    1.3545    0.6169 C.2        1 <1>        0.000
      9 S6          2.2244    1.8425    2.1046 S.2        1 <1>        0.000
     10 O2          4.2183    1.0578    0.5404 O.3        1 <1>        0.000
     11 H          -3.1762   -0.1717    0.5515 H.spc      1 <1>        0.000
     12 H           4.4363    0.8023   -0.3589 H.spc      1 <1>        0.000
@<TRIPOS>BOND
     1    1    2 1  
     2    1    7 1  
     3    2    3 1  
     4    3    4 1  
     5    4    5 2  
     6    4    6 1  
     7    7    8 1  
     8    8    9 2  
     9    8   10 1  
    10    6   11 1  
    11   10   12 1  
# Name:          frag3-234-3/31924
# Creation time: Sat Jun  5 12:52:25 2010


@<TRIPOS>MOLECULE
frag3-234-3/31924
   12    11     1     1     1
SMALL
USER_CHARGES


@<TRIPOS>ATOM
      1 S1          0.0679   -0.3888    1.5310 S.3        1 <1>        0.000
      2 S2         -1.5993    0.6035    1.0949 S.3        1 <1>        0.000
      3 S3         -1.3873    0.8115   -0.8656 S.3        1 <1>        0.000
      4 C1         -1.7562   -0.8037   -1.3853 C.2        1 <1>        0.000
      5 S4         -2.8580   -1.1605   -2.5994 S.2        1 <1>        0.000
      6 O1         -1.1514   -1.8386   -0.7039 O.3        1 <1>        0.000
      7 S5          1.3577    1.1124    1.6534 S.3        1 <1>        0.000
      8 C3          2.2011    1.0141    0.1533 C.2        1 <1>        0.000
      9 S6          2.2152    2.2109   -1.0284 S.2        1 <1>        0.000
     10 O2          2.8618   -0.1705   -0.0800 O.3        1 <1>        0.000
     11 H          -0.5521   -1.4797   -0.0455 H.spc      1 <1>        0.000
     12 H           2.7623   -0.7465    0.6815 H.spc      1 <1>        0.000
@<TRIPOS>BOND
     1    1    2 1  
     2    1    7 1  
     3    2    3 1  
     4    3    4 1  
     5    4    5 2  
     6    4    6 1  
     7    7    8 1  
     8    8    9 2  
     9    8   10 1  
    10    6   11 1  
    11   10   12 1  
# Name:          frag3-234-3/31924
# Creation time: Sat Jun  5 12:52:25 2010


@<TRIPOS>MOLECULE
frag3-234-3/31924
   12    11     1     1     1
SMALL
USER_CHARGES


@<TRIPOS>ATOM
      1 S1         -0.6720    0.4535    0.4463 S.3        1 <1>        0.000
      2 S2          0.7955   -0.8660    0.1096 S.3        1 <1>        0.000
      3 S3          2.1074    0.3422   -0.7810 S.3        1 <1>        0.000
      4 C1          2.5528    1.3259    0.5881 C.2        1 <1>        0.000
      5 S4          2.0562    2.9281    0.8034 S.2        1 <1>        0.000
      6 O1          3.3055    0.7155    1.5550 O.3        1 <1>        0.000
      7 S5         -1.5044    0.4494   -1.3595 S.3        1 <1>        0.000
      8 C3         -2.5398   -0.9407   -1.2237 C.2        1 <1>        0.000
      9 S6         -4.0788   -1.0202   -1.8945 S.2        1 <1>        0.000
     10 O2         -2.0708   -1.9972   -0.4737 O.3        1 <1>        0.000
     11 H           3.5038   -0.1839    1.2843 H.spc      1 <1>        0.000
     12 H          -1.1840   -1.7994   -0.1639 H.spc      1 <1>        0.000
@<TRIPOS>BOND
     1    1    2 1  
     2    1    7 1  
     3    2    3 1  
     4    3    4 1  
     5    4    5 2  
     6    4    6 1  
     7    7    8 1  
     8    8    9 2  
     9    8   10 1  
    10    6   11 1  
    11   10   12 1  
# Name:          frag3-234-3/31924
# Creation time: Sat Jun  5 12:52:25 2010


@<TRIPOS>MOLECULE
frag3-234-3/31924
   12    11     1     1     1
SMALL
USER_CHARGES


@<TRIPOS>ATOM
      1 S1         -1.0734   -0.0283    0.9644 S.3        1 <1>        0.000
      2 S2          0.7813   -0.7397    0.9729 S.3        1 <1>        0.000
      3 S3          1.5931    0.3045   -0.5110 S.3        1 <1>        0.000
      4 C1          2.5840    1.4053    0.3991 C.2        1 <1>        0.000
      5 S4          2.5234    3.0832    0.2229 S.2        1 <1>        0.000
      6 O1          3.4253    0.8408    1.3232 O.3        1 <1>        0.000
      7 S5         -1.9998   -1.5477    0.0725 S.3        1 <1>        0.000
      8 C3         -2.4349   -0.8442   -1.4623 C.2        1 <1>        0.000
      9 S6         -4.0038   -0.8937   -2.0670 S.2        1 <1>        0.000
     10 O2         -1.4436   -0.1898   -2.1447 O.3        1 <1>        0.000
     11 H           3.3365   -0.1146    1.2936 H.spc      1 <1>        0.000
     12 H          -0.6195   -0.2629   -1.6578 H.spc      1 <1>        0.000
@<TRIPOS>BOND
     1    1    2 1  
     2    1    7 1  
     3    2    3 1  
     4    3    4 1  
     5    4    5 2  
     6    4    6 1  
     7    7    8 1  
     8    8    9 2  
     9    8   10 1  
    10    6   11 1  
    11   10   12 1  
# Name:          frag3-234-3/31924
# Creation time: Sat Jun  5 12:52:25 2010


@<TRIPOS>MOLECULE
frag3-234-3/31924
   12    11     1     1     1
SMALL
USER_CHARGES


@<TRIPOS>ATOM
      1 S1         -0.0761    1.8511   -0.5951 S.3        1 <1>        0.000
      2 S2         -1.5287    1.2492    0.6270 S.3        1 <1>        0.000
      3 S3         -2.7209    0.3832   -0.7098 S.3        1 <1>        0.000
      4 C1         -1.9102   -1.1379   -0.9658 C.2        1 <1>        0.000
      5 S4         -1.9145   -1.9804   -2.4217 S.2        1 <1>        0.000
      6 O1         -1.2199   -1.6444    0.1138 O.3        1 <1>        0.000
      7 S5          1.0825    0.2355   -0.6188 S.3        1 <1>        0.000
      8 C3          2.3465    0.7135    0.4635 C.2        1 <1>        0.000
      9 S6          3.5528   -0.3144    1.0207 S.2        1 <1>        0.000
     10 O2          2.3402    2.0349    0.8561 O.3        1 <1>        0.000
     11 H          -1.3161   -1.0498    0.8613 H.spc      1 <1>        0.000
     12 H           1.5926    2.4834    0.4541 H.spc      1 <1>        0.000
@<TRIPOS>BOND
     1    1    2 1  
     2    1    7 1  
     3    2    3 1  
     4    3    4 1  
     5    4    5 2  
     6    4    6 1  
     7    7    8 1  
     8    8    9 2  
     9    8   10 1  
    10    6   11 1  
    11   10   12 1  
# Name:          frag3-234-3/31924
# Creation time: Sat Jun  5 12:52:25 2010


@<TRIPOS>MOLECULE
frag3-234-3/31924
   12    11     1     1     1
SMALL
USER_CHARGES


@<TRIPOS>ATOM
      1 S1         -1.3804    1.3842    0.4410 S.3        1 <1>        0.000
      2 S2         -0.0501    0.5099    1.6074 S.3        1 <1>        0.000
      3 S3          1.1199   -0.4495    0.3139 S.3        1 <1>        0.000
      4 C1          2.3617    0.7118    0.1293 C.2        1 <1>        0.000
      5 S4          2.1746    2.2207   -0.6147 S.2        1 <1>        0.000
      6 O1          3.5581    0.4162    0.7131 O.3        1 <1>        0.000
      7 S5         -2.6279   -0.1422    0.1657 S.3        1 <1>        0.000
      8 C3         -1.9407   -0.9220   -1.2038 C.2        1 <1>        0.000
      9 S6         -2.0486   -0.2751   -2.7630 S.2        1 <1>        0.000
     10 O2         -1.2150   -2.0637   -1.0190 O.3        1 <1>        0.000
     11 H           3.5191   -0.4651    1.0917 H.spc      1 <1>        0.000
     12 H          -1.2420   -2.3122   -0.0921 H.spc      1 <1>        0.000
@<TRIPOS>BOND
     1    1    2 1  
     2    1    7 1  
     3    2    3 1  
     4    3    4 1  
     5    4    5 2  
     6    4    6 1  
     7    7    8 1  
     8    8    9 2  
     9    8   10 1  
    10    6   11 1  
    11   10   12 1  
# Name:          frag3-234-3/31924
# Creation time: Sat Jun  5 12:52:25 2010


@<TRIPOS>MOLECULE
frag3-234-3/31924
   12    11     1     1     1
SMALL
USER_CHARGES


@<TRIPOS>ATOM
      1 S1         -1.2093    0.7018    0.8447 S.3        1 <1>        0.000
      2 S2         -0.1087    2.0970   -0.0463 S.3        1 <1>        0.000
      3 S3          1.2953    0.9634   -0.8770 S.3        1 <1>        0.000
      4 C1          2.3963    0.8234    0.4637 C.2        1 <1>        0.000
      5 S4          4.0365    1.1861    0.3430 S.2        1 <1>        0.000
      6 O1          1.8666    0.4532    1.6771 O.3        1 <1>        0.000
      7 S5         -2.5122    0.3266   -0.6046 S.3        1 <1>        0.000
      8 C3         -2.0363   -1.2525   -1.1580 C.2        1 <1>        0.000
      9 S6         -2.8519   -2.1188   -2.3313 S.2        1 <1>        0.000
     10 O2         -0.9246   -1.7900   -0.5413 O.3        1 <1>        0.000
     11 H           0.9274    0.2821    1.5762 H.spc      1 <1>        0.000
     12 H          -0.5824   -1.1640    0.1011 H.spc      1 <1>        0.000
@<TRIPOS>BOND
     1    1    2 1  
     2    1    7 1  
     3    2    3 1  
     4    3    4 1  
     5    4    5 2  
     6    4    6 1  
     7    7    8 1  
     8    8    9 2  
     9    8   10 1  
    10    6   11 1  
    11   10   12 1  
# Name:          frag3-234-3/31924
# Creation time: Sat Jun  5 12:52:25 2010


@<TRIPOS>MOLECULE
frag3-234-3/31924
   12    11     1     1     1
SMALL
USER_CHARGES


@<TRIPOS>ATOM
      1 S1         -0.8165    0.4367    0.3677 S.3        1 <1>        0.000
      2 S2          0.6175    0.4561   -1.0228 S.3        1 <1>        0.000
      3 S3          1.5972    2.0939   -0.4574 S.3        1 <1>        0.000
      4 C1          2.6590    1.3688    0.7206 C.2        1 <1>        0.000
      5 S4          4.0338    0.4835    0.2481 S.2        1 <1>        0.000
      6 O1          2.3398    1.4744    2.0374 O.3        1 <1>        0.000
      7 S5         -2.4233    0.4357   -0.7934 S.3        1 <1>        0.000
      8 C3         -2.6431   -1.2828   -0.9944 C.2        1 <1>        0.000
      9 S6         -2.5539   -2.0716   -2.4862 S.2        1 <1>        0.000
     10 O2         -2.8591   -2.0043    0.1503 O.3        1 <1>        0.000
     11 H           1.5434    2.0022    2.1311 H.spc      1 <1>        0.000
     12 H          -2.8821   -1.4088    0.9030 H.spc      1 <1>        0.000
@<TRIPOS>BOND
     1    1    2 1  
     2    1    7 1  
     3    2    3 1  
     4    3    4 1  
     5    4    5 2  
     6    4    6 1  
     7    7    8 1  
     8    8    9 2  
     9    8   10 1  
    10    6   11 1  
    11   10   12 1  
# Name:          frag3-234-3/31924
# Creation time: Sat Jun  5 12:52:25 2010


@<TRIPOS>MOLECULE
frag3-234-3/31924
   12    11     1     1     1
SMALL
USER_CHARGES


@<TRIPOS>ATOM
      1 S1         -1.4870    0.3642    0.8529 S.3        1 <1>        0.000
      2 S2          0.3077   -0.1470    1.5090 S.3        1 <1>        0.000
      3 S3          1.2278    1.6245    1.4232 S.3        1 <1>        0.000
      4 C1          2.5578    1.2711    0.3803 C.2        1 <1>        0.000
      5 S4          2.6908    1.8506   -1.2016 S.2        1 <1>        0.000
      6 O1          3.5142    0.4267    0.8804 O.3        1 <1>        0.000
      7 S5         -1.1839    0.2697   -1.1173 S.3        1 <1>        0.000
      8 C3         -2.1976   -1.0738   -1.5207 C.2        1 <1>        0.000
      9 S6         -3.6674   -0.8805   -2.3377 S.2        1 <1>        0.000
     10 O2         -1.8109   -2.3152   -1.0984 O.3        1 <1>        0.000
     11 H           3.2917    0.1926    1.7844 H.spc      1 <1>        0.000
     12 H          -0.9610   -2.2513   -0.6566 H.spc      1 <1>        0.000
@<TRIPOS>BOND
     1    1    2 1  
     2    1    7 1  
     3    2    3 1  
     4    3    4 1  
     5    4    5 2  
     6    4    6 1  
     7    7    8 1  
     8    8    9 2  
     9    8   10 1  
    10    6   11 1  
    11   10   12 1  
# Name:          frag3-234-3/31924
# Creation time: Sat Jun  5 12:52:25 2010


@<TRIPOS>MOLECULE
frag3-234-3/31924
   12    11     1     1     1
SMALL
USER_CHARGES


@<TRIPOS>ATOM
      1 S1         -1.1142    1.1968    0.0283 S.3        1 <1>        0.000
      2 S2          0.5097    1.0208   -1.0997 S.3        1 <1>        0.000
      3 S3          1.6094   -0.2586   -0.0582 S.3        1 <1>        0.000
      4 C1          2.7430    0.8440    0.6394 C.2        1 <1>        0.000
      5 S4          2.3852    1.8494    1.9588 S.2        1 <1>        0.000
      6 O1          3.9593    0.9431    0.0297 O.3        1 <1>        0.000
      7 S5         -2.5145    0.6074   -1.2432 S.3        1 <1>        0.000
      8 C3         -2.5816   -1.0892   -0.9049 C.2        1 <1>        0.000
      9 S6         -1.6098   -2.2455   -1.6702 S.2        1 <1>        0.000
     10 O2         -3.4349   -1.4780    0.0901 O.3        1 <1>        0.000
     11 H           4.0062    0.3126   -0.6927 H.spc      1 <1>        0.000
     12 H          -3.9110   -0.7121    0.4192 H.spc      1 <1>        0.000
@<TRIPOS>BOND
     1    1    2 1  
     2    1    7 1  
     3    2    3 1  
     4    3    4 1  
     5    4    5 2  
     6    4    6 1  
     7    7    8 1  
     8    8    9 2  
     9    8   10 1  
    10    6   11 1  
    11   10   12 1  
# Name:          frag3-234-3/31924
# Creation time: Sat Jun  5 12:52:25 2010


@<TRIPOS>MOLECULE
frag3-234-3/31924
   12    11     1     1     1
SMALL
USER_CHARGES


@<TRIPOS>ATOM
      1 S1         -1.1587    0.9612    0.7215 S.3        1 <1>        0.000
      2 S2          0.0471    1.9508   -0.4942 S.3        1 <1>        0.000
      3 S3          1.3562    0.5394   -0.9843 S.3        1 <1>        0.000
      4 C1          2.4438    0.7034    0.3408 C.2        1 <1>        0.000
      5 S4          3.4417    2.0639    0.5185 S.2        1 <1>        0.000
      6 O1          2.4520   -0.2519    1.3131 O.3        1 <1>        0.000
      7 S5         -2.6052    0.4297   -0.5261 S.3        1 <1>        0.000
      8 C3         -2.1869   -1.1924   -0.9049 C.2        1 <1>        0.000
      9 S6         -1.1339   -1.6597   -2.1375 S.2        1 <1>        0.000
     10 O2         -2.7045   -2.1539   -0.0771 O.3        1 <1>        0.000
     11 H           1.8424   -0.9543    1.0752 H.spc      1 <1>        0.000
     12 H          -3.2817   -1.7410    0.5694 H.spc      1 <1>        0.000
@<TRIPOS>BOND
     1    1    2 1  
     2    1    7 1  
     3    2    3 1  
     4    3    4 1  
     5    4    5 2  
     6    4    6 1  
     7    7    8 1  
     8    8    9 2  
     9    8   10 1  
    10    6   11 1  
    11   10   12 1  
# Name:          frag3-234-3/31924
# Creation time: Sat Jun  5 12:52:25 2010


@<TRIPOS>MOLECULE
frag3-234-3/31924
   12    11     1     1     1
SMALL
USER_CHARGES


@<TRIPOS>ATOM
      1 S1         -0.0347    0.4342    0.8609 S.3        1 <1>        0.000
      2 S2          0.1468   -0.8872   -0.6051 S.3        1 <1>        0.000
      3 S3         -1.2626   -0.1856   -1.8387 S.3        1 <1>        0.000
      4 C1         -2.6316   -0.9874   -1.1653 C.2        1 <1>        0.000
      5 S4         -2.7813   -2.6792   -1.1867 S.2        1 <1>        0.000
      6 O1         -3.5893   -0.2518   -0.5380 O.3        1 <1>        0.000
      7 S5          0.9888    1.9446    0.0445 S.3        1 <1>        0.000
      8 C3          2.5837    1.4812    0.5102 C.2        1 <1>        0.000
      9 S6          3.0919    1.5083    2.1285 S.2        1 <1>        0.000
     10 O2          3.4401    1.0133   -0.4402 O.3        1 <1>        0.000
     11 H          -3.3719    0.6806   -0.6077 H.spc      1 <1>        0.000
     12 H           3.0171    1.0587   -1.3008 H.spc      1 <1>        0.000
@<TRIPOS>BOND
     1    1    2 1  
     2    1    7 1  
     3    2    3 1  
     4    3    4 1  
     5    4    5 2  
     6    4    6 1  
     7    7    8 1  
     8    8    9 2  
     9    8   10 1  
    10    6   11 1  
    11   10   12 1  
# Name:          frag3-234-3/31924
# Creation time: Sat Jun  5 12:52:25 2010


@<TRIPOS>MOLECULE
frag3-234-3/31924
   12    11     1     1     1
SMALL
USER_CHARGES


@<TRIPOS>ATOM
      1 S1          0.3577   -0.7669    1.4422 S.3        1 <1>        0.000
      2 S2         -1.2894    0.3645    1.3879 S.3        1 <1>        0.000
      3 S3         -1.3270    0.8343   -0.5413 S.3        1 <1>        0.000
      4 C1         -1.7997   -0.6960   -1.2271 C.2        1 <1>        0.000
      5 S4         -1.9287   -0.9973   -2.8719 S.2        1 <1>        0.000
      6 O1         -2.0960   -1.7013   -0.3283 O.3        1 <1>        0.000
      7 S5          1.7292    0.6634    1.5907 S.3        1 <1>        0.000
      8 C3          2.0254    1.0639   -0.0744 C.2        1 <1>        0.000
      9 S6          2.2424    2.6253   -0.6573 S.2        1 <1>        0.000
     10 O2          2.0378    0.0004   -0.9505 O.3        1 <1>        0.000
     11 H          -1.9749   -1.3750    0.5664 H.spc      1 <1>        0.000
     12 H           1.9014   -0.8156   -0.4635 H.spc      1 <1>        0.000
@<TRIPOS>BOND
     1    1    2 1  
     2    1    7 1  
     3    2    3 1  
     4    3    4 1  
     5    4    5 2  
     6    4    6 1  
     7    7    8 1  
     8    8    9 2  
     9    8   10 1  
    10    6   11 1  
    11   10   12 1  
# Name:          frag3-234-3/31924
# Creation time: Sat Jun  5 12:52:25 2010


@<TRIPOS>MOLECULE
frag3-234-3/31924
   12    11     1     1     1
SMALL
USER_CHARGES


@<TRIPOS>ATOM
      1 S1         -0.9240    0.5187    0.9006 S.3        1 <1>        0.000
      2 S2          0.5833   -0.6840    1.3866 S.3        1 <1>        0.000
      3 S3          1.7853   -0.4544   -0.1621 S.3        1 <1>        0.000
      4 C1          2.3596    1.1593    0.1484 C.2        1 <1>        0.000
      5 S4          2.1119    2.4773   -0.8685 S.2        1 <1>        0.000
      6 O1          3.0130    1.3444    1.3460 O.3        1 <1>        0.000
      7 S5         -2.3094   -0.8283    0.4348 S.3        1 <1>        0.000
      8 C3         -2.2322   -0.8031   -1.2973 C.2        1 <1>        0.000
      9 S6         -2.7538    0.5349   -2.1885 S.2        1 <1>        0.000
     10 O2         -1.6820   -1.8743   -1.9300 O.3        1 <1>        0.000
     11 H           3.0756    0.5053    1.8081 H.spc      1 <1>        0.000
     12 H          -1.4428   -2.5398   -1.2808 H.spc      1 <1>        0.000
@<TRIPOS>BOND
     1    1    2 1  
     2    1    7 1  
     3    2    3 1  
     4    3    4 1  
     5    4    5 2  
     6    4    6 1  
     7    7    8 1  
     8    8    9 2  
     9    8   10 1  
    10    6   11 1  
    11   10   12 1  
# Name:          frag3-234-3/31924
# Creation time: Sat Jun  5 12:52:25 2010


@<TRIPOS>MOLECULE
frag3-234-3/31924
   12    11     1     1     1
SMALL
USER_CHARGES


@<TRIPOS>ATOM
      1 S1         -0.2176    1.7058   -0.4859 S.3        1 <1>        0.000
      2 S2         -1.3590    0.9128    0.9479 S.3        1 <1>        0.000
      3 S3         -2.8039    0.1348   -0.1700 S.3        1 <1>        0.000
      4 C1         -1.9449   -1.1508   -0.9713 C.2        1 <1>        0.000
      5 S4         -1.5113   -1.1304   -2.6055 S.2        1 <1>        0.000
      6 O1         -1.5632   -2.2066   -0.1845 O.3        1 <1>        0.000
      7 S5          1.1187    0.2563   -0.7276 S.3        1 <1>        0.000
      8 C3          2.3423    0.7745    0.3787 C.2        1 <1>        0.000
      9 S6          3.9170    1.1321   -0.1006 S.2        1 <1>        0.000
     10 O2          1.9737    0.9618    1.6889 O.3        1 <1>        0.000
     11 H          -1.8839   -2.0700    0.7100 H.spc      1 <1>        0.000
     12 H           1.0528    0.7143    1.7996 H.spc      1 <1>        0.000
@<TRIPOS>BOND
     1    1    2 1  
     2    1    7 1  
     3    2    3 1  
     4    3    4 1  
     5    4    5 2  
     6    4    6 1  
     7    7    8 1  
     8    8    9 2  
     9    8   10 1  
    10    6   11 1  
    11   10   12 1  
# Name:          frag3-234-3/31924
# Creation time: Sat Jun  5 12:52:25 2010


@<TRIPOS>MOLECULE
frag3-234-3/31924
   12    11     1     1     1
SMALL
USER_CHARGES


@<TRIPOS>ATOM
      1 S1         -0.7722    0.4507    0.5611 S.3        1 <1>        0.000
      2 S2          0.6581   -0.7360   -0.1832 S.3        1 <1>        0.000
      3 S3          1.8790    0.6454   -0.9136 S.3        1 <1>        0.000
      4 C1          2.5255    1.2862    0.5676 C.2        1 <1>        0.000
      5 S4          2.5167    2.9110    0.9988 S.2        1 <1>        0.000
      6 O1          3.0373    0.3580    1.4481 O.3        1 <1>        0.000
      7 S5         -1.8519    0.6945   -1.1050 S.3        1 <1>        0.000
      8 C3         -2.4718   -0.9265   -1.2446 C.2        1 <1>        0.000
      9 S6         -3.4651   -1.6128   -0.0454 S.2        1 <1>        0.000
     10 O2         -2.1041   -1.6802   -2.3140 O.3        1 <1>        0.000
     11 H           2.9726   -0.5182    1.0611 H.spc      1 <1>        0.000
     12 H          -1.5492   -1.1571   -2.8971 H.spc      1 <1>        0.000
@<TRIPOS>BOND
     1    1    2 1  
     2    1    7 1  
     3    2    3 1  
     4    3    4 1  
     5    4    5 2  
     6    4    6 1  
     7    7    8 1  
     8    8    9 2  
     9    8   10 1  
    10    6   11 1  
    11   10   12 1  
# Name:          frag3-234-3/31924
# Creation time: Sat Jun  5 12:52:25 2010


@<TRIPOS>MOLECULE
frag3-234-3/31924
   12    11     1     1     1
SMALL
USER_CHARGES


@<TRIPOS>ATOM
      1 S1         -0.0684   -0.0221    1.6510 S.3        1 <1>        0.000
      2 S2         -1.6231    0.7866    0.7223 S.3        1 <1>        0.000
      3 S3         -1.0855    0.5211   -1.1844 S.3        1 <1>        0.000
      4 C1         -1.7454   -1.0720   -1.4285 C.2        1 <1>        0.000
      5 S4         -3.4001   -1.3217   -1.6497 S.2        1 <1>        0.000
      6 O1         -0.8921   -2.1331   -1.3784 O.3        1 <1>        0.000
      7 S5          1.1957    1.5062    1.5757 S.3        1 <1>        0.000
      8 C3          2.2009    1.1221    0.2237 C.2        1 <1>        0.000
      9 S6          3.3171    2.1593   -0.4693 S.2        1 <1>        0.000
     10 O2          2.0524   -0.1562   -0.2925 O.3        1 <1>        0.000
     11 H           0.0045   -1.8154   -1.2487 H.spc      1 <1>        0.000
     12 H           1.3805   -0.6258    0.2072 H.spc      1 <1>        0.000
@<TRIPOS>BOND
     1    1    2 1  
     2    1    7 1  
     3    2    3 1  
     4    3    4 1  
     5    4    5 2  
     6    4    6 1  
     7    7    8 1  
     8    8    9 2  
     9    8   10 1  
    10    6   11 1  
    11   10   12 1  
# Name:          frag3-234-3/31924
# Creation time: Sat Jun  5 12:52:25 2010


@<TRIPOS>MOLECULE
frag3-234-3/31924
   12    11     1     1     1
SMALL
USER_CHARGES


@<TRIPOS>ATOM
      1 S1         -0.2412    1.5171    0.4242 S.3        1 <1>        0.000
      2 S2         -0.7626   -0.3565    0.8435 S.3        1 <1>        0.000
      3 S3         -0.6993   -1.1834   -0.9529 S.3        1 <1>        0.000
      4 C1         -2.3958   -1.2919   -1.3143 C.2        1 <1>        0.000
      5 S4         -3.0168   -1.4281   -2.8734 S.2        1 <1>        0.000
      6 O1         -3.2506   -1.2575   -0.2362 O.3        1 <1>        0.000
      7 S5          1.3612    1.6774    1.5929 S.3        1 <1>        0.000
      8 C3          2.6212    1.2774    0.4628 C.2        1 <1>        0.000
      9 S6          3.3908    2.4697   -0.4704 S.2        1 <1>        0.000
     10 O2          2.9447   -0.0338    0.2939 O.3        1 <1>        0.000
     11 H          -2.7402   -1.1781    0.5730 H.spc      1 <1>        0.000
     12 H           2.4222   -0.5710    0.8939 H.spc      1 <1>        0.000
@<TRIPOS>BOND
     1    1    2 1  
     2    1    7 1  
     3    2    3 1  
     4    3    4 1  
     5    4    5 2  
     6    4    6 1  
     7    7    8 1  
     8    8    9 2  
     9    8   10 1  
    10    6   11 1  
    11   10   12 1  
# Name:          frag3-234-3/31924
# Creation time: Sat Jun  5 12:52:25 2010


@<TRIPOS>MOLECULE
frag3-234-3/31924
   12    11     1     1     1
SMALL
USER_CHARGES


@<TRIPOS>ATOM
      1 S1          0.3393    0.0663    0.7504 S.3        1 <1>        0.000
      2 S2         -0.1530   -0.3562   -1.1284 S.3        1 <1>        0.000
      3 S3         -2.0394    0.3172   -1.1128 S.3        1 <1>        0.000
      4 C1         -2.8732   -1.2077   -1.1029 C.2        1 <1>        0.000
      5 S4         -3.1473   -2.0743   -2.5425 S.2        1 <1>        0.000
      6 O1         -3.2648   -1.7264    0.0894 O.3        1 <1>        0.000
      7 S5          1.1220    1.8784    0.4746 S.3        1 <1>        0.000
      8 C3          2.8119    1.5396    0.7072 C.2        1 <1>        0.000
      9 S6          4.0007    2.7331    0.7481 S.2        1 <1>        0.000
     10 O2          3.1553    0.2205    0.8868 O.3        1 <1>        0.000
     11 H          -3.0369   -1.1149    0.7935 H.spc      1 <1>        0.000
     12 H           2.3666   -0.3243    0.8347 H.spc      1 <1>        0.000
@<TRIPOS>BOND
     1    1    2 1  
     2    1    7 1  
     3    2    3 1  
     4    3    4 1  
     5    4    5 2  
     6    4    6 1  
     7    7    8 1  
     8    8    9 2  
     9    8   10 1  
    10    6   11 1  
    11   10   12 1  
# Name:          frag3-234-3/31924
# Creation time: Sat Jun  5 12:52:25 2010


@<TRIPOS>MOLECULE
frag3-234-3/31924
   12    11     1     1     1
SMALL
USER_CHARGES


@<TRIPOS>ATOM
      1 S1          0.5083    1.0105   -1.4905 S.3        1 <1>        0.000
      2 S2         -1.0433    1.7214   -0.4582 S.3        1 <1>        0.000
      3 S3         -2.5067    0.6601   -1.2687 S.3        1 <1>        0.000
      4 C1         -2.1285   -0.9355   -0.6931 C.2        1 <1>        0.000
      5 S4         -1.4994   -2.1773   -1.6488 S.2        1 <1>        0.000
      6 O1         -2.3088   -1.1493    0.6513 O.3        1 <1>        0.000
      7 S5          1.2029   -0.3908   -0.2599 S.3        1 <1>        0.000
      8 C3          2.2949    0.5611    0.6770 C.2        1 <1>        0.000
      9 S6          1.8554    1.4451    2.0509 S.2        1 <1>        0.000
     10 O2          3.5769    0.6450    0.2099 O.3        1 <1>        0.000
     11 H          -2.6707   -0.3568    1.0545 H.spc      1 <1>        0.000
     12 H           3.6695    0.0910   -0.5686 H.spc      1 <1>        0.000
@<TRIPOS>BOND
     1    1    2 1  
     2    1    7 1  
     3    2    3 1  
     4    3    4 1  
     5    4    5 2  
     6    4    6 1  
     7    7    8 1  
     8    8    9 2  
     9    8   10 1  
    10    6   11 1  
    11   10   12 1  
# Name:          frag3-234-3/31924
# Creation time: Sat Jun  5 12:52:25 2010


@<TRIPOS>MOLECULE
frag3-234-3/31924
   12    11     1     1     1
SMALL
USER_CHARGES


@<TRIPOS>ATOM
      1 S1          0.0529    1.9829   -0.8519 S.3        1 <1>        0.000
      2 S2         -1.1975    1.3513    0.5681 S.3        1 <1>        0.000
      3 S3         -2.5464    0.4345   -0.5540 S.3        1 <1>        0.000
      4 C1         -1.8042   -1.1132   -0.8584 C.2        1 <1>        0.000
      5 S4         -1.9150   -1.9685   -2.2840 S.2        1 <1>        0.000
      6 O1         -1.0604   -1.6148    0.1951 O.3        1 <1>        0.000
      7 S5          1.2203    0.3732   -1.0388 S.3        1 <1>        0.000
      8 C3          2.1136    0.5224    0.4439 C.2        1 <1>        0.000
      9 S6          3.2314    1.7753    0.6942 S.2        1 <1>        0.000
     10 O2          1.8568   -0.3528    1.4557 O.3        1 <1>        0.000
     11 H          -1.1012   -1.0032    0.9340 H.spc      1 <1>        0.000
     12 H           1.2089   -0.9978    1.1627 H.spc      1 <1>        0.000
@<TRIPOS>BOND
     1    1    2 1  
     2    1    7 1  
     3    2    3 1  
     4    3    4 1  
     5    4    5 2  
     6    4    6 1  
     7    7    8 1  
     8    8    9 2  
     9    8   10 1  
    10    6   11 1  
    11   10   12 1  
# Name:          frag3-234-3/31924
# Creation time: Sat Jun  5 12:52:25 2010


@<TRIPOS>MOLECULE
frag3-234-3/31924
   12    11     1     1     1
SMALL
USER_CHARGES


@<TRIPOS>ATOM
      1 S1         -0.9480    0.8047   -0.0252 S.3        1 <1>        0.000
      2 S2          0.7108    0.0434   -0.7869 S.3        1 <1>        0.000
      3 S3          1.8334   -0.1167    0.8529 S.3        1 <1>        0.000
      4 C1          2.8641    1.2383    0.6226 C.2        1 <1>        0.000
      5 S4          2.3383    2.8511    0.6683 S.2        1 <1>        0.000
      6 O1          4.1625    0.9752    0.2999 O.3        1 <1>        0.000
      7 S5         -1.9101   -0.8697    0.4769 S.3        1 <1>        0.000
      8 C3         -2.8152   -1.1190   -0.9701 C.2        1 <1>        0.000
      9 S6         -2.1307   -1.5518   -2.4613 S.2        1 <1>        0.000
     10 O2         -4.1535   -0.8651   -0.9071 O.3        1 <1>        0.000
     11 H           4.3090    0.0266    0.3153 H.spc      1 <1>        0.000
     12 H          -4.3924   -0.6351   -0.0062 H.spc      1 <1>        0.000
@<TRIPOS>BOND
     1    1    2 1  
     2    1    7 1  
     3    2    3 1  
     4    3    4 1  
     5    4    5 2  
     6    4    6 1  
     7    7    8 1  
     8    8    9 2  
     9    8   10 1  
    10    6   11 1  
    11   10   12 1  
# Name:          frag3-234-3/31924
# Creation time: Sat Jun  5 12:52:25 2010


@<TRIPOS>MOLECULE
frag3-234-3/31924
   12    11     1     1     1
SMALL
USER_CHARGES


@<TRIPOS>ATOM
      1 S1          0.6865   -1.1938    0.9503 S.3        1 <1>        0.000
      2 S2         -0.9617   -0.2589    1.5741 S.3        1 <1>        0.000
      3 S3         -1.4274    0.8024   -0.0428 S.3        1 <1>        0.000
      4 C1         -1.9522   -0.4912   -1.0971 C.2        1 <1>        0.000
      5 S4         -1.0655   -1.0759   -2.3974 S.2        1 <1>        0.000
      6 O1         -3.1452   -1.0753   -0.7575 O.3        1 <1>        0.000
      7 S5          2.0278    0.2292    1.2869 S.3        1 <1>        0.000
      8 C3          1.9617    1.1674   -0.1703 C.2        1 <1>        0.000
      9 S6          2.0145    2.8429   -0.2416 S.2        1 <1>        0.000
     10 O2          1.8131    0.4436   -1.3347 O.3        1 <1>        0.000
     11 H          -3.5174   -0.6218    0.0024 H.spc      1 <1>        0.000
     12 H           1.8011   -0.4938   -1.1281 H.spc      1 <1>        0.000
@<TRIPOS>BOND
     1    1    2 1  
     2    1    7 1  
     3    2    3 1  
     4    3    4 1  
     5    4    5 2  
     6    4    6 1  
     7    7    8 1  
     8    8    9 2  
     9    8   10 1  
    10    6   11 1  
    11   10   12 1  
# Name:          frag3-234-3/31924
# Creation time: Sat Jun  5 12:52:25 2010


@<TRIPOS>MOLECULE
frag3-234-3/31924
   12    11     1     1     1
SMALL
USER_CHARGES


@<TRIPOS>ATOM
      1 S1         -0.2698    0.6086   -1.3373 S.3        1 <1>        0.000
      2 S2          0.6705   -0.6884   -0.1554 S.3        1 <1>        0.000
      3 S3          1.0871    0.4893    1.3904 S.3        1 <1>        0.000
      4 C1          2.5113    1.2622    0.7981 C.2        1 <1>        0.000
      5 S4          2.5711    2.7938    0.0996 S.2        1 <1>        0.000
      6 O1          3.6600    0.5108    0.8471 O.3        1 <1>        0.000
      7 S5         -2.0495    0.6165   -0.4199 S.3        1 <1>        0.000
      8 C3         -2.6042   -0.9466   -0.9188 C.2        1 <1>        0.000
      9 S6         -2.7461   -1.3710   -2.5598 S.2        1 <1>        0.000
     10 O2         -2.8790   -1.8847    0.0259 O.3        1 <1>        0.000
     11 H           3.4728   -0.3308    1.2694 H.spc      1 <1>        0.000
     12 H          -2.7567   -1.5038    0.8986 H.spc      1 <1>        0.000
@<TRIPOS>BOND
     1    1    2 1  
     2    1    7 1  
     3    2    3 1  
     4    3    4 1  
     5    4    5 2  
     6    4    6 1  
     7    7    8 1  
     8    8    9 2  
     9    8   10 1  
    10    6   11 1  
    11   10   12 1  
# Name:          frag3-234-3/31924
# Creation time: Sat Jun  5 12:52:25 2010


@<TRIPOS>MOLECULE
frag3-234-3/31924
   12    11     1     1     1
SMALL
USER_CHARGES


@<TRIPOS>ATOM
      1 S1         -0.0949    1.6215    1.5993 S.3        1 <1>        0.000
      2 S2         -1.7320    0.6465    1.0888 S.3        1 <1>        0.000
      3 S3         -1.5801    0.6544   -0.8937 S.3        1 <1>        0.000
      4 C1         -1.6609   -1.0209   -1.2860 C.2        1 <1>        0.000
      5 S4         -2.2749   -1.6110   -2.7354 S.2        1 <1>        0.000
      6 O1         -1.2372   -1.9038   -0.3167 O.3        1 <1>        0.000
      7 S5          1.2679    0.1706    1.4002 S.3        1 <1>        0.000
      8 C3          2.1337    0.7148    0.0072 C.2        1 <1>        0.000
      9 S6          3.3429    1.9024    0.1171 S.2        1 <1>        0.000
     10 O2          1.7872    0.2160   -1.2109 O.3        1 <1>        0.000
     11 H          -0.9169   -1.4130    0.4437 H.spc      1 <1>        0.000
     12 H           1.0953   -0.4405   -1.1016 H.spc      1 <1>        0.000
@<TRIPOS>BOND
     1    1    2 1  
     2    1    7 1  
     3    2    3 1  
     4    3    4 1  
     5    4    5 2  
     6    4    6 1  
     7    7    8 1  
     8    8    9 2  
     9    8   10 1  
    10    6   11 1  
    11   10   12 1  
# Name:          frag3-234-3/31924
# Creation time: Sat Jun  5 12:52:25 2010


@<TRIPOS>MOLECULE
frag3-234-3/31924
   12    11     1     1     1
SMALL
USER_CHARGES


@<TRIPOS>ATOM
      1 S1          0.6748    1.0963   -1.9270 S.3        1 <1>        0.000
      2 S2         -1.0815    1.6421   -1.1414 S.3        1 <1>        0.000
      3 S3         -2.2132    0.1002   -1.6343 S.3        1 <1>        0.000
      4 C1         -1.8334   -1.0051   -0.3425 C.2        1 <1>        0.000
      5 S4         -1.3048   -2.5903   -0.5882 S.2        1 <1>        0.000
      6 O1         -1.9510   -0.5132    0.9322 O.3        1 <1>        0.000
      7 S5          1.9244    1.8472   -0.5969 S.3        1 <1>        0.000
      8 C3          1.9111    0.6012    0.6230 C.2        1 <1>        0.000
      9 S6          2.1433    0.8913    2.2661 S.2        1 <1>        0.000
     10 O2          1.6818   -0.6793    0.1792 O.3        1 <1>        0.000
     11 H          -2.2606    0.3948    0.8963 H.spc      1 <1>        0.000
     12 H           1.5715   -0.6713   -0.7744 H.spc      1 <1>        0.000
@<TRIPOS>BOND
     1    1    2 1  
     2    1    7 1  
     3    2    3 1  
     4    3    4 1  
     5    4    5 2  
     6    4    6 1  
     7    7    8 1  
     8    8    9 2  
     9    8   10 1  
    10    6   11 1  
    11   10   12 1  
# Name:          frag3-234-3/31924
# Creation time: Sat Jun  5 12:52:25 2010


@<TRIPOS>MOLECULE
frag3-234-3/31924
   12    11     1     1     1
SMALL
USER_CHARGES


@<TRIPOS>ATOM
      1 S1         -0.9533   -0.2789    1.5289 S.3        1 <1>        0.000
      2 S2         -0.5824    1.5624    0.8626 S.3        1 <1>        0.000
      3 S3          1.3460    1.7005    1.3533 S.3        1 <1>        0.000
      4 C1          2.0830    0.9244   -0.0050 C.2        1 <1>        0.000
      5 S4          2.0576    1.6171   -1.5548 S.2        1 <1>        0.000
      6 O1          2.6361   -0.3085    0.1608 O.3        1 <1>        0.000
      7 S5         -0.4336   -1.3626   -0.0438 S.3        1 <1>        0.000
      8 C3         -1.7148   -0.9545   -1.1603 C.2        1 <1>        0.000
      9 S6         -1.5223   -0.6771   -2.7908 S.2        1 <1>        0.000
     10 O2         -2.9646   -0.8326   -0.5809 O.3        1 <1>        0.000
     11 H           2.5762   -0.5633    1.0844 H.spc      1 <1>        0.000
     12 H          -2.9011   -1.0248    0.3575 H.spc      1 <1>        0.000
@<TRIPOS>BOND
     1    1    2 1  
     2    1    7 1  
     3    2    3 1  
     4    3    4 1  
     5    4    5 2  
     6    4    6 1  
     7    7    8 1  
     8    8    9 2  
     9    8   10 1  
    10    6   11 1  
    11   10   12 1  
# Name:          frag3-234-3/31924
# Creation time: Sat Jun  5 12:52:25 2010


@<TRIPOS>MOLECULE
frag3-234-3/31924
   12    11     1     1     1
SMALL
USER_CHARGES


@<TRIPOS>ATOM
      1 S1         -0.8920   -0.6870    1.6297 S.3        1 <1>        0.000
      2 S2          0.8926   -1.3735    1.0383 S.3        1 <1>        0.000
      3 S3          2.0109    0.2376    1.2683 S.3        1 <1>        0.000
      4 C1          1.6487    1.1119   -0.1946 C.2        1 <1>        0.000
      5 S4          1.4736    2.7856   -0.2723 S.2        1 <1>        0.000
      6 O1          1.4796    0.3517   -1.3260 O.3        1 <1>        0.000
      7 S5         -2.0434   -1.3368    0.1624 S.3        1 <1>        0.000
      8 C3         -1.6597   -0.1938   -1.1098 C.2        1 <1>        0.000
      9 S6         -1.4690   -0.6140   -2.7223 S.2        1 <1>        0.000
     10 O2         -1.4897    1.1086   -0.7038 O.3        1 <1>        0.000
     11 H           1.6132   -0.5743   -1.1109 H.spc      1 <1>        0.000
     12 H          -1.6356    1.1691    0.2431 H.spc      1 <1>        0.000
@<TRIPOS>BOND
     1    1    2 1  
     2    1    7 1  
     3    2    3 1  
     4    3    4 1  
     5    4    5 2  
     6    4    6 1  
     7    7    8 1  
     8    8    9 2  
     9    8   10 1  
    10    6   11 1  
    11   10   12 1  
# Name:          frag3-234-3/31924
# Creation time: Sat Jun  5 12:52:25 2010


@<TRIPOS>MOLECULE
frag3-234-3/31924
   12    11     1     1     1
SMALL
USER_CHARGES


@<TRIPOS>ATOM
      1 S1          0.2597   -0.3556    1.0689 S.3        1 <1>        0.000
      2 S2          0.2817   -0.6015   -0.9174 S.3        1 <1>        0.000
      3 S3         -1.4224    0.3439   -1.3529 S.3        1 <1>        0.000
      4 C1         -2.5493   -0.9868   -1.2410 C.2        1 <1>        0.000
      5 S4         -3.7813   -1.2316   -2.3528 S.2        1 <1>        0.000
      6 O1         -2.3527   -1.8746   -0.2102 O.3        1 <1>        0.000
      7 S5          0.7394    1.5817    1.1298 S.3        1 <1>        0.000
      8 C3          2.4319    1.4895    0.7057 C.2        1 <1>        0.000
      9 S6          3.2372    2.6474   -0.2136 S.2        1 <1>        0.000
     10 O2          3.1074    0.3780    1.1537 O.3        1 <1>        0.000
     11 H          -1.6114   -1.5824    0.3253 H.spc      1 <1>        0.000
     12 H           2.5085   -0.1772    1.6583 H.spc      1 <1>        0.000
@<TRIPOS>BOND
     1    1    2 1  
     2    1    7 1  
     3    2    3 1  
     4    3    4 1  
     5    4    5 2  
     6    4    6 1  
     7    7    8 1  
     8    8    9 2  
     9    8   10 1  
    10    6   11 1  
    11   10   12 1  
# Name:          frag3-234-3/31924
# Creation time: Sat Jun  5 12:52:26 2010


@<TRIPOS>MOLECULE
frag3-234-3/31924
   12    11     1     1     1
SMALL
USER_CHARGES


@<TRIPOS>ATOM
      1 S1          0.2398   -0.0313    1.8780 S.3        1 <1>        0.000
      2 S2         -1.2683   -1.2711    1.5407 S.3        1 <1>        0.000
      3 S3         -2.4024   -0.1498    0.3525 S.3        1 <1>        0.000
      4 C1         -1.6294   -0.4002   -1.1867 C.2        1 <1>        0.000
      5 S4         -1.0674    0.8465   -2.1757 S.2        1 <1>        0.000
      6 O1         -1.4520   -1.7063   -1.5692 O.3        1 <1>        0.000
      7 S5          1.4511   -0.4715    0.3648 S.3        1 <1>        0.000
      8 C3          1.8644    1.0818   -0.2622 C.2        1 <1>        0.000
      9 S6          2.9599    1.3307   -1.5119 S.2        1 <1>        0.000
     10 O2          1.2558    2.1617    0.3397 O.3        1 <1>        0.000
     11 H          -1.8252   -2.2874   -0.9023 H.spc      1 <1>        0.000
     12 H           0.6637    1.8510    1.0285 H.spc      1 <1>        0.000
@<TRIPOS>BOND
     1    1    2 1  
     2    1    7 1  
     3    2    3 1  
     4    3    4 1  
     5    4    5 2  
     6    4    6 1  
     7    7    8 1  
     8    8    9 2  
     9    8   10 1  
    10    6   11 1  
    11   10   12 1  
# Name:          frag3-234-3/31924
# Creation time: Sat Jun  5 12:52:26 2010


@<TRIPOS>MOLECULE
frag3-234-3/31924
   12    11     1     1     1
SMALL
USER_CHARGES


@<TRIPOS>ATOM
      1 S1         -1.9553    1.4668    0.1421 S.3        1 <1>        0.000
      2 S2         -0.1549    2.1651   -0.3207 S.3        1 <1>        0.000
      3 S3          0.9268    1.5009    1.1975 S.3        1 <1>        0.000
      4 C1          2.1376    0.5672    0.3946 C.2        1 <1>        0.000
      5 S4          3.7605    0.5764    0.8518 S.2        1 <1>        0.000
      6 O1          1.7380   -0.1673   -0.6951 O.3        1 <1>        0.000
      7 S5         -2.3094    0.2984   -1.4125 S.3        1 <1>        0.000
      8 C3         -1.5981   -1.2050   -0.9001 C.2        1 <1>        0.000
      9 S6         -1.3981   -2.5406   -1.9031 S.2        1 <1>        0.000
     10 O2         -1.1955   -1.2716    0.4154 O.3        1 <1>        0.000
     11 H           0.7914   -0.0654   -0.8186 H.spc      1 <1>        0.000
     12 H          -1.3776   -0.4339    0.8474 H.spc      1 <1>        0.000
@<TRIPOS>BOND
     1    1    2 1  
     2    1    7 1  
     3    2    3 1  
     4    3    4 1  
     5    4    5 2  
     6    4    6 1  
     7    7    8 1  
     8    8    9 2  
     9    8   10 1  
    10    6   11 1  
    11   10   12 1  
# Name:          frag3-234-3/31924
# Creation time: Sat Jun  5 12:52:26 2010


@<TRIPOS>MOLECULE
frag3-234-3/31924
   12    11     1     1     1
SMALL
USER_CHARGES


@<TRIPOS>ATOM
      1 S1          0.7798   -0.4634   -0.1714 S.3        1 <1>        0.000
      2 S2         -0.9005    0.3474    0.4740 S.3        1 <1>        0.000
      3 S3         -1.9253    0.4647   -1.2353 S.3        1 <1>        0.000
      4 C1         -2.8293   -0.9936   -1.1215 C.2        1 <1>        0.000
      5 S4         -2.1558   -2.5469   -1.2231 S.2        1 <1>        0.000
      6 O1         -4.1597   -0.8695   -0.8475 O.3        1 <1>        0.000
      7 S5          1.7417    1.1604   -0.8269 S.3        1 <1>        0.000
      8 C3          2.8472    1.3834    0.4669 C.2        1 <1>        0.000
      9 S6          2.3858    1.7037    2.0691 S.2        1 <1>        0.000
     10 O2          4.1677    1.2041    0.1856 O.3        1 <1>        0.000
     11 H          -4.3945    0.0610   -0.8218 H.spc      1 <1>        0.000
     12 H           4.2734    1.0328   -0.7531 H.spc      1 <1>        0.000
@<TRIPOS>BOND
     1    1    2 1  
     2    1    7 1  
     3    2    3 1  
     4    3    4 1  
     5    4    5 2  
     6    4    6 1  
     7    7    8 1  
     8    8    9 2  
     9    8   10 1  
    10    6   11 1  
    11   10   12 1  
# Name:          frag3-234-3/31924
# Creation time: Sat Jun  5 12:52:26 2010


@<TRIPOS>MOLECULE
frag3-234-3/31924
   12    11     1     1     1
SMALL
USER_CHARGES


@<TRIPOS>ATOM
      1 S1         -0.0291    1.8327    1.5807 S.3        1 <1>        0.000
      2 S2         -1.5137    0.5833    1.2259 S.3        1 <1>        0.000
      3 S3         -1.7219    0.7236   -0.7332 S.3        1 <1>        0.000
      4 C1         -1.5501   -0.8954   -1.2723 C.2        1 <1>        0.000
      5 S4         -2.1764   -1.4858   -2.7103 S.2        1 <1>        0.000
      6 O1         -0.8896   -1.7571   -0.4192 O.3        1 <1>        0.000
      7 S5          1.5141    0.5732    1.6519 S.3        1 <1>        0.000
      8 C3          1.9693    0.5287   -0.0166 C.2        1 <1>        0.000
      9 S6          2.5053    1.9231   -0.8329 S.2        1 <1>        0.000
     10 O2          1.8438   -0.6359   -0.7040 O.3        1 <1>        0.000
     11 H          -0.5920   -1.2736    0.3549 H.spc      1 <1>        0.000
     12 H           1.5344   -1.3245   -0.1109 H.spc      1 <1>        0.000
@<TRIPOS>BOND
     1    1    2 1  
     2    1    7 1  
     3    2    3 1  
     4    3    4 1  
     5    4    5 2  
     6    4    6 1  
     7    7    8 1  
     8    8    9 2  
     9    8   10 1  
    10    6   11 1  
    11   10   12 1  
# Name:          frag3-234-3/31924
# Creation time: Sat Jun  5 12:52:26 2010


@<TRIPOS>MOLECULE
frag3-234-3/31924
   12    11     1     1     1
SMALL
USER_CHARGES


@<TRIPOS>ATOM
      1 S1          0.1400    0.0979    1.2025 S.3        1 <1>        0.000
      2 S2         -0.4317   -1.6805    0.5355 S.3        1 <1>        0.000
      3 S3         -2.3889   -1.3377    0.3459 S.3        1 <1>        0.000
      4 C1         -2.4180   -0.6079   -1.2317 C.2        1 <1>        0.000
      5 S4         -2.2075   -1.5352   -2.6427 S.2        1 <1>        0.000
      6 O1         -2.5561    0.7412   -1.3250 O.3        1 <1>        0.000
      7 S5          1.0053    0.8592   -0.4136 S.3        1 <1>        0.000
      8 C3          2.5115    1.3914    0.2382 C.2        1 <1>        0.000
      9 S6          3.0063    3.0053    0.1925 S.2        1 <1>        0.000
     10 O2          3.2907    0.4567    0.8684 O.3        1 <1>        0.000
     11 H          -2.6649    1.1121   -0.4463 H.spc      1 <1>        0.000
     12 H           2.8707   -0.4042    0.8043 H.spc      1 <1>        0.000
@<TRIPOS>BOND
     1    1    2 1  
     2    1    7 1  
     3    2    3 1  
     4    3    4 1  
     5    4    5 2  
     6    4    6 1  
     7    7    8 1  
     8    8    9 2  
     9    8   10 1  
    10    6   11 1  
    11   10   12 1  
# Name:          frag3-234-3/31924
# Creation time: Sat Jun  5 12:52:26 2010


@<TRIPOS>MOLECULE
frag3-234-3/31924
   12    11     1     1     1
SMALL
USER_CHARGES


@<TRIPOS>ATOM
      1 S1          0.2671    1.3543   -0.9352 S.3        1 <1>        0.000
      2 S2         -0.9808    0.8337    0.5344 S.3        1 <1>        0.000
      3 S3         -2.6130    0.4637   -0.5055 S.3        1 <1>        0.000
      4 C1         -2.3270   -1.1585   -1.0573 C.2        1 <1>        0.000
      5 S4         -3.0811   -1.8583   -2.3845 S.2        1 <1>        0.000
      6 O1         -1.4085   -1.8902   -0.3327 O.3        1 <1>        0.000
      7 S5          1.7475    0.0643   -0.6325 S.3        1 <1>        0.000
      8 C3          2.5402    0.8799    0.6878 C.2        1 <1>        0.000
      9 S6          3.3359    2.3681    0.4663 S.2        1 <1>        0.000
     10 O2          2.4714    0.3334    1.9293 O.3        1 <1>        0.000
     11 H          -1.0704   -1.3535    0.3879 H.spc      1 <1>        0.000
     12 H           1.9943   -0.4985    1.8855 H.spc      1 <1>        0.000
@<TRIPOS>BOND
     1    1    2 1  
     2    1    7 1  
     3    2    3 1  
     4    3    4 1  
     5    4    5 2  
     6    4    6 1  
     7    7    8 1  
     8    8    9 2  
     9    8   10 1  
    10    6   11 1  
    11   10   12 1  
# Name:          frag3-234-3/31924
# Creation time: Sat Jun  5 12:52:26 2010


@<TRIPOS>MOLECULE
frag3-234-3/31924
   12    11     1     1     1
SMALL
USER_CHARGES


@<TRIPOS>ATOM
      1 S1         -0.9153    1.6234   -0.8250 S.3        1 <1>        0.000
      2 S2          0.9582    1.6336   -1.4533 S.3        1 <1>        0.000
      3 S3          1.6431   -0.0706   -0.6599 S.3        1 <1>        0.000
      4 C1          2.1849    0.5299    0.8661 C.2        1 <1>        0.000
      5 S4          1.1629    0.8606    2.1777 S.2        1 <1>        0.000
      6 O1          3.5148    0.8173    0.9694 O.3        1 <1>        0.000
      7 S5         -1.6361    0.1433   -1.9423 S.3        1 <1>        0.000
      8 C3         -2.1198   -1.0307   -0.7844 C.2        1 <1>        0.000
      9 S6         -3.4870   -1.9904   -0.9370 S.2        1 <1>        0.000
     10 O2         -1.3540   -1.1259    0.3587 O.3        1 <1>        0.000
     11 H           3.9577    0.5755    0.1527 H.spc      1 <1>        0.000
     12 H          -0.6126   -0.5192    0.2973 H.spc      1 <1>        0.000
@<TRIPOS>BOND
     1    1    2 1  
     2    1    7 1  
     3    2    3 1  
     4    3    4 1  
     5    4    5 2  
     6    4    6 1  
     7    7    8 1  
     8    8    9 2  
     9    8   10 1  
    10    6   11 1  
    11   10   12 1  
# Name:          frag3-234-3/31924
# Creation time: Sat Jun  5 12:52:26 2010


@<TRIPOS>MOLECULE
frag3-234-3/31924
   12    11     1     1     1
SMALL
USER_CHARGES


@<TRIPOS>ATOM
      1 S1         -0.2842    1.4496    1.3529 S.3        1 <1>        0.000
      2 S2         -1.0397   -0.3810    1.3150 S.3        1 <1>        0.000
      3 S3         -2.5118   -0.0974   -0.0007 S.3        1 <1>        0.000
      4 C1         -1.8887   -0.8797   -1.4042 C.2        1 <1>        0.000
      5 S4         -2.4136   -2.4058   -1.8996 S.2        1 <1>        0.000
      6 O1         -0.8792   -0.2653   -2.0924 O.3        1 <1>        0.000
      7 S5          0.7047    1.4677   -0.3706 S.3        1 <1>        0.000
      8 C3          2.2639    0.9329    0.1420 C.2        1 <1>        0.000
      9 S6          3.6859    1.7507   -0.2229 S.2        1 <1>        0.000
     10 O2          2.3144   -0.1812    0.9504 O.3        1 <1>        0.000
     11 H          -0.6949    0.5883   -1.6937 H.spc      1 <1>        0.000
     12 H           1.4284   -0.5329    1.0644 H.spc      1 <1>        0.000
@<TRIPOS>BOND
     1    1    2 1  
     2    1    7 1  
     3    2    3 1  
     4    3    4 1  
     5    4    5 2  
     6    4    6 1  
     7    7    8 1  
     8    8    9 2  
     9    8   10 1  
    10    6   11 1  
    11   10   12 1  
# Name:          frag3-234-3/31924
# Creation time: Sat Jun  5 12:52:26 2010


@<TRIPOS>MOLECULE
frag3-234-3/31924
   12    11     1     1     1
SMALL
USER_CHARGES


@<TRIPOS>ATOM
      1 S1          0.1362   -0.3093    1.3182 S.3        1 <1>        0.000
      2 S2         -0.9527    0.8818    0.1353 S.3        1 <1>        0.000
      3 S3         -0.8085   -0.0901   -1.5948 S.3        1 <1>        0.000
      4 C1         -2.1462   -1.1830   -1.3885 C.2        1 <1>        0.000
      5 S4         -3.7548   -0.6235   -1.3771 S.2        1 <1>        0.000
      6 O1         -1.8904   -2.5001   -1.1820 O.3        1 <1>        0.000
      7 S5          1.5120    0.9795    1.9098 S.3        1 <1>        0.000
      8 C3          2.3700    1.2730    0.4176 C.2        1 <1>        0.000
      9 S6          2.9262    2.7836   -0.0739 S.2        1 <1>        0.000
     10 O2          2.5599    0.1786   -0.3947 O.3        1 <1>        0.000
     11 H          -0.9430   -2.6506   -1.2191 H.spc      1 <1>        0.000
     12 H           2.1880   -0.5997    0.0267 H.spc      1 <1>        0.000
@<TRIPOS>BOND
     1    1    2 1  
     2    1    7 1  
     3    2    3 1  
     4    3    4 1  
     5    4    5 2  
     6    4    6 1  
     7    7    8 1  
     8    8    9 2  
     9    8   10 1  
    10    6   11 1  
    11   10   12 1  
# Name:          frag3-234-3/31924
# Creation time: Sat Jun  5 12:52:26 2010


@<TRIPOS>MOLECULE
frag3-234-3/31924
   12    11     1     1     1
SMALL
USER_CHARGES


@<TRIPOS>ATOM
      1 S1         -0.0524    1.6002   -0.2918 S.3        1 <1>        0.000
      2 S2         -0.8433    0.2243    0.9076 S.3        1 <1>        0.000
      3 S3         -2.6515    0.0692    0.1294 S.3        1 <1>        0.000
      4 C1         -2.3566   -1.0446   -1.1563 C.2        1 <1>        0.000
      5 S4         -2.1327   -2.7018   -0.8764 S.2        1 <1>        0.000
      6 O1         -2.2318   -0.5634   -2.4264 O.3        1 <1>        0.000
      7 S5          1.5535    0.6605   -0.9603 S.3        1 <1>        0.000
      8 C3          2.5920    0.8943    0.4090 C.2        1 <1>        0.000
      9 S6          3.2042    2.4225    0.8238 S.2        1 <1>        0.000
     10 O2          2.8703   -0.1707    1.2112 O.3        1 <1>        0.000
     11 H          -2.3856    0.3842   -2.4249 H.spc      1 <1>        0.000
     12 H           2.4588   -0.9588    0.8491 H.spc      1 <1>        0.000
@<TRIPOS>BOND
     1    1    2 1  
     2    1    7 1  
     3    2    3 1  
     4    3    4 1  
     5    4    5 2  
     6    4    6 1  
     7    7    8 1  
     8    8    9 2  
     9    8   10 1  
    10    6   11 1  
    11   10   12 1  
# Name:          frag3-234-3/31924
# Creation time: Sat Jun  5 12:52:26 2010


@<TRIPOS>MOLECULE
frag3-234-3/31924
   12    11     1     1     1
SMALL
USER_CHARGES


@<TRIPOS>ATOM
      1 S1         -0.9234   -0.9806    1.4238 S.3        1 <1>        0.000
      2 S2          0.8498   -0.3590    2.0342 S.3        1 <1>        0.000
      3 S3          0.8804    1.4708    1.2447 S.3        1 <1>        0.000
      4 C1          1.8865    1.2434   -0.1508 C.2        1 <1>        0.000
      5 S4          1.8246    2.2074   -1.5274 S.2        1 <1>        0.000
      6 O1          2.7717    0.1895   -0.0927 O.3        1 <1>        0.000
      7 S5         -0.5586   -1.3540   -0.5018 S.3        1 <1>        0.000
      8 C3         -1.8940   -0.5941   -1.2858 C.2        1 <1>        0.000
      9 S6         -1.7741    0.2869   -2.7152 S.2        1 <1>        0.000
     10 O2         -3.1113   -0.7199   -0.6590 O.3        1 <1>        0.000
     11 H           2.6820   -0.2560    0.7529 H.spc      1 <1>        0.000
     12 H          -3.0076   -1.2480    0.1360 H.spc      1 <1>        0.000
@<TRIPOS>BOND
     1    1    2 1  
     2    1    7 1  
     3    2    3 1  
     4    3    4 1  
     5    4    5 2  
     6    4    6 1  
     7    7    8 1  
     8    8    9 2  
     9    8   10 1  
    10    6   11 1  
    11   10   12 1  
# Name:          frag3-234-3/31924
# Creation time: Sat Jun  5 12:52:26 2010


@<TRIPOS>MOLECULE
frag3-234-3/31924
   12    11     1     1     1
SMALL
USER_CHARGES


@<TRIPOS>ATOM
      1 S1          0.0703   -0.4127   -1.1598 S.3        1 <1>        0.000
      2 S2          0.3752   -0.3232    0.8045 S.3        1 <1>        0.000
      3 S3          0.8605    1.6004    0.9478 S.3        1 <1>        0.000
      4 C1          2.5539    1.5270    0.5839 C.2        1 <1>        0.000
      5 S4          3.7133    2.4662    1.3528 S.2        1 <1>        0.000
      6 O1          2.9517    0.5954   -0.3527 O.3        1 <1>        0.000
      7 S5         -1.7566    0.4148   -1.2234 S.3        1 <1>        0.000
      8 C3         -2.7057   -1.0227   -1.0481 C.2        1 <1>        0.000
      9 S6         -2.5717   -2.3166   -2.1501 S.2        1 <1>        0.000
     10 O2         -3.5393   -1.1382    0.0150 O.3        1 <1>        0.000
     11 H           2.1797    0.1424   -0.6997 H.spc      1 <1>        0.000
     12 H          -3.5037   -0.3334    0.5371 H.spc      1 <1>        0.000
@<TRIPOS>BOND
     1    1    2 1  
     2    1    7 1  
     3    2    3 1  
     4    3    4 1  
     5    4    5 2  
     6    4    6 1  
     7    7    8 1  
     8    8    9 2  
     9    8   10 1  
    10    6   11 1  
    11   10   12 1  
# Name:          frag3-234-3/31924
# Creation time: Sat Jun  5 12:52:26 2010


@<TRIPOS>MOLECULE
frag3-234-3/31924
   12    11     1     1     1
SMALL
USER_CHARGES


@<TRIPOS>ATOM
      1 S1         -0.1653    0.3124   -1.5753 S.3        1 <1>        0.000
      2 S2          0.6238   -0.4795    0.0740 S.3        1 <1>        0.000
      3 S3          0.8613    1.1734    1.1669 S.3        1 <1>        0.000
      4 C1          2.5677    1.3972    0.9949 C.2        1 <1>        0.000
      5 S4          3.2723    2.4958   -0.0789 S.2        1 <1>        0.000
      6 O1          3.3647    0.5740    1.7452 O.3        1 <1>        0.000
      7 S5         -2.0348    0.5471   -0.9203 S.3        1 <1>        0.000
      8 C3         -2.6359   -1.0863   -1.1094 C.2        1 <1>        0.000
      9 S6         -4.0512   -1.4483   -1.9277 S.2        1 <1>        0.000
     10 O2         -1.8509   -2.0953   -0.5993 O.3        1 <1>        0.000
     11 H           2.8144    0.0154    2.2990 H.spc      1 <1>        0.000
     12 H          -1.0844   -1.7142   -0.1647 H.spc      1 <1>        0.000
@<TRIPOS>BOND
     1    1    2 1  
     2    1    7 1  
     3    2    3 1  
     4    3    4 1  
     5    4    5 2  
     6    4    6 1  
     7    7    8 1  
     8    8    9 2  
     9    8   10 1  
    10    6   11 1  
    11   10   12 1  
# Name:          frag3-234-3/31924
# Creation time: Sat Jun  5 12:52:26 2010


@<TRIPOS>MOLECULE
frag3-234-3/31924
   12    11     1     1     1
SMALL
USER_CHARGES


@<TRIPOS>ATOM
      1 S1          0.2950   -0.1570    0.3882 S.3        1 <1>        0.000
      2 S2         -1.0376    1.0826   -0.3947 S.3        1 <1>        0.000
      3 S3         -1.5383    0.0148   -2.0058 S.3        1 <1>        0.000
      4 C1         -2.5228   -1.1799   -1.2277 C.2        1 <1>        0.000
      5 S4         -4.0165   -0.7937   -0.5198 S.2        1 <1>        0.000
      6 O1         -2.0515   -2.4545   -1.1206 O.3        1 <1>        0.000
      7 S5          1.9429    0.4009   -0.5891 S.3        1 <1>        0.000
      8 C3          2.7701    1.2170    0.6734 C.2        1 <1>        0.000
      9 S6          2.2061    2.6325    1.4200 S.2        1 <1>        0.000
     10 O2          3.9043    0.6278    1.1461 O.3        1 <1>        0.000
     11 H          -1.2038   -2.5196   -1.5665 H.spc      1 <1>        0.000
     12 H           4.0962   -0.1567    0.6271 H.spc      1 <1>        0.000
@<TRIPOS>BOND
     1    1    2 1  
     2    1    7 1  
     3    2    3 1  
     4    3    4 1  
     5    4    5 2  
     6    4    6 1  
     7    7    8 1  
     8    8    9 2  
     9    8   10 1  
    10    6   11 1  
    11   10   12 1  
# Name:          frag3-234-3/31924
# Creation time: Sat Jun  5 12:52:26 2010


@<TRIPOS>MOLECULE
frag3-234-3/31924
   12    11     1     1     1
SMALL
USER_CHARGES


@<TRIPOS>ATOM
      1 S1          0.4898    2.0609   -1.3175 S.3        1 <1>        0.000
      2 S2         -0.9490    1.0163   -2.1250 S.3        1 <1>        0.000
      3 S3         -2.1712    0.6631   -0.6065 S.3        1 <1>        0.000
      4 C1         -1.7880   -0.9504   -0.2085 C.2        1 <1>        0.000
      5 S4         -1.8048   -2.1941   -1.3659 S.2        1 <1>        0.000
      6 O1         -1.4014   -1.2515    1.0577 O.3        1 <1>        0.000
      7 S5          1.9369    0.7389   -1.0709 S.3        1 <1>        0.000
      8 C3          1.8928    0.4432    0.6069 C.2        1 <1>        0.000
      9 S6          2.3079    1.6243    1.7456 S.2        1 <1>        0.000
     10 O2          1.4387   -0.7604    1.0542 O.3        1 <1>        0.000
     11 H          -1.4399   -0.4600    1.5996 H.spc      1 <1>        0.000
     12 H           1.2437   -1.3265    0.3038 H.spc      1 <1>        0.000
@<TRIPOS>BOND
     1    1    2 1  
     2    1    7 1  
     3    2    3 1  
     4    3    4 1  
     5    4    5 2  
     6    4    6 1  
     7    7    8 1  
     8    8    9 2  
     9    8   10 1  
    10    6   11 1  
    11   10   12 1  
# Name:          frag3-234-3/31924
# Creation time: Sat Jun  5 12:52:26 2010


@<TRIPOS>MOLECULE
frag3-234-3/31924
   12    11     1     1     1
SMALL
USER_CHARGES


@<TRIPOS>ATOM
      1 S1         -0.1733    2.0932   -0.2241 S.3        1 <1>        0.000
      2 S2         -1.1911    0.9260    1.0053 S.3        1 <1>        0.000
      3 S3         -2.5980    0.2620   -0.2237 S.3        1 <1>        0.000
      4 C1         -1.7972   -1.0353   -1.0303 C.2        1 <1>        0.000
      5 S4         -1.3617   -2.4538   -0.2514 S.2        1 <1>        0.000
      6 O1         -1.4353   -0.8487   -2.3357 O.3        1 <1>        0.000
      7 S5          1.0649    0.8060   -1.0857 S.3        1 <1>        0.000
      8 C3          2.1479    0.5441    0.2231 C.2        1 <1>        0.000
      9 S6          3.1984    1.7368    0.7921 S.2        1 <1>        0.000
     10 O2          2.0971   -0.6399    0.9005 O.3        1 <1>        0.000
     11 H          -1.7558    0.0047   -2.6366 H.spc      1 <1>        0.000
     12 H           1.4652   -1.2240    0.4748 H.spc      1 <1>        0.000
@<TRIPOS>BOND
     1    1    2 1  
     2    1    7 1  
     3    2    3 1  
     4    3    4 1  
     5    4    5 2  
     6    4    6 1  
     7    7    8 1  
     8    8    9 2  
     9    8   10 1  
    10    6   11 1  
    11   10   12 1  
# Name:          frag3-234-3/31924
# Creation time: Sat Jun  5 12:52:26 2010


@<TRIPOS>MOLECULE
frag3-234-3/31924
   12    11     1     1     1
SMALL
USER_CHARGES


@<TRIPOS>ATOM
      1 S1         -1.5478    1.6280   -0.7258 S.3        1 <1>        0.000
      2 S2          0.1138    2.5370   -0.1900 S.3        1 <1>        0.000
      3 S3          1.4717    1.4166   -1.1428 S.3        1 <1>        0.000
      4 C1          2.0831    0.4719    0.1659 C.2        1 <1>        0.000
      5 S4          2.9195    1.1887    1.4642 S.2        1 <1>        0.000
      6 O1          1.8485   -0.8634    0.1808 O.3        1 <1>        0.000
      7 S5         -1.5886    0.0810    0.5199 S.3        1 <1>        0.000
      8 C3         -1.7663   -1.2645   -0.5334 C.2        1 <1>        0.000
      9 S6         -0.9282   -2.7126   -0.3940 S.2        1 <1>        0.000
     10 O2         -2.6541   -1.0924   -1.5748 O.3        1 <1>        0.000
     11 H           1.3710   -1.1122   -0.6140 H.spc      1 <1>        0.000
     12 H          -3.0494   -0.2195   -1.5159 H.spc      1 <1>        0.000
@<TRIPOS>BOND
     1    1    2 1  
     2    1    7 1  
     3    2    3 1  
     4    3    4 1  
     5    4    5 2  
     6    4    6 1  
     7    7    8 1  
     8    8    9 2  
     9    8   10 1  
    10    6   11 1  
    11   10   12 1  
# Name:          frag3-234-3/31924
# Creation time: Sat Jun  5 12:52:26 2010


@<TRIPOS>MOLECULE
frag3-234-3/31924
   12    11     1     1     1
SMALL
USER_CHARGES


@<TRIPOS>ATOM
      1 S1          0.2459   -0.6380    1.2813 S.3        1 <1>        0.000
      2 S2         -1.1506    0.7229    0.8253 S.3        1 <1>        0.000
      3 S3         -1.1389    0.6021   -1.1499 S.3        1 <1>        0.000
      4 C1         -2.0018   -0.8967   -1.3609 C.2        1 <1>        0.000
      5 S4         -3.2658   -1.0892   -2.4522 S.2        1 <1>        0.000
      6 O1         -1.6542   -1.9437   -0.5381 O.3        1 <1>        0.000
      7 S5          1.7340    0.5569    1.7953 S.3        1 <1>        0.000
      8 C3          2.2667    1.1392    0.2435 C.2        1 <1>        0.000
      9 S6          2.2665    2.7606   -0.2163 S.2        1 <1>        0.000
     10 O2          2.6498    0.1764   -0.6580 O.3        1 <1>        0.000
     11 H          -0.9210   -1.6791    0.0222 H.spc      1 <1>        0.000
     12 H           2.5948   -0.6880   -0.2440 H.spc      1 <1>        0.000
@<TRIPOS>BOND
     1    1    2 1  
     2    1    7 1  
     3    2    3 1  
     4    3    4 1  
     5    4    5 2  
     6    4    6 1  
     7    7    8 1  
     8    8    9 2  
     9    8   10 1  
    10    6   11 1  
    11   10   12 1  
# Name:          frag3-234-3/31924
# Creation time: Sat Jun  5 12:52:26 2010


@<TRIPOS>MOLECULE
frag3-234-3/31924
   12    11     1     1     1
SMALL
USER_CHARGES


@<TRIPOS>ATOM
      1 S1         -1.2526   -0.9994    1.4492 S.3        1 <1>        0.000
      2 S2          0.3541    0.0178    1.9848 S.3        1 <1>        0.000
      3 S3          1.5770   -0.3758    0.4640 S.3        1 <1>        0.000
      4 C1          1.9972    1.2024   -0.0873 C.2        1 <1>        0.000
      5 S4          3.5569    1.6291   -0.5595 S.2        1 <1>        0.000
      6 O1          1.0041    2.1526   -0.0768 O.3        1 <1>        0.000
      7 S5         -2.0402    0.2481    0.1129 S.3        1 <1>        0.000
      8 C3         -1.7687   -0.5867   -1.3790 C.2        1 <1>        0.000
      9 S6         -2.8260   -0.5148   -2.6864 S.2        1 <1>        0.000
     10 O2         -0.6502   -1.3831   -1.4518 O.3        1 <1>        0.000
     11 H           0.1819    1.7513    0.2140 H.spc      1 <1>        0.000
     12 H          -0.1555   -1.3138   -0.6320 H.spc      1 <1>        0.000
@<TRIPOS>BOND
     1    1    2 1  
     2    1    7 1  
     3    2    3 1  
     4    3    4 1  
     5    4    5 2  
     6    4    6 1  
     7    7    8 1  
     8    8    9 2  
     9    8   10 1  
    10    6   11 1  
    11   10   12 1  
# Name:          frag3-234-3/31924
# Creation time: Sat Jun  5 12:52:26 2010


@<TRIPOS>MOLECULE
frag3-234-3/31924
   12    11     1     1     1
SMALL
USER_CHARGES


@<TRIPOS>ATOM
      1 S1          0.4724   -0.6583    1.3330 S.3        1 <1>        0.000
      2 S2         -1.3881    0.0188    1.4633 S.3        1 <1>        0.000
      3 S3         -1.6523    0.7097   -0.3764 S.3        1 <1>        0.000
      4 C1         -1.8955   -0.7756   -1.2448 C.2        1 <1>        0.000
      5 S4         -1.6787   -0.9719   -2.8934 S.2        1 <1>        0.000
      6 O1         -2.2951   -1.8587   -0.4814 O.3        1 <1>        0.000
      7 S5          1.4646    1.0685    1.5426 S.3        1 <1>        0.000
      8 C3          2.0877    1.2940   -0.0581 C.2        1 <1>        0.000
      9 S6          3.2909    0.2878   -0.6893 S.2        1 <1>        0.000
     10 O2          1.5456    2.2762   -0.8254 O.3        1 <1>        0.000
     11 H          -2.3751   -1.5896    0.4366 H.spc      1 <1>        0.000
     12 H           0.8830    2.7492   -0.3166 H.spc      1 <1>        0.000
@<TRIPOS>BOND
     1    1    2 1  
     2    1    7 1  
     3    2    3 1  
     4    3    4 1  
     5    4    5 2  
     6    4    6 1  
     7    7    8 1  
     8    8    9 2  
     9    8   10 1  
    10    6   11 1  
    11   10   12 1  
# Name:          frag3-234-3/31924
# Creation time: Sat Jun  5 12:52:26 2010


@<TRIPOS>MOLECULE
frag3-234-3/31924
   12    11     1     1     1
SMALL
USER_CHARGES


@<TRIPOS>ATOM
      1 S1          0.5695   -0.8129    1.0520 S.3        1 <1>        0.000
      2 S2         -1.2952   -0.2788    1.3953 S.3        1 <1>        0.000
      3 S3         -1.7405    0.7026   -0.2640 S.3        1 <1>        0.000
      4 C1         -2.2065   -0.6003   -1.2969 C.2        1 <1>        0.000
      5 S4         -1.7031   -0.8252   -2.8790 S.2        1 <1>        0.000
      6 O1         -3.0433   -1.5386   -0.7209 O.3        1 <1>        0.000
      7 S5          1.5436    0.8610    1.5560 S.3        1 <1>        0.000
      8 C3          2.4035    1.2126    0.1207 C.2        1 <1>        0.000
      9 S6          1.6622    1.4700   -1.3849 S.2        1 <1>        0.000
     10 O2          3.7614    1.1999    0.1918 O.3        1 <1>        0.000
     11 H          -3.2441   -1.2762    0.1804 H.spc      1 <1>        0.000
     12 H           4.0317    1.0447    1.0998 H.spc      1 <1>        0.000
@<TRIPOS>BOND
     1    1    2 1  
     2    1    7 1  
     3    2    3 1  
     4    3    4 1  
     5    4    5 2  
     6    4    6 1  
     7    7    8 1  
     8    8    9 2  
     9    8   10 1  
    10    6   11 1  
    11   10   12 1  
# Name:          frag3-234-3/31924
# Creation time: Sat Jun  5 12:52:26 2010


@<TRIPOS>MOLECULE
frag3-234-3/31924
   12    11     1     1     1
SMALL
USER_CHARGES


@<TRIPOS>ATOM
      1 S1         -1.1331    0.7077    0.9512 S.3        1 <1>        0.000
      2 S2         -0.1454    2.1123   -0.0399 S.3        1 <1>        0.000
      3 S3          1.1840    1.0203   -1.0125 S.3        1 <1>        0.000
      4 C1          2.3656    0.7869    0.2288 C.2        1 <1>        0.000
      5 S4          3.9958    1.1328    0.0366 S.2        1 <1>        0.000
      6 O1          1.9115    0.3614    1.4607 O.3        1 <1>        0.000
      7 S5         -2.5834    0.2859   -0.3396 S.3        1 <1>        0.000
      8 C3         -2.0856   -1.2369   -0.9644 C.2        1 <1>        0.000
      9 S6         -1.0427   -1.4418   -2.2766 S.2        1 <1>        0.000
     10 O2         -2.5150   -2.3381   -0.2743 O.3        1 <1>        0.000
     11 H           0.9655    0.2046    1.4151 H.spc      1 <1>        0.000
     12 H          -3.0969   -2.0615    0.4374 H.spc      1 <1>        0.000
@<TRIPOS>BOND
     1    1    2 1  
     2    1    7 1  
     3    2    3 1  
     4    3    4 1  
     5    4    5 2  
     6    4    6 1  
     7    7    8 1  
     8    8    9 2  
     9    8   10 1  
    10    6   11 1  
    11   10   12 1  
# Name:          frag3-234-3/31924
# Creation time: Sat Jun  5 12:52:26 2010


@<TRIPOS>MOLECULE
frag3-234-3/31924
   12    11     1     1     1
SMALL
USER_CHARGES


@<TRIPOS>ATOM
      1 S1         -0.0231    1.9178   -0.2692 S.3        1 <1>        0.000
      2 S2         -0.5784    0.1030    0.3280 S.3        1 <1>        0.000
      3 S3         -0.9816   -0.7273   -1.4443 S.3        1 <1>        0.000
      4 C1         -2.5066   -1.4701   -1.1158 C.2        1 <1>        0.000
      5 S4         -3.8139   -1.4325   -2.1816 S.2        1 <1>        0.000
      6 O1         -2.6298   -2.0931    0.1015 O.3        1 <1>        0.000
      7 S5          1.8228    1.4729   -0.8972 S.3        1 <1>        0.000
      8 C3          2.6297    1.3080    0.6456 C.2        1 <1>        0.000
      9 S6          3.7202    0.0703    1.0034 S.2        1 <1>        0.000
     10 O2          2.3122    2.2414    1.5997 O.3        1 <1>        0.000
     11 H          -1.8009   -2.0235    0.5807 H.spc      1 <1>        0.000
     12 H           1.6838    2.8689    1.2352 H.spc      1 <1>        0.000
@<TRIPOS>BOND
     1    1    2 1  
     2    1    7 1  
     3    2    3 1  
     4    3    4 1  
     5    4    5 2  
     6    4    6 1  
     7    7    8 1  
     8    8    9 2  
     9    8   10 1  
    10    6   11 1  
    11   10   12 1  
# Name:          frag3-234-3/31924
# Creation time: Sat Jun  5 12:52:26 2010


@<TRIPOS>MOLECULE
frag3-234-3/31924
   12    11     1     1     1
SMALL
USER_CHARGES


@<TRIPOS>ATOM
      1 S1         -1.0683    0.0554    0.9613 S.3        1 <1>        0.000
      2 S2         -0.0903    1.7578    0.6876 S.3        1 <1>        0.000
      3 S3          1.2611    1.1732   -0.6523 S.3        1 <1>        0.000
      4 C1          2.6830    1.1043    0.3461 C.2        1 <1>        0.000
      5 S4          4.2493    1.1221   -0.2772 S.2        1 <1>        0.000
      6 O1          2.4846    1.0668    1.7054 O.3        1 <1>        0.000
      7 S5         -2.4804    0.2495   -0.4363 S.3        1 <1>        0.000
      8 C3         -2.4002   -1.2853   -1.2330 C.2        1 <1>        0.000
      9 S6         -2.2791   -1.4620   -2.9082 S.2        1 <1>        0.000
     10 O2         -2.4081   -2.3913   -0.4233 O.3        1 <1>        0.000
     11 H           1.5426    1.0613    1.8901 H.spc      1 <1>        0.000
     12 H          -2.4820   -2.1151    0.4931 H.spc      1 <1>        0.000
@<TRIPOS>BOND
     1    1    2 1  
     2    1    7 1  
     3    2    3 1  
     4    3    4 1  
     5    4    5 2  
     6    4    6 1  
     7    7    8 1  
     8    8    9 2  
     9    8   10 1  
    10    6   11 1  
    11   10   12 1  
# Name:          frag3-234-3/31924
# Creation time: Sat Jun  5 12:52:26 2010


@<TRIPOS>MOLECULE
frag3-234-3/31924
   12    11     1     1     1
SMALL
USER_CHARGES


@<TRIPOS>ATOM
      1 S1          0.1801   -0.1231    1.2116 S.3        1 <1>        0.000
      2 S2         -1.4425    0.8934    0.6760 S.3        1 <1>        0.000
      3 S3         -2.6792   -0.6380    0.3490 S.3        1 <1>        0.000
      4 C1         -2.2017   -1.0694   -1.2677 C.2        1 <1>        0.000
      5 S4         -2.6251   -0.1054   -2.6046 S.2        1 <1>        0.000
      6 O1         -1.4332   -2.1758   -1.4480 O.3        1 <1>        0.000
      7 S5          1.3360    0.1233   -0.3788 S.3        1 <1>        0.000
      8 C3          2.5748    1.1669    0.2629 C.2        1 <1>        0.000
      9 S6          3.3863    2.3251   -0.6316 S.2        1 <1>        0.000
     10 O2          2.8561    0.9934    1.6010 O.3        1 <1>        0.000
     11 H          -1.2869   -2.6039   -0.6013 H.spc      1 <1>        0.000
     12 H           2.3029    0.2932    1.9549 H.spc      1 <1>        0.000
@<TRIPOS>BOND
     1    1    2 1  
     2    1    7 1  
     3    2    3 1  
     4    3    4 1  
     5    4    5 2  
     6    4    6 1  
     7    7    8 1  
     8    8    9 2  
     9    8   10 1  
    10    6   11 1  
    11   10   12 1  
# Name:          frag3-234-3/31924
# Creation time: Sat Jun  5 12:52:26 2010


@<TRIPOS>MOLECULE
frag3-234-3/31924
   12    11     1     1     1
SMALL
USER_CHARGES


@<TRIPOS>ATOM
      1 S1         -0.0043   -0.3308   -1.4538 S.3        1 <1>        0.000
      2 S2         -0.0076    0.5543    0.3323 S.3        1 <1>        0.000
      3 S3          1.2636    2.0373   -0.0177 S.3        1 <1>        0.000
      4 C1          2.6910    1.3512    0.6816 C.2        1 <1>        0.000
      5 S4          2.9813    1.4069    2.3537 S.2        1 <1>        0.000
      6 O1          3.5673    0.6973   -0.1315 O.3        1 <1>        0.000
      7 S5         -1.8781    0.0578   -2.0016 S.3        1 <1>        0.000
      8 C3         -2.6939   -1.0641   -0.9443 C.2        1 <1>        0.000
      9 S6         -2.5708   -2.7467   -1.1601 S.2        1 <1>        0.000
     10 O2         -3.3969   -0.5728    0.1115 O.3        1 <1>        0.000
     11 H           3.2640    0.7566   -1.0404 H.spc      1 <1>        0.000
     12 H          -3.3717    0.3867    0.0926 H.spc      1 <1>        0.000
@<TRIPOS>BOND
     1    1    2 1  
     2    1    7 1  
     3    2    3 1  
     4    3    4 1  
     5    4    5 2  
     6    4    6 1  
     7    7    8 1  
     8    8    9 2  
     9    8   10 1  
    10    6   11 1  
    11   10   12 1  
# Name:          frag3-234-3/31924
# Creation time: Sat Jun  5 12:52:26 2010


@<TRIPOS>MOLECULE
frag3-234-3/31924
   12    11     1     1     1
SMALL
USER_CHARGES


@<TRIPOS>ATOM
      1 S1         -0.8054    0.9735   -0.7983 S.3        1 <1>        0.000
      2 S2          0.2659   -0.0541    0.5309 S.3        1 <1>        0.000
      3 S3          1.2154    1.4156    1.4671 S.3        1 <1>        0.000
      4 C1          2.7813    1.2405    0.7469 C.2        1 <1>        0.000
      5 S4          3.1558    1.7898   -0.8160 S.2        1 <1>        0.000
      6 O1          3.7192    0.5631    1.4674 O.3        1 <1>        0.000
      7 S5         -2.6175    0.3168   -0.3324 S.3        1 <1>        0.000
      8 C3         -2.5859   -1.2074   -1.1786 C.2        1 <1>        0.000
      9 S6         -3.1409   -1.3618   -2.7721 S.2        1 <1>        0.000
     10 O2         -2.0362   -2.2856   -0.5450 O.3        1 <1>        0.000
     11 H           3.3534    0.3242    2.3222 H.spc      1 <1>        0.000
     12 H          -1.7745   -2.0339    0.3437 H.spc      1 <1>        0.000
@<TRIPOS>BOND
     1    1    2 1  
     2    1    7 1  
     3    2    3 1  
     4    3    4 1  
     5    4    5 2  
     6    4    6 1  
     7    7    8 1  
     8    8    9 2  
     9    8   10 1  
    10    6   11 1  
    11   10   12 1  
# Name:          frag3-234-3/31924
# Creation time: Sat Jun  5 12:52:26 2010


@<TRIPOS>MOLECULE
frag3-234-3/31924
   12    11     1     1     1
SMALL
USER_CHARGES


@<TRIPOS>ATOM
      1 S1          0.7844   -0.0262   -0.8008 S.3        1 <1>        0.000
      2 S2         -0.9174    0.7489   -0.0810 S.3        1 <1>        0.000
      3 S3         -2.1337    0.2895   -1.5815 S.3        1 <1>        0.000
      4 C1         -2.5809   -1.3338   -1.1062 C.2        1 <1>        0.000
      5 S4         -4.1294   -1.9612   -1.3608 S.2        1 <1>        0.000
      6 O1         -1.6293   -2.0858   -0.4694 O.3        1 <1>        0.000
      7 S5          1.9241    1.5974   -0.7378 S.3        1 <1>        0.000
      8 C3          2.6142    1.4200    0.8596 C.2        1 <1>        0.000
      9 S6          4.1628    1.9714    1.2496 S.2        1 <1>        0.000
     10 O2          1.8568    0.7702    1.7984 O.3        1 <1>        0.000
     11 H          -0.8138   -1.5829   -0.4082 H.spc      1 <1>        0.000
     12 H           1.0116    0.5271    1.4136 H.spc      1 <1>        0.000
@<TRIPOS>BOND
     1    1    2 1  
     2    1    7 1  
     3    2    3 1  
     4    3    4 1  
     5    4    5 2  
     6    4    6 1  
     7    7    8 1  
     8    8    9 2  
     9    8   10 1  
    10    6   11 1  
    11   10   12 1  
# Name:          frag3-234-3/31924
# Creation time: Sat Jun  5 12:52:26 2010


@<TRIPOS>MOLECULE
frag3-234-3/31924
   12    11     1     1     1
SMALL
USER_CHARGES


@<TRIPOS>ATOM
      1 S1         -1.2365   -0.2164    1.2128 S.3        1 <1>        0.000
      2 S2          0.7011   -0.6112    1.2486 S.3        1 <1>        0.000
      3 S3          1.4118    1.2372    1.4922 S.3        1 <1>        0.000
      4 C1          2.4613    1.4065    0.1272 C.2        1 <1>        0.000
      5 S4          3.3140    2.8135   -0.2284 S.2        1 <1>        0.000
      6 O1          2.5926    0.3019   -0.6837 O.3        1 <1>        0.000
      7 S5         -1.4500    0.3916   -0.6749 S.3        1 <1>        0.000
      8 C3         -2.3738   -0.9202   -1.3349 C.2        1 <1>        0.000
      9 S6         -2.1583   -1.5337   -2.8895 S.2        1 <1>        0.000
     10 O2         -3.3106   -1.4790   -0.4993 O.3        1 <1>        0.000
     11 H           2.0444   -0.4096   -0.3446 H.spc      1 <1>        0.000
     12 H          -3.3052   -1.0153    0.3413 H.spc      1 <1>        0.000
@<TRIPOS>BOND
     1    1    2 1  
     2    1    7 1  
     3    2    3 1  
     4    3    4 1  
     5    4    5 2  
     6    4    6 1  
     7    7    8 1  
     8    8    9 2  
     9    8   10 1  
    10    6   11 1  
    11   10   12 1  
# Name:          frag3-234-3/31924
# Creation time: Sat Jun  5 12:52:26 2010


@<TRIPOS>MOLECULE
frag3-234-3/31924
   12    11     1     1     1
SMALL
USER_CHARGES


@<TRIPOS>ATOM
      1 S1         -2.0426    1.5398   -0.3229 S.3        1 <1>        0.000
      2 S2         -0.3763    2.0850    0.5912 S.3        1 <1>        0.000
      3 S3          1.0007    1.5091   -0.7165 S.3        1 <1>        0.000
      4 C1          2.0798    0.5849    0.2532 C.2        1 <1>        0.000
      5 S4          3.7537    0.6501    0.0983 S.2        1 <1>        0.000
      6 O1          1.5192   -0.1966    1.2374 O.3        1 <1>        0.000
      7 S5         -2.2470   -0.3117    0.3838 S.3        1 <1>        0.000
      8 C3         -1.4250   -1.2278   -0.8374 C.2        1 <1>        0.000
      9 S6         -2.2360   -1.8561   -2.1858 S.2        1 <1>        0.000
     10 O2         -0.0749   -1.3863   -0.7314 O.3        1 <1>        0.000
     11 H           0.5627   -0.1265    1.1941 H.spc      1 <1>        0.000
     12 H           0.2313   -0.9779    0.0817 H.spc      1 <1>        0.000
@<TRIPOS>BOND
     1    1    2 1  
     2    1    7 1  
     3    2    3 1  
     4    3    4 1  
     5    4    5 2  
     6    4    6 1  
     7    7    8 1  
     8    8    9 2  
     9    8   10 1  
    10    6   11 1  
    11   10   12 1  
# Name:          frag3-234-3/31924
# Creation time: Sat Jun  5 12:52:26 2010


@<TRIPOS>MOLECULE
frag3-234-3/31924
   12    11     1     1     1
SMALL
USER_CHARGES


@<TRIPOS>ATOM
      1 S1          0.7635    0.1882   -0.7052 S.3        1 <1>        0.000
      2 S2         -1.0583    0.7724   -0.1726 S.3        1 <1>        0.000
      3 S3         -1.8592   -1.0069    0.2492 S.3        1 <1>        0.000
      4 C1         -2.8782   -1.2285   -1.1540 C.2        1 <1>        0.000
      5 S4         -3.1442   -2.7210   -1.8796 S.2        1 <1>        0.000
      6 O1         -3.4540   -0.0897   -1.6602 O.3        1 <1>        0.000
      7 S5          1.6649    0.2551    1.0777 S.3        1 <1>        0.000
      8 C3          2.9525    1.3685    0.7347 C.2        1 <1>        0.000
      9 S6          3.1912    2.8063    1.5923 S.2        1 <1>        0.000
     10 O2          3.7733    1.0459   -0.3124 O.3        1 <1>        0.000
     11 H          -3.1952    0.6637   -1.1245 H.spc      1 <1>        0.000
     12 H           3.5001    0.2040   -0.6841 H.spc      1 <1>        0.000
@<TRIPOS>BOND
     1    1    2 1  
     2    1    7 1  
     3    2    3 1  
     4    3    4 1  
     5    4    5 2  
     6    4    6 1  
     7    7    8 1  
     8    8    9 2  
     9    8   10 1  
    10    6   11 1  
    11   10   12 1  
# Name:          frag3-234-3/31924
# Creation time: Sat Jun  5 12:52:26 2010


@<TRIPOS>MOLECULE
frag3-234-3/31924
   12    11     1     1     1
SMALL
USER_CHARGES


@<TRIPOS>ATOM
      1 S1         -0.1884   -0.5886   -0.4553 S.3        1 <1>        0.000
      2 S2          0.0414    1.1339    0.5159 S.3        1 <1>        0.000
      3 S3          1.6433    1.8265   -0.4507 S.3        1 <1>        0.000
      4 C1          2.8755    1.4827    0.7367 C.2        1 <1>        0.000
      5 S4          4.1646    2.5379    1.0340 S.2        1 <1>        0.000
      6 O1          2.7431    0.3317    1.4640 O.3        1 <1>        0.000
      7 S5         -1.7335   -0.0985   -1.6179 S.3        1 <1>        0.000
      8 C3         -2.8536   -1.3649   -1.2047 C.2        1 <1>        0.000
      9 S6         -3.9432   -2.0152   -2.3232 S.2        1 <1>        0.000
     10 O2         -2.7976   -1.8551    0.0714 O.3        1 <1>        0.000
     11 H           1.9643   -0.1450    1.1676 H.spc      1 <1>        0.000
     12 H          -2.1303   -1.3759    0.5681 H.spc      1 <1>        0.000
@<TRIPOS>BOND
     1    1    2 1  
     2    1    7 1  
     3    2    3 1  
     4    3    4 1  
     5    4    5 2  
     6    4    6 1  
     7    7    8 1  
     8    8    9 2  
     9    8   10 1  
    10    6   11 1  
    11   10   12 1  
# Name:          frag3-234-3/31924
# Creation time: Sat Jun  5 12:52:26 2010


@<TRIPOS>MOLECULE
frag3-234-3/31924
   12    11     1     1     1
SMALL
USER_CHARGES


@<TRIPOS>ATOM
      1 S1         -0.0928    1.6042   -0.3353 S.3        1 <1>        0.000
      2 S2         -0.9063    0.2365    0.8771 S.3        1 <1>        0.000
      3 S3         -2.6548   -0.0003   -0.0042 S.3        1 <1>        0.000
      4 C1         -2.2633   -1.1572   -1.2415 C.2        1 <1>        0.000
      5 S4         -3.2733   -2.4385   -1.6575 S.2        1 <1>        0.000
      6 O1         -1.0404   -1.0284   -1.8556 O.3        1 <1>        0.000
      7 S5          1.5800    0.6812   -0.8481 S.3        1 <1>        0.000
      8 C3          2.5466    1.0150    0.5642 C.2        1 <1>        0.000
      9 S6          4.0001    1.8686    0.4921 S.2        1 <1>        0.000
     10 O2          2.0557    0.6092    1.7788 O.3        1 <1>        0.000
     11 H          -0.5902   -0.2539   -1.5104 H.spc      1 <1>        0.000
     12 H           1.2283    0.1403    1.6478 H.spc      1 <1>        0.000
@<TRIPOS>BOND
     1    1    2 1  
     2    1    7 1  
     3    2    3 1  
     4    3    4 1  
     5    4    5 2  
     6    4    6 1  
     7    7    8 1  
     8    8    9 2  
     9    8   10 1  
    10    6   11 1  
    11   10   12 1  
# Name:          frag3-234-3/31924
# Creation time: Sat Jun  5 12:52:26 2010


@<TRIPOS>MOLECULE
frag3-234-3/31924
   12    11     1     1     1
SMALL
USER_CHARGES


@<TRIPOS>ATOM
      1 S1          0.4863    0.8751   -1.0811 S.3        1 <1>        0.000
      2 S2         -1.3186    1.4770   -0.4927 S.3        1 <1>        0.000
      3 S3         -2.4398    0.4032   -1.7268 S.3        1 <1>        0.000
      4 C1         -2.3693   -1.1662   -0.9647 C.2        1 <1>        0.000
      5 S4         -2.6853   -2.6117   -1.7709 S.2        1 <1>        0.000
      6 O1         -2.0321   -1.1832    0.3679 O.3        1 <1>        0.000
      7 S5          1.1692    0.0170    0.5728 S.3        1 <1>        0.000
      8 C3          2.6304    0.9149    0.8260 C.2        1 <1>        0.000
      9 S6          3.1159    1.5106    2.3279 S.2        1 <1>        0.000
     10 O2          3.3948    1.1537   -0.2883 O.3        1 <1>        0.000
     11 H          -1.8859   -0.2842    0.6713 H.spc      1 <1>        0.000
     12 H           2.9792    0.7485   -1.0529 H.spc      1 <1>        0.000
@<TRIPOS>BOND
     1    1    2 1  
     2    1    7 1  
     3    2    3 1  
     4    3    4 1  
     5    4    5 2  
     6    4    6 1  
     7    7    8 1  
     8    8    9 2  
     9    8   10 1  
    10    6   11 1  
    11   10   12 1  
# Name:          frag3-234-3/31924
# Creation time: Sat Jun  5 12:52:26 2010


@<TRIPOS>MOLECULE
frag3-234-3/31924
   12    11     1     1     1
SMALL
USER_CHARGES


@<TRIPOS>ATOM
      1 S1          0.0344    2.1480   -0.3956 S.3        1 <1>        0.000
      2 S2         -1.2750    1.0846    0.6440 S.3        1 <1>        0.000
      3 S3         -2.4507    0.4659   -0.8309 S.3        1 <1>        0.000
      4 C1         -1.8864   -1.1459   -1.1084 C.2        1 <1>        0.000
      5 S4         -2.7282   -2.5020   -0.6081 S.2        1 <1>        0.000
      6 O1         -0.6534   -1.2848   -1.6952 O.3        1 <1>        0.000
      7 S5          1.3020    0.7200   -0.9663 S.3        1 <1>        0.000
      8 C3          2.2389    0.5886    0.4797 C.2        1 <1>        0.000
      9 S6          3.3131    1.8084    0.9623 S.2        1 <1>        0.000
     10 O2          2.0569   -0.4925    1.2885 O.3        1 <1>        0.000
     11 H          -0.3085   -0.4180   -1.9216 H.spc      1 <1>        0.000
     12 H           1.4250   -1.0910    0.8834 H.spc      1 <1>        0.000
@<TRIPOS>BOND
     1    1    2 1  
     2    1    7 1  
     3    2    3 1  
     4    3    4 1  
     5    4    5 2  
     6    4    6 1  
     7    7    8 1  
     8    8    9 2  
     9    8   10 1  
    10    6   11 1  
    11   10   12 1  
# Name:          frag3-234-3/31924
# Creation time: Sat Jun  5 12:52:26 2010


@<TRIPOS>MOLECULE
frag3-234-3/31924
   12    11     1     1     1
SMALL
USER_CHARGES


@<TRIPOS>ATOM
      1 S1         -1.1895    0.7560    0.7217 S.3        1 <1>        0.000
      2 S2         -0.1536    1.3058   -0.9058 S.3        1 <1>        0.000
      3 S3          1.2488    2.4053   -0.0508 S.3        1 <1>        0.000
      4 C1          2.4005    1.1832    0.4105 C.2        1 <1>        0.000
      5 S4          4.0668    1.3918    0.2629 S.2        1 <1>        0.000
      6 O1          1.8995   -0.0125    0.8611 O.3        1 <1>        0.000
      7 S5         -1.1462   -1.2129    0.5247 S.3        1 <1>        0.000
      8 C3         -2.1396   -1.3904   -0.9065 C.2        1 <1>        0.000
      9 S6         -1.8144   -2.4872   -2.1448 S.2        1 <1>        0.000
     10 O2         -3.2207   -0.5488   -1.0031 O.3        1 <1>        0.000
     11 H           0.9409    0.0328    0.8867 H.spc      1 <1>        0.000
     12 H          -3.2630    0.0070   -0.2215 H.spc      1 <1>        0.000
@<TRIPOS>BOND
     1    1    2 1  
     2    1    7 1  
     3    2    3 1  
     4    3    4 1  
     5    4    5 2  
     6    4    6 1  
     7    7    8 1  
     8    8    9 2  
     9    8   10 1  
    10    6   11 1  
    11   10   12 1  
# Name:          frag3-234-3/31924
# Creation time: Sat Jun  5 12:52:26 2010


@<TRIPOS>MOLECULE
frag3-234-3/31924
   12    11     1     1     1
SMALL
USER_CHARGES


@<TRIPOS>ATOM
      1 S1         -0.2905    1.1993    1.1001 S.3        1 <1>        0.000
      2 S2         -0.9866   -0.6289    1.4019 S.3        1 <1>        0.000
      3 S3         -2.6525   -0.5173    0.3081 S.3        1 <1>        0.000
      4 C1         -2.0085   -0.7590   -1.2900 C.2        1 <1>        0.000
      5 S4         -1.3585   -2.2374   -1.7768 S.2        1 <1>        0.000
      6 O1         -1.9654    0.3135   -2.1330 O.3        1 <1>        0.000
      7 S5          0.7472    0.9560   -0.5781 S.3        1 <1>        0.000
      8 C3          2.3460    0.9457    0.0394 C.2        1 <1>        0.000
      9 S6          3.2667    2.3535    0.1884 S.2        1 <1>        0.000
     10 O2          2.8538   -0.2351    0.5100 O.3        1 <1>        0.000
     11 H          -2.3742    1.0705   -1.7071 H.spc      1 <1>        0.000
     12 H           2.2199   -0.9392    0.3548 H.spc      1 <1>        0.000
@<TRIPOS>BOND
     1    1    2 1  
     2    1    7 1  
     3    2    3 1  
     4    3    4 1  
     5    4    5 2  
     6    4    6 1  
     7    7    8 1  
     8    8    9 2  
     9    8   10 1  
    10    6   11 1  
    11   10   12 1  
# Name:          frag3-234-3/31924
# Creation time: Sat Jun  5 12:52:26 2010


@<TRIPOS>MOLECULE
frag3-234-3/31924
   12    11     1     1     1
SMALL
USER_CHARGES


@<TRIPOS>ATOM
      1 S1          0.2962    0.1889    1.8225 S.3        1 <1>        0.000
      2 S2         -1.3795    0.4364    0.7989 S.3        1 <1>        0.000
      3 S3         -0.8190   -0.2246   -0.9990 S.3        1 <1>        0.000
      4 C1         -2.1607   -1.2343   -1.3986 C.2        1 <1>        0.000
      5 S4         -3.1451   -0.9440   -2.7434 S.2        1 <1>        0.000
      6 O1         -2.4524   -2.2640   -0.5467 O.3        1 <1>        0.000
      7 S5          1.2348    1.8743    1.3159 S.3        1 <1>        0.000
      8 C3          2.4215    1.3037    0.1827 C.2        1 <1>        0.000
      9 S6          3.4513    2.3147   -0.6833 S.2        1 <1>        0.000
     10 O2          2.5046   -0.0608    0.0211 O.3        1 <1>        0.000
     11 H          -1.8004   -2.2898    0.1574 H.spc      1 <1>        0.000
     12 H           1.8535   -0.4886    0.5821 H.spc      1 <1>        0.000
@<TRIPOS>BOND
     1    1    2 1  
     2    1    7 1  
     3    2    3 1  
     4    3    4 1  
     5    4    5 2  
     6    4    6 1  
     7    7    8 1  
     8    8    9 2  
     9    8   10 1  
    10    6   11 1  
    11   10   12 1  
# Name:          frag3-234-3/31924
# Creation time: Sat Jun  5 12:52:26 2010


@<TRIPOS>MOLECULE
frag3-234-3/31924
   12    11     1     1     1
SMALL
USER_CHARGES


@<TRIPOS>ATOM
      1 S1         -1.3067    1.5141   -0.7666 S.3        1 <1>        0.000
      2 S2          0.6309    1.5433   -1.1672 S.3        1 <1>        0.000
      3 S3          1.2768    0.0286   -0.0436 S.3        1 <1>        0.000
      4 C1          2.4924    0.8151    0.8969 C.2        1 <1>        0.000
      5 S4          2.7077    0.5715    2.5508 S.2        1 <1>        0.000
      6 O1          3.2949    1.7055    0.2247 O.3        1 <1>        0.000
      7 S5         -1.8667    0.0656   -2.0200 S.3        1 <1>        0.000
      8 C3         -2.2538   -1.2258   -0.9281 C.2        1 <1>        0.000
      9 S6         -3.4799   -2.3442   -1.2227 S.2        1 <1>        0.000
     10 O2         -1.5439   -1.2834    0.2457 O.3        1 <1>        0.000
     11 H           3.0432    1.7253   -0.7015 H.spc      1 <1>        0.000
     12 H          -0.8883   -0.5823    0.2566 H.spc      1 <1>        0.000
@<TRIPOS>BOND
     1    1    2 1  
     2    1    7 1  
     3    2    3 1  
     4    3    4 1  
     5    4    5 2  
     6    4    6 1  
     7    7    8 1  
     8    8    9 2  
     9    8   10 1  
    10    6   11 1  
    11   10   12 1  
# Name:          frag3-234-3/31924
# Creation time: Sat Jun  5 12:52:26 2010


@<TRIPOS>MOLECULE
frag3-234-3/31924
   12    11     1     1     1
SMALL
USER_CHARGES


@<TRIPOS>ATOM
      1 S1         -1.6603    0.3577    1.0614 S.3        1 <1>        0.000
      2 S2          0.1874   -0.2713    1.3371 S.3        1 <1>        0.000
      3 S3          1.1762    1.4661    1.4063 S.3        1 <1>        0.000
      4 C1          2.4805    1.1628    0.3452 C.2        1 <1>        0.000
      5 S4          2.2909    0.8860   -1.3190 S.2        1 <1>        0.000
      6 O1          3.7204    1.0618    0.8979 O.3        1 <1>        0.000
      7 S5         -1.6337    0.7014   -0.8922 S.3        1 <1>        0.000
      8 C3         -2.0241   -0.8714   -1.4983 C.2        1 <1>        0.000
      9 S6         -3.3093   -1.1715   -2.5369 S.2        1 <1>        0.000
     10 O2         -1.2764   -1.9313   -1.0315 O.3        1 <1>        0.000
     11 H           3.6660    1.2448    1.8387 H.spc      1 <1>        0.000
     12 H          -0.5839   -1.6029   -0.4533 H.spc      1 <1>        0.000
@<TRIPOS>BOND
     1    1    2 1  
     2    1    7 1  
     3    2    3 1  
     4    3    4 1  
     5    4    5 2  
     6    4    6 1  
     7    7    8 1  
     8    8    9 2  
     9    8   10 1  
    10    6   11 1  
    11   10   12 1  
# Name:          frag3-234-3/31924
# Creation time: Sat Jun  5 12:52:26 2010


@<TRIPOS>MOLECULE
frag3-234-3/31924
   12    11     1     1     1
SMALL
USER_CHARGES


@<TRIPOS>ATOM
      1 S1         -0.4620    1.0450   -1.4861 S.3        1 <1>        0.000
      2 S2          0.0113    2.2855   -0.0298 S.3        1 <1>        0.000
      3 S3          0.6637    1.0026    1.3482 S.3        1 <1>        0.000
      4 C1          2.2054    0.6366    0.6539 C.2        1 <1>        0.000
      5 S4          3.4481    1.7864    0.5568 S.2        1 <1>        0.000
      6 O1          2.4040   -0.5939    0.1013 O.3        1 <1>        0.000
      7 S5         -2.2761    0.4646   -0.8941 S.3        1 <1>        0.000
      8 C3         -2.0997   -1.2279   -0.7806 C.2        1 <1>        0.000
      9 S6         -1.8578   -2.2009   -2.1494 S.2        1 <1>        0.000
     10 O2         -2.0852   -1.8076    0.4497 O.3        1 <1>        0.000
     11 H           1.6206   -1.1329    0.2331 H.spc      1 <1>        0.000
     12 H          -2.2346   -1.1368    1.1200 H.spc      1 <1>        0.000
@<TRIPOS>BOND
     1    1    2 1  
     2    1    7 1  
     3    2    3 1  
     4    3    4 1  
     5    4    5 2  
     6    4    6 1  
     7    7    8 1  
     8    8    9 2  
     9    8   10 1  
    10    6   11 1  
    11   10   12 1  
# Name:          frag3-234-3/31924
# Creation time: Sat Jun  5 12:52:26 2010


@<TRIPOS>MOLECULE
frag3-234-3/31924
   12    11     1     1     1
SMALL
USER_CHARGES


@<TRIPOS>ATOM
      1 S1          0.1906    0.1554    1.9862 S.3        1 <1>        0.000
      2 S2         -1.6874    0.1471    1.3494 S.3        1 <1>        0.000
      3 S3         -1.7063   -1.4849    0.2346 S.3        1 <1>        0.000
      4 C1         -1.5552   -0.8315   -1.3616 C.2        1 <1>        0.000
      5 S4         -2.3820   -1.4462   -2.6933 S.2        1 <1>        0.000
      6 O1         -0.7595    0.2788   -1.5113 O.3        1 <1>        0.000
      7 S5          0.8975    1.7683    1.0877 S.3        1 <1>        0.000
      8 C3          1.9558    1.0972   -0.1041 C.2        1 <1>        0.000
      9 S6          3.3844    1.8371   -0.5981 S.2        1 <1>        0.000
     10 O2          1.6138   -0.1310   -0.6197 O.3        1 <1>        0.000
     11 H          -0.3610    0.5017   -0.6669 H.spc      1 <1>        0.000
     12 H           0.7785   -0.4145   -0.2409 H.spc      1 <1>        0.000
@<TRIPOS>BOND
     1    1    2 1  
     2    1    7 1  
     3    2    3 1  
     4    3    4 1  
     5    4    5 2  
     6    4    6 1  
     7    7    8 1  
     8    8    9 2  
     9    8   10 1  
    10    6   11 1  
    11   10   12 1  
# Name:          frag3-234-3/31924
# Creation time: Sat Jun  5 12:52:26 2010


@<TRIPOS>MOLECULE
frag3-234-3/31924
   12    11     1     1     1
SMALL
USER_CHARGES


@<TRIPOS>ATOM
      1 S1          0.7001   -0.8292    0.0208 S.3        1 <1>        0.000
      2 S2         -0.7914    0.2920    0.7637 S.3        1 <1>        0.000
      3 S3         -1.8190    0.6581   -0.8886 S.3        1 <1>        0.000
      4 C1         -2.5304   -0.9231   -1.1411 C.2        1 <1>        0.000
      5 S4         -2.5731   -1.6924   -2.6456 S.2        1 <1>        0.000
      6 O1         -3.0450   -1.5454   -0.0349 O.3        1 <1>        0.000
      7 S5          2.2010   -0.1603    1.1230 S.3        1 <1>        0.000
      8 C3          2.5016    1.3862    0.3610 C.2        1 <1>        0.000
      9 S6          3.0870    2.7343    1.1907 S.2        1 <1>        0.000
     10 O2          2.2207    1.4701   -0.9790 O.3        1 <1>        0.000
     11 H          -2.9405   -0.9744    0.7297 H.spc      1 <1>        0.000
     12 H           1.8999    0.6209   -1.2913 H.spc      1 <1>        0.000
@<TRIPOS>BOND
     1    1    2 1  
     2    1    7 1  
     3    2    3 1  
     4    3    4 1  
     5    4    5 2  
     6    4    6 1  
     7    7    8 1  
     8    8    9 2  
     9    8   10 1  
    10    6   11 1  
    11   10   12 1  
# Name:          frag3-234-3/31924
# Creation time: Sat Jun  5 12:52:26 2010


@<TRIPOS>MOLECULE
frag3-234-3/31924
   12    11     1     1     1
SMALL
USER_CHARGES


@<TRIPOS>ATOM
      1 S1         -0.1026    1.8891    1.1649 S.3        1 <1>        0.000
      2 S2         -0.9116    0.0875    1.2316 S.3        1 <1>        0.000
      3 S3         -2.3746    0.2865   -0.1208 S.3        1 <1>        0.000
      4 C1         -2.0866   -1.0589   -1.1398 C.2        1 <1>        0.000
      5 S4         -0.7535   -1.1833   -2.1805 S.2        1 <1>        0.000
      6 O1         -2.9473   -2.1093   -1.0326 O.3        1 <1>        0.000
      7 S5          0.9281    1.7610   -0.5253 S.3        1 <1>        0.000
      8 C3          2.3146    0.8611    0.0006 C.2        1 <1>        0.000
      9 S6          3.2388   -0.1481   -0.9647 S.2        1 <1>        0.000
     10 O2          2.6463    1.0048    1.3366 O.3        1 <1>        0.000
     11 H          -3.6443   -1.8882   -0.4106 H.spc      1 <1>        0.000
     12 H           2.0298    1.6102    1.7549 H.spc      1 <1>        0.000
@<TRIPOS>BOND
     1    1    2 1  
     2    1    7 1  
     3    2    3 1  
     4    3    4 1  
     5    4    5 2  
     6    4    6 1  
     7    7    8 1  
     8    8    9 2  
     9    8   10 1  
    10    6   11 1  
    11   10   12 1  
# Name:          frag3-234-3/31924
# Creation time: Sat Jun  5 12:52:26 2010


@<TRIPOS>MOLECULE
frag3-234-3/31924
   12    11     1     1     1
SMALL
USER_CHARGES


@<TRIPOS>ATOM
      1 S1          1.0403    0.1762   -1.3625 S.3        1 <1>        0.000
      2 S2         -0.5837    1.2993   -1.1010 S.3        1 <1>        0.000
      3 S3         -1.8989    0.2488   -2.1184 S.3        1 <1>        0.000
      4 C1         -2.3529   -0.9590   -0.9674 C.2        1 <1>        0.000
      5 S4         -3.8709   -1.0099   -0.2417 S.2        1 <1>        0.000
      6 O1         -1.3945   -1.8638   -0.5781 O.3        1 <1>        0.000
      7 S5          1.4022   -0.4750    0.4756 S.3        1 <1>        0.000
      8 C3          2.3110    0.8738    1.0690 C.2        1 <1>        0.000
      9 S6          1.6469    2.4070    1.3753 S.2        1 <1>        0.000
     10 O2          3.6522    0.6929    1.2193 O.3        1 <1>        0.000
     11 H          -0.5892   -1.7101   -1.0776 H.spc      1 <1>        0.000
     12 H           3.8764   -0.2173    1.0123 H.spc      1 <1>        0.000
@<TRIPOS>BOND
     1    1    2 1  
     2    1    7 1  
     3    2    3 1  
     4    3    4 1  
     5    4    5 2  
     6    4    6 1  
     7    7    8 1  
     8    8    9 2  
     9    8   10 1  
    10    6   11 1  
    11   10   12 1  
# Name:          frag3-234-3/31924
# Creation time: Sat Jun  5 12:52:26 2010


@<TRIPOS>MOLECULE
frag3-234-3/31924
   12    11     1     1     1
SMALL
USER_CHARGES


@<TRIPOS>ATOM
      1 S1          0.1057    0.7229    1.8675 S.3        1 <1>        0.000
      2 S2         -1.6688   -0.0715    1.5693 S.3        1 <1>        0.000
      3 S3         -2.1598    0.7131   -0.1812 S.3        1 <1>        0.000
      4 C1         -1.7306   -0.5282   -1.3007 C.2        1 <1>        0.000
      5 S4         -1.4283   -0.2989   -2.9317 S.2        1 <1>        0.000
      6 O1         -1.6413   -1.8046   -0.7720 O.3        1 <1>        0.000
      7 S5          1.2975   -0.4719    0.7956 S.3        1 <1>        0.000
      8 C3          2.1853    0.6626   -0.1305 C.2        1 <1>        0.000
      9 S6          1.4891    1.6529   -1.3193 S.2        1 <1>        0.000
     10 O2          3.5029    0.8140    0.1730 O.3        1 <1>        0.000
     11 H          -1.8404   -1.7756    0.1667 H.spc      1 <1>        0.000
     12 H           3.7464    0.1872    0.8582 H.spc      1 <1>        0.000
@<TRIPOS>BOND
     1    1    2 1  
     2    1    7 1  
     3    2    3 1  
     4    3    4 1  
     5    4    5 2  
     6    4    6 1  
     7    7    8 1  
     8    8    9 2  
     9    8   10 1  
    10    6   11 1  
    11   10   12 1  
# Name:          frag3-234-3/31924
# Creation time: Sat Jun  5 12:52:26 2010


@<TRIPOS>MOLECULE
frag3-234-3/31924
   12    11     1     1     1
SMALL
USER_CHARGES


@<TRIPOS>ATOM
      1 S1         -0.1609   -0.2904   -1.2443 S.3        1 <1>        0.000
      2 S2          0.0614    1.0490    0.2134 S.3        1 <1>        0.000
      3 S3          1.7112    1.9610   -0.4176 S.3        1 <1>        0.000
      4 C1          2.8494    1.3281    0.7367 C.2        1 <1>        0.000
      5 S4          3.4503    2.2761    2.0093 S.2        1 <1>        0.000
      6 O1          3.2119    0.0182    0.6273 O.3        1 <1>        0.000
      7 S5         -2.0450    0.0963   -1.7608 S.3        1 <1>        0.000
      8 C3         -2.8358   -1.2385   -0.9664 C.2        1 <1>        0.000
      9 S6         -3.0966   -2.7169   -1.7647 S.2        1 <1>        0.000
     10 O2         -3.1942   -1.0925    0.3372 O.3        1 <1>        0.000
     11 H           2.7857   -0.3674   -0.1416 H.spc      1 <1>        0.000
     12 H          -2.9786   -0.2039    0.6296 H.spc      1 <1>        0.000
@<TRIPOS>BOND
     1    1    2 1  
     2    1    7 1  
     3    2    3 1  
     4    3    4 1  
     5    4    5 2  
     6    4    6 1  
     7    7    8 1  
     8    8    9 2  
     9    8   10 1  
    10    6   11 1  
    11   10   12 1  
# Name:          frag3-234-3/31924
# Creation time: Sat Jun  5 12:52:26 2010


@<TRIPOS>MOLECULE
frag3-234-3/31924
   12    11     1     1     1
SMALL
USER_CHARGES


@<TRIPOS>ATOM
      1 S1         -1.0581    0.2384    0.2859 S.3        1 <1>        0.000
      2 S2          0.8418   -0.1871   -0.1154 S.3        1 <1>        0.000
      3 S3          1.5526    1.6687   -0.3108 S.3        1 <1>        0.000
      4 C1          2.8670    1.6169    0.8260 C.2        1 <1>        0.000
      5 S4          4.3291    2.4260    0.5603 S.2        1 <1>        0.000
      6 O1          2.6947    0.8519    1.9471 O.3        1 <1>        0.000
      7 S5         -1.8157    0.0415   -1.5519 S.3        1 <1>        0.000
      8 C3         -2.8069   -1.3747   -1.3256 C.2        1 <1>        0.000
      9 S6         -4.3175   -1.5514   -2.0669 S.2        1 <1>        0.000
     10 O2         -2.3354   -2.3398   -0.4787 O.3        1 <1>        0.000
     11 H           1.8148    0.4681    1.9391 H.spc      1 <1>        0.000
     12 H          -1.4714   -2.0810   -0.1498 H.spc      1 <1>        0.000
@<TRIPOS>BOND
     1    1    2 1  
     2    1    7 1  
     3    2    3 1  
     4    3    4 1  
     5    4    5 2  
     6    4    6 1  
     7    7    8 1  
     8    8    9 2  
     9    8   10 1  
    10    6   11 1  
    11   10   12 1  
# Name:          frag3-234-3/31924
# Creation time: Sat Jun  5 12:52:26 2010


@<TRIPOS>MOLECULE
frag3-234-3/31924
   12    11     1     1     1
SMALL
USER_CHARGES


@<TRIPOS>ATOM
      1 S1         -0.8991    0.3633    0.9931 S.3        1 <1>        0.000
      2 S2          0.6149   -0.8609    0.5329 S.3        1 <1>        0.000
      3 S3          1.5909    0.2142   -0.8218 S.3        1 <1>        0.000
      4 C1          2.5281    1.2114    0.2547 C.2        1 <1>        0.000
      5 S4          1.8969    2.5745    1.0506 S.2        1 <1>        0.000
      6 O1          3.8079    0.8200    0.5021 O.3        1 <1>        0.000
      7 S5         -2.4283   -0.7852    0.5104 S.3        1 <1>        0.000
      8 C3         -2.3996   -0.6942   -1.2388 C.2        1 <1>        0.000
      9 S6         -2.5740   -2.0148   -2.2540 S.2        1 <1>        0.000
     10 O2         -2.1861    0.5621   -1.7593 O.3        1 <1>        0.000
     11 H           4.0100    0.0411   -0.0214 H.spc      1 <1>        0.000
     12 H          -2.1098    1.1957   -1.0421 H.spc      1 <1>        0.000
@<TRIPOS>BOND
     1    1    2 1  
     2    1    7 1  
     3    2    3 1  
     4    3    4 1  
     5    4    5 2  
     6    4    6 1  
     7    7    8 1  
     8    8    9 2  
     9    8   10 1  
    10    6   11 1  
    11   10   12 1  
# Name:          frag3-234-3/31924
# Creation time: Sat Jun  5 12:52:26 2010


@<TRIPOS>MOLECULE
frag3-234-3/31924
   12    11     1     1     1
SMALL
USER_CHARGES


@<TRIPOS>ATOM
      1 S1         -1.0926    0.7144    0.5303 S.3        1 <1>        0.000
      2 S2          0.2417   -0.2578    1.6312 S.3        1 <1>        0.000
      3 S3          1.5964    1.1697    1.8778 S.3        1 <1>        0.000
      4 C1          2.3564    1.1821    0.3176 C.2        1 <1>        0.000
      5 S4          2.0073    2.2942   -0.9065 S.2        1 <1>        0.000
      6 O1          3.2475    0.1702    0.0712 O.3        1 <1>        0.000
      7 S5         -0.7194   -0.0282   -1.2830 S.3        1 <1>        0.000
      8 C3         -2.0949   -1.0476   -1.4594 C.2        1 <1>        0.000
      9 S6         -3.6760   -0.4151   -1.4793 S.2        1 <1>        0.000
     10 O2         -1.9148   -2.3913   -1.5299 O.3        1 <1>        0.000
     11 H           3.3386   -0.3730    0.8575 H.spc      1 <1>        0.000
     12 H          -0.9756   -2.5887   -1.5079 H.spc      1 <1>        0.000
@<TRIPOS>BOND
     1    1    2 1  
     2    1    7 1  
     3    2    3 1  
     4    3    4 1  
     5    4    5 2  
     6    4    6 1  
     7    7    8 1  
     8    8    9 2  
     9    8   10 1  
    10    6   11 1  
    11   10   12 1  
# Name:          frag3-234-3/31924
# Creation time: Sat Jun  5 12:52:26 2010


@<TRIPOS>MOLECULE
frag3-234-3/31924
   12    11     1     1     1
SMALL
USER_CHARGES


@<TRIPOS>ATOM
      1 S1          0.6036   -0.6799   -0.0929 S.3        1 <1>        0.000
      2 S2         -0.8123    0.4870    0.6930 S.3        1 <1>        0.000
      3 S3         -1.9655    0.7363   -0.9066 S.3        1 <1>        0.000
      4 C1         -2.5948   -0.8867   -1.0592 C.2        1 <1>        0.000
      5 S4         -2.0330   -2.0336   -2.1465 S.2        1 <1>        0.000
      6 O1         -3.5745   -1.2191   -0.1565 O.3        1 <1>        0.000
      7 S5          1.7282    0.6957   -0.9907 S.3        1 <1>        0.000
      8 C3          2.6430    1.2469    0.3706 C.2        1 <1>        0.000
      9 S6          2.1445    2.4613    1.4375 S.2        1 <1>        0.000
     10 O2          3.8124    0.5825    0.6213 O.3        1 <1>        0.000
     11 H          -3.7795   -0.4551    0.3874 H.spc      1 <1>        0.000
     12 H           3.9609   -0.0718   -0.0653 H.spc      1 <1>        0.000
@<TRIPOS>BOND
     1    1    2 1  
     2    1    7 1  
     3    2    3 1  
     4    3    4 1  
     5    4    5 2  
     6    4    6 1  
     7    7    8 1  
     8    8    9 2  
     9    8   10 1  
    10    6   11 1  
    11   10   12 1  
# Name:          frag3-234-3/31924
# Creation time: Sat Jun  5 12:52:26 2010


@<TRIPOS>MOLECULE
frag3-234-3/31924
   12    11     1     1     1
SMALL
USER_CHARGES


@<TRIPOS>ATOM
      1 S1         -1.3977    1.2246   -0.5392 S.3        1 <1>        0.000
      2 S2          0.4542    0.8220   -1.1466 S.3        1 <1>        0.000
      3 S3          1.4574    2.1924   -0.1182 S.3        1 <1>        0.000
      4 C1          2.6136    1.2183    0.7266 C.2        1 <1>        0.000
      5 S4          4.1972    1.7256    1.0212 S.2        1 <1>        0.000
      6 O1          2.2080   -0.0315    1.1180 O.3        1 <1>        0.000
      7 S5         -1.8221   -0.4516    0.4319 S.3        1 <1>        0.000
      8 C3         -2.4105   -1.4346   -0.8883 C.2        1 <1>        0.000
      9 S6         -2.7309   -3.0833   -0.7503 S.2        1 <1>        0.000
     10 O2         -2.6176   -0.7916   -2.0851 O.3        1 <1>        0.000
     11 H           1.2875   -0.1582    0.8766 H.spc      1 <1>        0.000
     12 H          -2.3879    0.1359   -1.9927 H.spc      1 <1>        0.000
@<TRIPOS>BOND
     1    1    2 1  
     2    1    7 1  
     3    2    3 1  
     4    3    4 1  
     5    4    5 2  
     6    4    6 1  
     7    7    8 1  
     8    8    9 2  
     9    8   10 1  
    10    6   11 1  
    11   10   12 1  
# Name:          frag3-234-3/31924
# Creation time: Sat Jun  5 12:52:26 2010


@<TRIPOS>MOLECULE
frag3-234-3/31924
   12    11     1     1     1
SMALL
USER_CHARGES


@<TRIPOS>ATOM
      1 S1         -1.3598    0.0003    1.3488 S.3        1 <1>        0.000
      2 S2          0.4322   -0.6281    0.7434 S.3        1 <1>        0.000
      3 S3          0.9712    0.8458   -0.4761 S.3        1 <1>        0.000
      4 C1          2.5008    1.2816    0.2032 C.2        1 <1>        0.000
      5 S4          2.9882    2.8741    0.4709 S.2        1 <1>        0.000
      6 O1          3.3264    0.2423    0.5537 O.3        1 <1>        0.000
      7 S5         -2.4973   -1.2797    0.3411 S.3        1 <1>        0.000
      8 C3         -2.2204   -0.7500   -1.3040 C.2        1 <1>        0.000
      9 S6         -2.1790   -1.7915   -2.6289 S.2        1 <1>        0.000
     10 O2         -2.0107    0.5956   -1.4820 O.3        1 <1>        0.000
     11 H           2.9012   -0.5903    0.3355 H.spc      1 <1>        0.000
     12 H          -2.0674    1.0421   -0.6340 H.spc      1 <1>        0.000
@<TRIPOS>BOND
     1    1    2 1  
     2    1    7 1  
     3    2    3 1  
     4    3    4 1  
     5    4    5 2  
     6    4    6 1  
     7    7    8 1  
     8    8    9 2  
     9    8   10 1  
    10    6   11 1  
    11   10   12 1  
# Name:          frag3-234-3/31924
# Creation time: Sat Jun  5 12:52:26 2010


@<TRIPOS>MOLECULE
frag3-234-3/31924
   12    11     1     1     1
SMALL
USER_CHARGES


@<TRIPOS>ATOM
      1 S1         -0.1721    2.2596    0.5349 S.3        1 <1>        0.000
      2 S2         -1.6057    1.0290    1.1412 S.3        1 <1>        0.000
      3 S3         -2.4002    0.4327   -0.5552 S.3        1 <1>        0.000
      4 C1         -1.4133   -0.9226   -0.9671 C.2        1 <1>        0.000
      5 S4         -0.6018   -1.1232   -2.4241 S.2        1 <1>        0.000
      6 O1         -1.2708   -1.8772    0.0173 O.3        1 <1>        0.000
      7 S5          1.4413    1.3963    1.2985 S.3        1 <1>        0.000
      8 C3          1.8692    0.3206    0.0171 C.2        1 <1>        0.000
      9 S6          2.3040    0.8958   -1.5242 S.2        1 <1>        0.000
     10 O2          1.8011   -1.0206    0.2316 O.3        1 <1>        0.000
     11 H          -1.7908   -1.6249    0.7838 H.spc      1 <1>        0.000
     12 H           1.5453   -1.1853    1.1421 H.spc      1 <1>        0.000
@<TRIPOS>BOND
     1    1    2 1  
     2    1    7 1  
     3    2    3 1  
     4    3    4 1  
     5    4    5 2  
     6    4    6 1  
     7    7    8 1  
     8    8    9 2  
     9    8   10 1  
    10    6   11 1  
    11   10   12 1  
# Name:          frag3-234-3/31924
# Creation time: Sat Jun  5 12:52:26 2010


@<TRIPOS>MOLECULE
frag3-234-3/31924
   12    11     1     1     1
SMALL
USER_CHARGES


@<TRIPOS>ATOM
      1 S1          0.5019    0.8351   -1.4127 S.3        1 <1>        0.000
      2 S2         -0.9279    1.2542   -0.0800 S.3        1 <1>        0.000
      3 S3         -2.5356    0.6323   -1.0586 S.3        1 <1>        0.000
      4 C1         -2.4411   -1.0754   -0.7572 C.2        1 <1>        0.000
      5 S4         -1.4039   -2.1222   -1.6017 S.2        1 <1>        0.000
      6 O1         -3.2035   -1.5639    0.2603 O.3        1 <1>        0.000
      7 S5          1.7018   -0.3070   -0.3410 S.3        1 <1>        0.000
      8 C3          2.5243    0.9068    0.5983 C.2        1 <1>        0.000
      9 S6          2.8183    0.7964    2.2509 S.2        1 <1>        0.000
     10 O2          2.9173    2.0342   -0.0882 O.3        1 <1>        0.000
     11 H          -3.7306   -0.8535    0.6332 H.spc      1 <1>        0.000
     12 H           2.6797    1.9429   -1.0138 H.spc      1 <1>        0.000
@<TRIPOS>BOND
     1    1    2 1  
     2    1    7 1  
     3    2    3 1  
     4    3    4 1  
     5    4    5 2  
     6    4    6 1  
     7    7    8 1  
     8    8    9 2  
     9    8   10 1  
    10    6   11 1  
    11   10   12 1  
# Name:          frag3-234-3/31924
# Creation time: Sat Jun  5 12:52:26 2010


@<TRIPOS>MOLECULE
frag3-234-3/31924
   12    11     1     1     1
SMALL
USER_CHARGES


@<TRIPOS>ATOM
      1 S1          0.3600   -0.1415    0.9280 S.3        1 <1>        0.000
      2 S2         -0.2053    0.2026   -0.9492 S.3        1 <1>        0.000
      3 S3         -2.1604    0.3610   -0.6905 S.3        1 <1>        0.000
      4 C1         -2.6943   -1.1498   -1.3508 C.2        1 <1>        0.000
      5 S4         -4.1990   -1.3673   -2.0712 S.2        1 <1>        0.000
      6 O1         -1.8013   -2.1976   -1.3041 O.3        1 <1>        0.000
      7 S5          1.0937    1.6564    1.3950 S.3        1 <1>        0.000
      8 C3          2.7274    1.4307    0.8380 C.2        1 <1>        0.000
      9 S6          3.1411    1.3191   -0.8097 S.2        1 <1>        0.000
     10 O2          3.6897    1.2767    1.7846 O.3        1 <1>        0.000
     11 H          -0.9972   -1.9119   -0.8643 H.spc      1 <1>        0.000
     12 H           3.2972    1.3673    2.6560 H.spc      1 <1>        0.000
@<TRIPOS>BOND
     1    1    2 1  
     2    1    7 1  
     3    2    3 1  
     4    3    4 1  
     5    4    5 2  
     6    4    6 1  
     7    7    8 1  
     8    8    9 2  
     9    8   10 1  
    10    6   11 1  
    11   10   12 1  
# Name:          frag3-234-3/31924
# Creation time: Sat Jun  5 12:52:26 2010


@<TRIPOS>MOLECULE
frag3-234-3/31924
   12    11     1     1     1
SMALL
USER_CHARGES


@<TRIPOS>ATOM
      1 S1         -1.3267   -0.4916    1.6222 S.3        1 <1>        0.000
      2 S2         -0.3899    1.1877    1.1465 S.3        1 <1>        0.000
      3 S3          1.5119    0.6060    1.4147 S.3        1 <1>        0.000
      4 C1          2.1958    0.9823   -0.1131 C.2        1 <1>        0.000
      5 S4          2.3706    2.5911   -0.6379 S.2        1 <1>        0.000
      6 O1          2.5465   -0.0318   -0.9446 O.3        1 <1>        0.000
      7 S5         -0.8454   -1.6126    0.0512 S.3        1 <1>        0.000
      8 C3         -1.7893   -0.8424   -1.1910 C.2        1 <1>        0.000
      9 S6         -1.3271   -0.6904   -2.7964 S.2        1 <1>        0.000
     10 O2         -2.9949   -0.3080   -0.7815 O.3        1 <1>        0.000
     11 H           2.3903   -0.8717   -0.5067 H.spc      1 <1>        0.000
     12 H          -3.1158   -0.4753    0.1560 H.spc      1 <1>        0.000
@<TRIPOS>BOND
     1    1    2 1  
     2    1    7 1  
     3    2    3 1  
     4    3    4 1  
     5    4    5 2  
     6    4    6 1  
     7    7    8 1  
     8    8    9 2  
     9    8   10 1  
    10    6   11 1  
    11   10   12 1  
# Name:          frag3-234-3/31924
# Creation time: Sat Jun  5 12:52:26 2010


@<TRIPOS>MOLECULE
frag3-234-3/31924
   12    11     1     1     1
SMALL
USER_CHARGES


@<TRIPOS>ATOM
      1 S1         -1.0323    0.5340    0.4147 S.3        1 <1>        0.000
      2 S2          0.6644   -0.3946   -0.0703 S.3        1 <1>        0.000
      3 S3          1.8708    0.3267    1.3232 S.3        1 <1>        0.000
      4 C1          2.7934    1.4636    0.3829 C.2        1 <1>        0.000
      5 S4          3.6329    2.7641    1.0500 S.2        1 <1>        0.000
      6 O1          2.8105    1.2588   -0.9765 O.3        1 <1>        0.000
      7 S5         -2.2536   -1.0325    0.5449 S.3        1 <1>        0.000
      8 C3         -2.7620   -1.1236   -1.1238 C.2        1 <1>        0.000
      9 S6         -1.9088   -2.0013   -2.3030 S.2        1 <1>        0.000
     10 O2         -3.8637   -0.4050   -1.4722 O.3        1 <1>        0.000
     11 H           2.2872    0.4824   -1.1886 H.spc      1 <1>        0.000
     12 H          -4.2223    0.0267   -0.6933 H.spc      1 <1>        0.000
@<TRIPOS>BOND
     1    1    2 1  
     2    1    7 1  
     3    2    3 1  
     4    3    4 1  
     5    4    5 2  
     6    4    6 1  
     7    7    8 1  
     8    8    9 2  
     9    8   10 1  
    10    6   11 1  
    11   10   12 1  
# Name:          frag3-234-3/31924
# Creation time: Sat Jun  5 12:52:26 2010


@<TRIPOS>MOLECULE
frag3-234-3/31924
   12    11     1     1     1
SMALL
USER_CHARGES


@<TRIPOS>ATOM
      1 S1         -0.0232    1.4903   -0.5217 S.3        1 <1>        0.000
      2 S2         -1.0259    0.4313    0.8407 S.3        1 <1>        0.000
      3 S3         -2.7572    0.1848   -0.0975 S.3        1 <1>        0.000
      4 C1         -2.4190   -1.2603   -1.0011 C.2        1 <1>        0.000
      5 S4         -1.6377   -1.2561   -2.5083 S.2        1 <1>        0.000
      6 O1         -2.7565   -2.4441   -0.4165 O.3        1 <1>        0.000
      7 S5          1.5826    0.3624   -0.7531 S.3        1 <1>        0.000
      8 C3          2.6467    1.0739    0.4391 C.2        1 <1>        0.000
      9 S6          4.2751    1.3532    0.1607 S.2        1 <1>        0.000
     10 O2          2.0667    1.4550    1.6275 O.3        1 <1>        0.000
     11 H          -3.1873   -2.2732    0.4242 H.spc      1 <1>        0.000
     12 H           1.1358    1.2207    1.6176 H.spc      1 <1>        0.000
@<TRIPOS>BOND
     1    1    2 1  
     2    1    7 1  
     3    2    3 1  
     4    3    4 1  
     5    4    5 2  
     6    4    6 1  
     7    7    8 1  
     8    8    9 2  
     9    8   10 1  
    10    6   11 1  
    11   10   12 1  
# Name:          frag3-234-3/31924
# Creation time: Sat Jun  5 12:52:26 2010


@<TRIPOS>MOLECULE
frag3-234-3/31924
   12    11     1     1     1
SMALL
USER_CHARGES


@<TRIPOS>ATOM
      1 S1          0.4229    0.5671    2.0525 S.3        1 <1>        0.000
      2 S2         -1.2283   -0.4131    1.5933 S.3        1 <1>        0.000
      3 S3         -1.8021    0.5352   -0.0598 S.3        1 <1>        0.000
      4 C1         -1.8663   -0.7475   -1.2233 C.2        1 <1>        0.000
      5 S4         -1.2596   -0.6460   -2.7799 S.2        1 <1>        0.000
      6 O1         -2.4493   -1.9139   -0.7772 O.3        1 <1>        0.000
      7 S5          1.7079   -0.2813    0.7812 S.3        1 <1>        0.000
      8 C3          2.0010    1.0128   -0.3280 C.2        1 <1>        0.000
      9 S6          3.3674    2.0055   -0.2103 S.2        1 <1>        0.000
     10 O2          1.0579    1.2715   -1.2786 O.3        1 <1>        0.000
     11 H          -2.7401   -1.7982    0.1303 H.spc      1 <1>        0.000
     12 H           0.3532    0.6229   -1.2134 H.spc      1 <1>        0.000
@<TRIPOS>BOND
     1    1    2 1  
     2    1    7 1  
     3    2    3 1  
     4    3    4 1  
     5    4    5 2  
     6    4    6 1  
     7    7    8 1  
     8    8    9 2  
     9    8   10 1  
    10    6   11 1  
    11   10   12 1  
# Name:          frag3-234-3/31924
# Creation time: Sat Jun  5 12:52:26 2010


@<TRIPOS>MOLECULE
frag3-234-3/31924
   12    11     1     1     1
SMALL
USER_CHARGES


@<TRIPOS>ATOM
      1 S1         -0.0695    1.8356    0.4420 S.3        1 <1>        0.000
      2 S2         -1.4321    0.4848    0.9173 S.3        1 <1>        0.000
      3 S3         -2.4410    0.4109   -0.8040 S.3        1 <1>        0.000
      4 C1         -2.2921   -1.2618   -1.2311 C.2        1 <1>        0.000
      5 S4         -2.5024   -1.8495   -2.7965 S.2        1 <1>        0.000
      6 O1         -1.9853   -2.1267   -0.2076 O.3        1 <1>        0.000
      7 S5          1.2571    0.6954   -0.5167 S.3        1 <1>        0.000
      8 C3          2.6940    1.0225    0.3953 C.2        1 <1>        0.000
      9 S6          3.9616   -0.0747    0.5706 S.2        1 <1>        0.000
     10 O2          2.7613    2.2540    1.0007 O.3        1 <1>        0.000
     11 H          -1.9003   -1.6338    0.6118 H.spc      1 <1>        0.000
     12 H           1.9646    2.7512    0.8016 H.spc      1 <1>        0.000
@<TRIPOS>BOND
     1    1    2 1  
     2    1    7 1  
     3    2    3 1  
     4    3    4 1  
     5    4    5 2  
     6    4    6 1  
     7    7    8 1  
     8    8    9 2  
     9    8   10 1  
    10    6   11 1  
    11   10   12 1  
# Name:          frag3-234-3/31924
# Creation time: Sat Jun  5 12:52:26 2010


@<TRIPOS>MOLECULE
frag3-234-3/31924
   12    11     1     1     1
SMALL
USER_CHARGES


@<TRIPOS>ATOM
      1 S1          0.8653   -1.2486    1.0223 S.3        1 <1>        0.000
      2 S2         -1.0184   -0.7790    1.4629 S.3        1 <1>        0.000
      3 S3         -1.9839   -1.5563   -0.0678 S.3        1 <1>        0.000
      4 C1         -1.9305   -0.2479   -1.2101 C.2        1 <1>        0.000
      5 S4         -1.7440   -0.4469   -2.8703 S.2        1 <1>        0.000
      6 O1         -2.0305    1.0180   -0.6800 O.3        1 <1>        0.000
      7 S5          1.8249    0.4045    1.5332 S.3        1 <1>        0.000
      8 C3          1.9999    1.1769   -0.0188 C.2        1 <1>        0.000
      9 S6          0.8832    2.2721   -0.6465 S.2        1 <1>        0.000
     10 O2          3.0856    0.7976   -0.7549 O.3        1 <1>        0.000
     11 H          -2.1317    0.9577    0.2727 H.spc      1 <1>        0.000
     12 H           3.6120    0.1743   -0.2489 H.spc      1 <1>        0.000
@<TRIPOS>BOND
     1    1    2 1  
     2    1    7 1  
     3    2    3 1  
     4    3    4 1  
     5    4    5 2  
     6    4    6 1  
     7    7    8 1  
     8    8    9 2  
     9    8   10 1  
    10    6   11 1  
    11   10   12 1  
# Name:          frag3-234-3/31924
# Creation time: Sat Jun  5 12:52:26 2010


@<TRIPOS>MOLECULE
frag3-234-3/31924
   12    11     1     1     1
SMALL
USER_CHARGES


@<TRIPOS>ATOM
      1 S1          0.2558   -0.6160    1.2871 S.3        1 <1>        0.000
      2 S2         -1.5864    0.0802    1.1564 S.3        1 <1>        0.000
      3 S3         -1.5759    0.7834   -0.7111 S.3        1 <1>        0.000
      4 C1         -1.9269   -0.6838   -1.5526 C.2        1 <1>        0.000
      5 S4         -3.4629   -1.4039   -1.4955 S.2        1 <1>        0.000
      6 O1         -0.9231   -1.3174   -2.2237 O.3        1 <1>        0.000
      7 S5          1.2666    1.0639    1.6518 S.3        1 <1>        0.000
      8 C3          2.3540    1.1410    0.3179 C.2        1 <1>        0.000
      9 S6          1.9958    1.8388   -1.1646 S.2        1 <1>        0.000
     10 O2          3.5545    0.5041    0.5041 O.3        1 <1>        0.000
     11 H          -0.1213   -0.7924   -2.1679 H.spc      1 <1>        0.000
     12 H           3.5992    0.1638    1.4006 H.spc      1 <1>        0.000
@<TRIPOS>BOND
     1    1    2 1  
     2    1    7 1  
     3    2    3 1  
     4    3    4 1  
     5    4    5 2  
     6    4    6 1  
     7    7    8 1  
     8    8    9 2  
     9    8   10 1  
    10    6   11 1  
    11   10   12 1  
# Name:          frag3-234-3/31924
# Creation time: Sat Jun  5 12:52:26 2010


@<TRIPOS>MOLECULE
frag3-234-3/31924
   12    11     1     1     1
SMALL
USER_CHARGES


@<TRIPOS>ATOM
      1 S1         -1.2077    0.5647    0.6620 S.3        1 <1>        0.000
      2 S2          0.0880    1.9318    0.0634 S.3        1 <1>        0.000
      3 S3          1.5159    0.7581   -0.6970 S.3        1 <1>        0.000
      4 C1          2.7106    0.9333    0.5481 C.2        1 <1>        0.000
      5 S4          3.7665    2.2663    0.5826 S.2        1 <1>        0.000
      6 O1          2.7577    0.0047    1.5397 O.3        1 <1>        0.000
      7 S5         -2.3126    0.3939   -0.9853 S.3        1 <1>        0.000
      8 C3         -2.4017   -1.3169   -1.2041 C.2        1 <1>        0.000
      9 S6         -3.0751   -2.0580   -2.5557 S.2        1 <1>        0.000
     10 O2         -1.8900   -2.0874   -0.1837 O.3        1 <1>        0.000
     11 H           2.1020   -0.6758    1.3707 H.spc      1 <1>        0.000
     12 H          -1.5466   -1.5153    0.5065 H.spc      1 <1>        0.000
@<TRIPOS>BOND
     1    1    2 1  
     2    1    7 1  
     3    2    3 1  
     4    3    4 1  
     5    4    5 2  
     6    4    6 1  
     7    7    8 1  
     8    8    9 2  
     9    8   10 1  
    10    6   11 1  
    11   10   12 1  
# Name:          frag3-234-3/31924
# Creation time: Sat Jun  5 12:52:26 2010


@<TRIPOS>MOLECULE
frag3-234-3/31924
   12    11     1     1     1
SMALL
USER_CHARGES


@<TRIPOS>ATOM
      1 S1         -1.3145    0.4883    1.2213 S.3        1 <1>        0.000
      2 S2         -0.1306    2.0813    1.1809 S.3        1 <1>        0.000
      3 S3          1.6216    1.2407    1.5405 S.3        1 <1>        0.000
      4 C1          2.0897    0.7310   -0.0555 C.2        1 <1>        0.000
      5 S4          3.6646    0.8608   -0.6378 S.2        1 <1>        0.000
      6 O1          1.0984    0.2511   -0.8749 O.3        1 <1>        0.000
      7 S5         -2.0732    0.4963   -0.6075 S.3        1 <1>        0.000
      8 C3         -1.7837   -1.1213   -1.1325 C.2        1 <1>        0.000
      9 S6         -1.1159   -1.5248   -2.6271 S.2        1 <1>        0.000
     10 O2         -2.1048   -2.1130   -0.2374 O.3        1 <1>        0.000
     11 H           0.2664    0.2400   -0.3961 H.spc      1 <1>        0.000
     12 H          -2.4714   -1.7187    0.5574 H.spc      1 <1>        0.000
@<TRIPOS>BOND
     1    1    2 1  
     2    1    7 1  
     3    2    3 1  
     4    3    4 1  
     5    4    5 2  
     6    4    6 1  
     7    7    8 1  
     8    8    9 2  
     9    8   10 1  
    10    6   11 1  
    11   10   12 1  
# Name:          frag3-234-3/31924
# Creation time: Sat Jun  5 12:52:26 2010


@<TRIPOS>MOLECULE
frag3-234-3/31924
   12    11     1     1     1
SMALL
USER_CHARGES


@<TRIPOS>ATOM
      1 S1          0.6371   -0.8215    1.0154 S.3        1 <1>        0.000
      2 S2         -1.2584   -0.4742    1.4496 S.3        1 <1>        0.000
      3 S3         -1.8241    0.5945   -0.1429 S.3        1 <1>        0.000
      4 C1         -2.1968   -0.7058   -1.2255 C.2        1 <1>        0.000
      5 S4         -1.0286   -1.5874   -2.0846 S.2        1 <1>        0.000
      6 O1         -3.5079   -1.0661   -1.3211 O.3        1 <1>        0.000
      7 S5          1.4182    0.9637    1.4011 S.3        1 <1>        0.000
      8 C3          2.2822    1.3493   -0.0314 C.2        1 <1>        0.000
      9 S6          3.2968    2.6709   -0.2064 S.2        1 <1>        0.000
     10 O2          2.1331    0.4670   -1.0842 O.3        1 <1>        0.000
     11 H          -4.0407   -0.4767   -0.7822 H.spc      1 <1>        0.000
     12 H           1.5247   -0.2312   -0.8314 H.spc      1 <1>        0.000
@<TRIPOS>BOND
     1    1    2 1  
     2    1    7 1  
     3    2    3 1  
     4    3    4 1  
     5    4    5 2  
     6    4    6 1  
     7    7    8 1  
     8    8    9 2  
     9    8   10 1  
    10    6   11 1  
    11   10   12 1  
# Name:          frag3-234-3/31924
# Creation time: Sat Jun  5 12:52:26 2010


@<TRIPOS>MOLECULE
frag3-234-3/31924
   12    11     1     1     1
SMALL
USER_CHARGES


@<TRIPOS>ATOM
      1 S1          0.2230   -0.4812    1.2593 S.3        1 <1>        0.000
      2 S2         -1.6153    0.2760    1.3644 S.3        1 <1>        0.000
      3 S3         -1.8735    0.7957   -0.5393 S.3        1 <1>        0.000
      4 C1         -1.9819   -0.7899   -1.2679 C.2        1 <1>        0.000
      5 S4         -1.4911   -1.1382   -2.8398 S.2        1 <1>        0.000
      6 O1         -2.4889   -1.7916   -0.4708 O.3        1 <1>        0.000
      7 S5          1.2939    1.1917    1.4197 S.3        1 <1>        0.000
      8 C3          2.3409    1.0939    0.0377 C.2        1 <1>        0.000
      9 S6          2.6043    2.3606   -1.0293 S.2        1 <1>        0.000
     10 O2          2.9401   -0.1266   -0.1639 O.3        1 <1>        0.000
     11 H          -2.7195   -1.4298    0.3880 H.spc      1 <1>        0.000
     12 H           2.6805   -0.7289    0.5371 H.spc      1 <1>        0.000
@<TRIPOS>BOND
     1    1    2 1  
     2    1    7 1  
     3    2    3 1  
     4    3    4 1  
     5    4    5 2  
     6    4    6 1  
     7    7    8 1  
     8    8    9 2  
     9    8   10 1  
    10    6   11 1  
    11   10   12 1  
# Name:          frag3-234-3/31924
# Creation time: Sat Jun  5 12:52:26 2010


@<TRIPOS>MOLECULE
frag3-234-3/31924
   12    11     1     1     1
SMALL
USER_CHARGES


@<TRIPOS>ATOM
      1 S1         -0.8091   -0.4640    1.0191 S.3        1 <1>        0.000
      2 S2         -0.0150    1.3309    1.2136 S.3        1 <1>        0.000
      3 S3          1.0451    1.4619   -0.4574 S.3        1 <1>        0.000
      4 C1          2.6471    1.2154    0.1468 C.2        1 <1>        0.000
      5 S4          3.9561    0.7408   -0.7915 S.2        1 <1>        0.000
      6 O1          2.8223    1.4334    1.4991 O.3        1 <1>        0.000
      7 S5         -2.5097   -0.0021    0.0673 S.3        1 <1>        0.000
      8 C3         -2.4777   -1.1254   -1.2356 C.2        1 <1>        0.000
      9 S6         -1.3218   -1.0639   -2.4816 S.2        1 <1>        0.000
     10 O2         -3.3857   -2.1366   -1.2098 O.3        1 <1>        0.000
     11 H           1.9863    1.6969    1.8906 H.spc      1 <1>        0.000
     12 H          -3.9625   -2.0279   -0.4501 H.spc      1 <1>        0.000
@<TRIPOS>BOND
     1    1    2 1  
     2    1    7 1  
     3    2    3 1  
     4    3    4 1  
     5    4    5 2  
     6    4    6 1  
     7    7    8 1  
     8    8    9 2  
     9    8   10 1  
    10    6   11 1  
    11   10   12 1  
# Name:          frag3-234-3/31924
# Creation time: Sat Jun  5 12:52:26 2010


@<TRIPOS>MOLECULE
frag3-234-3/31924
   12    11     1     1     1
SMALL
USER_CHARGES


@<TRIPOS>ATOM
      1 S1         -1.0024   -0.3950    1.0914 S.3        1 <1>        0.000
      2 S2          0.9477   -0.6966    1.0358 S.3        1 <1>        0.000
      3 S3          1.4627    0.4295   -0.5354 S.3        1 <1>        0.000
      4 C1          2.6295    1.4625    0.2127 C.2        1 <1>        0.000
      5 S4          2.2216    2.9224    0.9750 S.2        1 <1>        0.000
      6 O1          3.9212    1.0262    0.2234 O.3        1 <1>        0.000
      7 S5         -1.5940   -1.7381   -0.2599 S.3        1 <1>        0.000
      8 C3         -2.5961   -0.7934   -1.3043 C.2        1 <1>        0.000
      9 S6         -2.7986   -1.1010   -2.9472 S.2        1 <1>        0.000
     10 O2         -3.2402    0.2739   -0.7215 O.3        1 <1>        0.000
     11 H           3.9799    0.1919   -0.2478 H.spc      1 <1>        0.000
     12 H          -3.0200    0.3080    0.2123 H.spc      1 <1>        0.000
@<TRIPOS>BOND
     1    1    2 1  
     2    1    7 1  
     3    2    3 1  
     4    3    4 1  
     5    4    5 2  
     6    4    6 1  
     7    7    8 1  
     8    8    9 2  
     9    8   10 1  
    10    6   11 1  
    11   10   12 1  
# Name:          frag3-234-3/31924
# Creation time: Sat Jun  5 12:52:26 2010


@<TRIPOS>MOLECULE
frag3-234-3/31924
   12    11     1     1     1
SMALL
USER_CHARGES


@<TRIPOS>ATOM
      1 S1         -1.1114    1.4700    0.1154 S.3        1 <1>        0.000
      2 S2          0.3886    1.9314   -1.0926 S.3        1 <1>        0.000
      3 S3          1.4839    0.2820   -1.0202 S.3        1 <1>        0.000
      4 C1          2.3604    0.5580    0.4553 C.2        1 <1>        0.000
      5 S4          2.0984   -0.2501    1.8969 S.2        1 <1>        0.000
      6 O1          3.2811    1.5805    0.3953 O.3        1 <1>        0.000
      7 S5         -2.3499    0.5723   -1.1585 S.3        1 <1>        0.000
      8 C3         -2.1728   -1.0936   -0.7254 C.2        1 <1>        0.000
      9 S6         -0.9987   -2.1207   -1.3444 S.2        1 <1>        0.000
     10 O2         -3.0279   -1.5393    0.2482 O.3        1 <1>        0.000
     11 H           3.3079    1.9335   -0.4970 H.spc      1 <1>        0.000
     12 H          -3.6323   -0.8335    0.4893 H.spc      1 <1>        0.000
@<TRIPOS>BOND
     1    1    2 1  
     2    1    7 1  
     3    2    3 1  
     4    3    4 1  
     5    4    5 2  
     6    4    6 1  
     7    7    8 1  
     8    8    9 2  
     9    8   10 1  
    10    6   11 1  
    11   10   12 1  
# Name:          frag3-234-3/31924
# Creation time: Sat Jun  5 12:52:26 2010


@<TRIPOS>MOLECULE
frag3-234-3/31924
   12    11     1     1     1
SMALL
USER_CHARGES


@<TRIPOS>ATOM
      1 S1         -0.8963    0.7988   -0.0441 S.3        1 <1>        0.000
      2 S2          0.7171    0.3529   -1.1447 S.3        1 <1>        0.000
      3 S3          1.8626    1.9056   -0.6838 S.3        1 <1>        0.000
      4 C1          2.6170    1.2950    0.7732 C.2        1 <1>        0.000
      5 S4          4.0467    1.9403    1.4006 S.2        1 <1>        0.000
      6 O1          2.0124    0.2296    1.3880 O.3        1 <1>        0.000
      7 S5         -2.3223    0.3500   -1.3486 S.3        1 <1>        0.000
      8 C3         -2.6064   -1.3231   -0.9205 C.2        1 <1>        0.000
      9 S6         -2.9843   -2.5172   -2.0564 S.2        1 <1>        0.000
     10 O2         -2.4948   -1.6415    0.4062 O.3        1 <1>        0.000
     11 H           1.2176   -0.0083    0.9050 H.spc      1 <1>        0.000
     12 H          -2.2775   -0.8515    0.9065 H.spc      1 <1>        0.000
@<TRIPOS>BOND
     1    1    2 1  
     2    1    7 1  
     3    2    3 1  
     4    3    4 1  
     5    4    5 2  
     6    4    6 1  
     7    7    8 1  
     8    8    9 2  
     9    8   10 1  
    10    6   11 1  
    11   10   12 1  
# Name:          frag3-234-3/31924
# Creation time: Sat Jun  5 12:52:26 2010


@<TRIPOS>MOLECULE
frag3-234-3/31924
   12    11     1     1     1
SMALL
USER_CHARGES


@<TRIPOS>ATOM
      1 S1         -0.1181   -0.1129   -1.8223 S.3        1 <1>        0.000
      2 S2          0.4692   -0.1323    0.0815 S.3        1 <1>        0.000
      3 S3          1.0836    1.7558    0.2653 S.3        1 <1>        0.000
      4 C1          2.6179    1.5167    1.0342 C.2        1 <1>        0.000
      5 S4          4.0144    2.3654    0.6068 S.2        1 <1>        0.000
      6 O1          2.6650    0.5627    2.0176 O.3        1 <1>        0.000
      7 S5         -2.0342    0.3625   -1.5371 S.3        1 <1>        0.000
      8 C3         -2.6713   -1.2042   -1.0843 C.2        1 <1>        0.000
      9 S6         -4.3151   -1.5026   -0.8584 S.2        1 <1>        0.000
     10 O2         -1.7599   -2.2208   -0.9333 O.3        1 <1>        0.000
     11 H           1.7918    0.1810    2.1336 H.spc      1 <1>        0.000
     12 H          -0.8760   -1.8834   -1.0961 H.spc      1 <1>        0.000
@<TRIPOS>BOND
     1    1    2 1  
     2    1    7 1  
     3    2    3 1  
     4    3    4 1  
     5    4    5 2  
     6    4    6 1  
     7    7    8 1  
     8    8    9 2  
     9    8   10 1  
    10    6   11 1  
    11   10   12 1  
# Name:          frag3-234-3/31924
# Creation time: Sat Jun  5 12:52:26 2010


@<TRIPOS>MOLECULE
frag3-234-3/31924
   12    11     1     1     1
SMALL
USER_CHARGES


@<TRIPOS>ATOM
      1 S1         -0.2304    0.5743    1.0748 S.3        1 <1>        0.000
      2 S2          0.0578   -1.2658    0.3375 S.3        1 <1>        0.000
      3 S3         -1.8240   -1.8690    0.2092 S.3        1 <1>        0.000
      4 C1         -2.3578   -0.8957   -1.1315 C.2        1 <1>        0.000
      5 S4         -1.9178   -1.2608   -2.7311 S.2        1 <1>        0.000
      6 O1         -3.0965    0.2185   -0.8751 O.3        1 <1>        0.000
      7 S5          0.7171    1.6613   -0.2680 S.3        1 <1>        0.000
      8 C3          2.3673    1.4242    0.2399 C.2        1 <1>        0.000
      9 S6          3.5912    2.5467   -0.0054 S.2        1 <1>        0.000
     10 O2          2.6449    0.2567    0.9198 O.3        1 <1>        0.000
     11 H          -3.2602    0.2824    0.0687 H.spc      1 <1>        0.000
     12 H           1.8483   -0.2760    0.9771 H.spc      1 <1>        0.000
@<TRIPOS>BOND
     1    1    2 1  
     2    1    7 1  
     3    2    3 1  
     4    3    4 1  
     5    4    5 2  
     6    4    6 1  
     7    7    8 1  
     8    8    9 2  
     9    8   10 1  
    10    6   11 1  
    11   10   12 1  
# Name:          frag3-234-3/31924
# Creation time: Sat Jun  5 12:52:26 2010


@<TRIPOS>MOLECULE
frag3-234-3/31924
   12    11     1     1     1
SMALL
USER_CHARGES


@<TRIPOS>ATOM
      1 S1         -0.9800    0.4246    0.4468 S.3        1 <1>        0.000
      2 S2          0.7082   -0.6488    0.4360 S.3        1 <1>        0.000
      3 S3          1.8066    0.4380    1.6704 S.3        1 <1>        0.000
      4 C1          2.5484    1.5547    0.5555 C.2        1 <1>        0.000
      5 S4          4.0677    2.2398    0.8208 S.2        1 <1>        0.000
      6 O1          1.8576    1.8391   -0.5953 O.3        1 <1>        0.000
      7 S5         -1.5184    0.2564   -1.4501 S.3        1 <1>        0.000
      8 C3         -2.5054   -1.1821   -1.3637 C.2        1 <1>        0.000
      9 S6         -3.9195   -1.3734   -2.2663 S.2        1 <1>        0.000
     10 O2         -2.1136   -2.1579   -0.4841 O.3        1 <1>        0.000
     11 H           1.0190    1.3718   -0.5876 H.spc      1 <1>        0.000
     12 H          -1.2959   -1.8925   -0.0569 H.spc      1 <1>        0.000
@<TRIPOS>BOND
     1    1    2 1  
     2    1    7 1  
     3    2    3 1  
     4    3    4 1  
     5    4    5 2  
     6    4    6 1  
     7    7    8 1  
     8    8    9 2  
     9    8   10 1  
    10    6   11 1  
    11   10   12 1  
# Name:          frag3-234-3/31924
# Creation time: Sat Jun  5 12:52:27 2010


@<TRIPOS>MOLECULE
frag3-234-3/31924
   12    11     1     1     1
SMALL
USER_CHARGES


@<TRIPOS>ATOM
      1 S1         -1.3373    0.2120    1.0265 S.3        1 <1>        0.000
      2 S2          0.4709   -0.5769    0.8374 S.3        1 <1>        0.000
      3 S3          1.5903    0.8201    1.7086 S.3        1 <1>        0.000
      4 C1          2.6426    1.2500    0.4188 C.2        1 <1>        0.000
      5 S4          2.0991    1.9767   -1.0195 S.2        1 <1>        0.000
      6 O1          3.9544    0.9169    0.5467 O.3        1 <1>        0.000
      7 S5         -1.7493    0.6613   -0.8492 S.3        1 <1>        0.000
      8 C3         -2.3675   -0.8586   -1.4237 C.2        1 <1>        0.000
      9 S6         -3.0398   -1.0956   -2.9413 S.2        1 <1>        0.000
     10 O2         -2.3118   -1.9156   -0.5344 O.3        1 <1>        0.000
     11 H           4.1000    0.5197    1.4085 H.spc      1 <1>        0.000
     12 H          -1.9029   -1.6231    0.2834 H.spc      1 <1>        0.000
@<TRIPOS>BOND
     1    1    2 1  
     2    1    7 1  
     3    2    3 1  
     4    3    4 1  
     5    4    5 2  
     6    4    6 1  
     7    7    8 1  
     8    8    9 2  
     9    8   10 1  
    10    6   11 1  
    11   10   12 1  
# Name:          frag3-234-3/31924
# Creation time: Sat Jun  5 12:52:27 2010


@<TRIPOS>MOLECULE
frag3-234-3/31924
   12    11     1     1     1
SMALL
USER_CHARGES


@<TRIPOS>ATOM
      1 S1         -0.1369    2.3668    0.3509 S.3        1 <1>        0.000
      2 S2         -1.6612    1.4591   -0.4940 S.3        1 <1>        0.000
      3 S3         -1.8802   -0.1795    0.6161 S.3        1 <1>        0.000
      4 C1         -1.8199   -1.4059   -0.5750 C.2        1 <1>        0.000
      5 S4         -0.4998   -1.6289   -1.6237 S.2        1 <1>        0.000
      6 O1         -2.9240   -2.1840   -0.7276 O.3        1 <1>        0.000
      7 S5          1.3472    1.8593   -0.8464 S.3        1 <1>        0.000
      8 C3          2.2040    0.6812    0.0691 C.2        1 <1>        0.000
      9 S6          3.8670    0.7094    0.2994 S.2        1 <1>        0.000
     10 O2          1.4553   -0.2872    0.7012 O.3        1 <1>        0.000
     11 H          -3.5781   -1.9423   -0.0679 H.spc      1 <1>        0.000
     12 H           0.5296   -0.1737    0.4736 H.spc      1 <1>        0.000
@<TRIPOS>BOND
     1    1    2 1  
     2    1    7 1  
     3    2    3 1  
     4    3    4 1  
     5    4    5 2  
     6    4    6 1  
     7    7    8 1  
     8    8    9 2  
     9    8   10 1  
    10    6   11 1  
    11   10   12 1  
# Name:          frag3-234-3/31924
# Creation time: Sat Jun  5 12:52:27 2010


@<TRIPOS>MOLECULE
frag3-234-3/31924
   12    11     1     1     1
SMALL
USER_CHARGES


@<TRIPOS>ATOM
      1 S1          0.7524    0.0856   -1.1032 S.3        1 <1>        0.000
      2 S2         -0.8337    0.9272   -0.2120 S.3        1 <1>        0.000
      3 S3         -2.2551    0.3993   -1.4931 S.3        1 <1>        0.000
      4 C1         -2.6341   -1.1902   -0.8639 C.2        1 <1>        0.000
      5 S4         -2.8316   -2.5506   -1.8507 S.2        1 <1>        0.000
      6 O1         -2.7459   -1.2999    0.4951 O.3        1 <1>        0.000
      7 S5          2.0707    1.5525   -0.8805 S.3        1 <1>        0.000
      8 C3          2.6444    1.1986    0.7451 C.2        1 <1>        0.000
      9 S6          3.0578    2.3952    1.8553 S.2        1 <1>        0.000
     10 O2          2.7268   -0.1273    1.0779 O.3        1 <1>        0.000
     11 H          -2.6062   -0.4394    0.8970 H.spc      1 <1>        0.000
     12 H           2.4544   -0.6617    0.3284 H.spc      1 <1>        0.000
@<TRIPOS>BOND
     1    1    2 1  
     2    1    7 1  
     3    2    3 1  
     4    3    4 1  
     5    4    5 2  
     6    4    6 1  
     7    7    8 1  
     8    8    9 2  
     9    8   10 1  
    10    6   11 1  
    11   10   12 1  
# Name:          frag3-234-3/31924
# Creation time: Sat Jun  5 12:52:27 2010


@<TRIPOS>MOLECULE
frag3-234-3/31924
   12    11     1     1     1
SMALL
USER_CHARGES


@<TRIPOS>ATOM
      1 S1         -0.9461    1.6803   -1.0283 S.3        1 <1>        0.000
      2 S2          0.7777    1.0886   -1.8389 S.3        1 <1>        0.000
      3 S3          2.0985    1.7802   -0.5445 S.3        1 <1>        0.000
      4 C1          2.0516    0.5141    0.6417 C.2        1 <1>        0.000
      5 S4          0.8300    0.3682    1.8126 S.2        1 <1>        0.000
      6 O1          3.0242   -0.4367    0.5664 O.3        1 <1>        0.000
      7 S5         -2.1851    0.2835   -1.6462 S.3        1 <1>        0.000
      8 C3         -1.9958   -0.9128   -0.4038 C.2        1 <1>        0.000
      9 S6         -1.2787   -2.4223   -0.6376 S.2        1 <1>        0.000
     10 O2         -2.4248   -0.5527    0.8485 O.3        1 <1>        0.000
     11 H           3.6348   -0.2131   -0.1399 H.spc      1 <1>        0.000
     12 H          -2.8062    0.3276    0.8140 H.spc      1 <1>        0.000
@<TRIPOS>BOND
     1    1    2 1  
     2    1    7 1  
     3    2    3 1  
     4    3    4 1  
     5    4    5 2  
     6    4    6 1  
     7    7    8 1  
     8    8    9 2  
     9    8   10 1  
    10    6   11 1  
    11   10   12 1  
# Name:          frag3-234-3/31924
# Creation time: Sat Jun  5 12:52:27 2010


@<TRIPOS>MOLECULE
frag3-234-3/31924
   12    11     1     1     1
SMALL
USER_CHARGES


@<TRIPOS>ATOM
      1 S1         -0.3977    0.5508   -1.1401 S.3        1 <1>        0.000
      2 S2          0.0189    0.4016    0.7969 S.3        1 <1>        0.000
      3 S3          1.9214   -0.1997    0.6617 S.3        1 <1>        0.000
      4 C1          2.6858    1.3614    0.5898 C.2        1 <1>        0.000
      5 S4          2.6967    2.4073    1.9158 S.2        1 <1>        0.000
      6 O1          3.2324    1.7563   -0.5956 O.3        1 <1>        0.000
      7 S5         -0.9087   -1.3491   -1.4900 S.3        1 <1>        0.000
      8 C3         -2.5945   -1.2629   -1.0621 C.2        1 <1>        0.000
      9 S6         -3.7256   -0.4928   -2.0476 S.2        1 <1>        0.000
     10 O2         -2.9773   -1.7827    0.1414 O.3        1 <1>        0.000
     11 H           3.1436    1.0493   -1.2389 H.spc      1 <1>        0.000
     12 H          -2.2181   -2.1824    0.5721 H.spc      1 <1>        0.000
@<TRIPOS>BOND
     1    1    2 1  
     2    1    7 1  
     3    2    3 1  
     4    3    4 1  
     5    4    5 2  
     6    4    6 1  
     7    7    8 1  
     8    8    9 2  
     9    8   10 1  
    10    6   11 1  
    11   10   12 1  
# Name:          frag3-234-3/31924
# Creation time: Sat Jun  5 12:52:27 2010


@<TRIPOS>MOLECULE
frag3-234-3/31924
   12    11     1     1     1
SMALL
USER_CHARGES


@<TRIPOS>ATOM
      1 S1         -1.4106   -0.6113    1.4377 S.3        1 <1>        0.000
      2 S2          0.3612    0.0117    2.0269 S.3        1 <1>        0.000
      3 S3          1.5151   -0.5565    0.4950 S.3        1 <1>        0.000
      4 C1          2.1904    0.9428   -0.0059 C.2        1 <1>        0.000
      5 S4          1.5308    1.9259   -1.2132 S.2        1 <1>        0.000
      6 O1          3.2972    1.3666    0.6774 O.3        1 <1>        0.000
      7 S5         -1.7433    0.6143   -0.0962 S.3        1 <1>        0.000
      8 C3         -1.8424   -0.4628   -1.4369 C.2        1 <1>        0.000
      9 S6         -2.9266   -0.2717   -2.7060 S.2        1 <1>        0.000
     10 O2         -1.0203   -1.5686   -1.4089 O.3        1 <1>        0.000
     11 H           3.5468    0.7021    1.3237 H.spc      1 <1>        0.000
     12 H          -0.4640   -1.5326   -0.6274 H.spc      1 <1>        0.000
@<TRIPOS>BOND
     1    1    2 1  
     2    1    7 1  
     3    2    3 1  
     4    3    4 1  
     5    4    5 2  
     6    4    6 1  
     7    7    8 1  
     8    8    9 2  
     9    8   10 1  
    10    6   11 1  
    11   10   12 1  
# Name:          frag3-234-3/31924
# Creation time: Sat Jun  5 12:52:27 2010


@<TRIPOS>MOLECULE
frag3-234-3/31924
   12    11     1     1     1
SMALL
USER_CHARGES


@<TRIPOS>ATOM
      1 S1          0.0361    2.2954   -0.0656 S.3        1 <1>        0.000
      2 S2         -1.1615    0.9713    0.7494 S.3        1 <1>        0.000
      3 S3         -2.3137    0.4621   -0.7976 S.3        1 <1>        0.000
      4 C1         -2.0876   -1.2184   -0.8976 C.2        1 <1>        0.000
      5 S4         -0.6519   -1.9762   -1.3637 S.2        1 <1>        0.000
      6 O1         -3.1246   -1.9958   -0.4705 O.3        1 <1>        0.000
      7 S5          1.2625    1.1133   -1.0990 S.3        1 <1>        0.000
      8 C3          2.3296    0.6401    0.1654 C.2        1 <1>        0.000
      9 S6          3.4069    1.7270    0.8902 S.2        1 <1>        0.000
     10 O2          2.2558   -0.6285    0.6592 O.3        1 <1>        0.000
     11 H          -3.8693   -1.4355   -0.2401 H.spc      1 <1>        0.000
     12 H           1.6098   -1.1295    0.1559 H.spc      1 <1>        0.000
@<TRIPOS>BOND
     1    1    2 1  
     2    1    7 1  
     3    2    3 1  
     4    3    4 1  
     5    4    5 2  
     6    4    6 1  
     7    7    8 1  
     8    8    9 2  
     9    8   10 1  
    10    6   11 1  
    11   10   12 1  
# Name:          frag3-234-3/31924
# Creation time: Sat Jun  5 12:52:27 2010


@<TRIPOS>MOLECULE
frag3-234-3/31924
   12    11     1     1     1
SMALL
USER_CHARGES


@<TRIPOS>ATOM
      1 S1         -1.2515   -0.3281    1.3068 S.3        1 <1>        0.000
      2 S2         -0.2410    1.2758    0.7366 S.3        1 <1>        0.000
      3 S3          1.5476    0.8533    1.5338 S.3        1 <1>        0.000
      4 C1          2.5832    1.1607    0.1819 C.2        1 <1>        0.000
      5 S4          2.7957    2.7283   -0.4288 S.2        1 <1>        0.000
      6 O1          3.1830    0.1016   -0.4176 O.3        1 <1>        0.000
      7 S5         -0.9106   -1.5328   -0.2349 S.3        1 <1>        0.000
      8 C3         -2.2245   -1.0840   -1.2847 C.2        1 <1>        0.000
      9 S6         -2.1526   -1.1236   -2.9638 S.2        1 <1>        0.000
     10 O2         -3.3777   -0.6607   -0.6593 O.3        1 <1>        0.000
     11 H           2.9568   -0.7027    0.0553 H.spc      1 <1>        0.000
     12 H          -3.2562   -0.6971    0.2923 H.spc      1 <1>        0.000
@<TRIPOS>BOND
     1    1    2 1  
     2    1    7 1  
     3    2    3 1  
     4    3    4 1  
     5    4    5 2  
     6    4    6 1  
     7    7    8 1  
     8    8    9 2  
     9    8   10 1  
    10    6   11 1  
    11   10   12 1  
# Name:          frag3-234-3/31924
# Creation time: Sat Jun  5 12:52:27 2010


@<TRIPOS>MOLECULE
frag3-234-3/31924
   12    11     1     1     1
SMALL
USER_CHARGES


@<TRIPOS>ATOM
      1 S1         -1.1253    1.1568    0.0425 S.3        1 <1>        0.000
      2 S2          0.5244    1.8091   -0.8245 S.3        1 <1>        0.000
      3 S3          1.7110    0.2058   -0.6534 S.3        1 <1>        0.000
      4 C1          2.7158    0.7545    0.6445 C.2        1 <1>        0.000
      5 S4          2.0949    1.2065    2.1668 S.2        1 <1>        0.000
      6 O1          4.0431    0.8867    0.3964 O.3        1 <1>        0.000
      7 S5         -2.0648    0.3766   -1.5260 S.3        1 <1>        0.000
      8 C3         -2.5291   -1.1801   -0.9558 C.2        1 <1>        0.000
      9 S6         -2.4678   -2.5868   -1.8751 S.2        1 <1>        0.000
     10 O2         -2.9506   -1.2388    0.3545 O.3        1 <1>        0.000
     11 H           4.2313    0.5917   -0.4975 H.spc      1 <1>        0.000
     12 H          -2.9281   -0.3583    0.7364 H.spc      1 <1>        0.000
@<TRIPOS>BOND
     1    1    2 1  
     2    1    7 1  
     3    2    3 1  
     4    3    4 1  
     5    4    5 2  
     6    4    6 1  
     7    7    8 1  
     8    8    9 2  
     9    8   10 1  
    10    6   11 1  
    11   10   12 1  
# Name:          frag3-234-3/31924
# Creation time: Sat Jun  5 12:52:27 2010


@<TRIPOS>MOLECULE
frag3-234-3/31924
   12    11     1     1     1
SMALL
USER_CHARGES


@<TRIPOS>ATOM
      1 S1         -1.0833    0.3523    0.6319 S.3        1 <1>        0.000
      2 S2          0.5591   -0.1717    1.6182 S.3        1 <1>        0.000
      3 S3          1.4765    1.5900    1.6780 S.3        1 <1>        0.000
      4 C1          2.4020    1.5344    0.2048 C.2        1 <1>        0.000
      5 S4          4.0595    1.8563    0.1603 S.2        1 <1>        0.000
      6 O1          1.7483    1.1610   -0.9388 O.3        1 <1>        0.000
      7 S5         -0.7897   -0.5589   -1.1095 S.3        1 <1>        0.000
      8 C3         -2.3349   -1.2881   -1.3628 C.2        1 <1>        0.000
      9 S6         -3.2447   -1.0301   -2.7640 S.2        1 <1>        0.000
     10 O2         -2.8413   -2.0549   -0.3481 O.3        1 <1>        0.000
     11 H           0.8196    1.0170   -0.7427 H.spc      1 <1>        0.000
     12 H          -2.2024   -2.0997    0.3671 H.spc      1 <1>        0.000
@<TRIPOS>BOND
     1    1    2 1  
     2    1    7 1  
     3    2    3 1  
     4    3    4 1  
     5    4    5 2  
     6    4    6 1  
     7    7    8 1  
     8    8    9 2  
     9    8   10 1  
    10    6   11 1  
    11   10   12 1  
# Name:          frag3-234-3/31924
# Creation time: Sat Jun  5 12:52:27 2010


@<TRIPOS>MOLECULE
frag3-234-3/31924
   12    11     1     1     1
SMALL
USER_CHARGES


@<TRIPOS>ATOM
      1 S1          0.2950    1.4612   -1.0077 S.3        1 <1>        0.000
      2 S2         -0.9025    0.8648    0.4792 S.3        1 <1>        0.000
      3 S3         -2.5461    0.4809   -0.5288 S.3        1 <1>        0.000
      4 C1         -2.2500   -1.1272   -1.1046 C.2        1 <1>        0.000
      5 S4         -3.4419   -2.3011   -1.2464 S.2        1 <1>        0.000
      6 O1         -0.9435   -1.4531   -1.3992 O.3        1 <1>        0.000
      7 S5          1.8104    0.1997   -0.7846 S.3        1 <1>        0.000
      8 C3          2.4479    0.8247    0.7129 C.2        1 <1>        0.000
      9 S6          3.1996    2.3467    0.8008 S.2        1 <1>        0.000
     10 O2          2.2825    0.0937    1.8483 O.3        1 <1>        0.000
     11 H          -0.3859   -0.6822   -1.2710 H.spc      1 <1>        0.000
     12 H           1.8460   -0.7340    1.6339 H.spc      1 <1>        0.000
@<TRIPOS>BOND
     1    1    2 1  
     2    1    7 1  
     3    2    3 1  
     4    3    4 1  
     5    4    5 2  
     6    4    6 1  
     7    7    8 1  
     8    8    9 2  
     9    8   10 1  
    10    6   11 1  
    11   10   12 1  
# Name:          frag3-234-3/31924
# Creation time: Sat Jun  5 12:52:27 2010


@<TRIPOS>MOLECULE
frag3-234-3/31924
   12    11     1     1     1
SMALL
USER_CHARGES


@<TRIPOS>ATOM
      1 S1         -0.8754   -0.8738    1.3308 S.3        1 <1>        0.000
      2 S2          1.1020   -0.9111    1.4616 S.3        1 <1>        0.000
      3 S3          1.5117    1.0230    1.5714 S.3        1 <1>        0.000
      4 C1          2.0491    1.3570   -0.0462 C.2        1 <1>        0.000
      5 S4          1.8589    2.8472   -0.8086 S.2        1 <1>        0.000
      6 O1          2.6520    0.3159   -0.7119 O.3        1 <1>        0.000
      7 S5         -1.1720   -1.7399   -0.4275 S.3        1 <1>        0.000
      8 C3         -2.1450   -0.5584   -1.2527 C.2        1 <1>        0.000
      9 S6         -1.8431   -0.0336   -2.8191 S.2        1 <1>        0.000
     10 O2         -3.1866   -0.0358   -0.5276 O.3        1 <1>        0.000
     11 H           2.6805   -0.4545   -0.1398 H.spc      1 <1>        0.000
     12 H          -3.2102   -0.4479    0.3391 H.spc      1 <1>        0.000
@<TRIPOS>BOND
     1    1    2 1  
     2    1    7 1  
     3    2    3 1  
     4    3    4 1  
     5    4    5 2  
     6    4    6 1  
     7    7    8 1  
     8    8    9 2  
     9    8   10 1  
    10    6   11 1  
    11   10   12 1  
# Name:          frag3-234-3/31924
# Creation time: Sat Jun  5 12:52:27 2010


@<TRIPOS>MOLECULE
frag3-234-3/31924
   12    11     1     1     1
SMALL
USER_CHARGES


@<TRIPOS>ATOM
      1 S1         -1.5334    1.6928   -1.1568 S.3        1 <1>        0.000
      2 S2          0.4429    1.6674   -1.3503 S.3        1 <1>        0.000
      3 S3          1.0323    1.8886    0.5283 S.3        1 <1>        0.000
      4 C1          2.1803    0.5963    0.6964 C.2        1 <1>        0.000
      5 S4          2.2644   -0.4038    2.0426 S.2        1 <1>        0.000
      6 O1          3.0288    0.4117   -0.3673 O.3        1 <1>        0.000
      7 S5         -2.0018   -0.0519   -1.9670 S.3        1 <1>        0.000
      8 C3         -1.8764   -1.1157   -0.5914 C.2        1 <1>        0.000
      9 S6         -1.4367   -2.7387   -0.6986 S.2        1 <1>        0.000
     10 O2         -2.1489   -0.5563    0.6340 O.3        1 <1>        0.000
     11 H           2.8413    1.0680   -1.0424 H.spc      1 <1>        0.000
     12 H          -2.3813    0.3679    0.5181 H.spc      1 <1>        0.000
@<TRIPOS>BOND
     1    1    2 1  
     2    1    7 1  
     3    2    3 1  
     4    3    4 1  
     5    4    5 2  
     6    4    6 1  
     7    7    8 1  
     8    8    9 2  
     9    8   10 1  
    10    6   11 1  
    11   10   12 1  
# Name:          frag3-234-3/31924
# Creation time: Sat Jun  5 12:52:27 2010


@<TRIPOS>MOLECULE
frag3-234-3/31924
   12    11     1     1     1
SMALL
USER_CHARGES


@<TRIPOS>ATOM
      1 S1         -0.0870    0.6018    0.7662 S.3        1 <1>        0.000
      2 S2          0.1257   -0.8999   -0.5384 S.3        1 <1>        0.000
      3 S3         -1.2540   -0.3379   -1.8658 S.3        1 <1>        0.000
      4 C1         -2.6544   -1.1600   -1.2074 C.2        1 <1>        0.000
      5 S4         -3.7615   -1.9762   -2.1728 S.2        1 <1>        0.000
      6 O1         -2.7900   -1.1490    0.1582 O.3        1 <1>        0.000
      7 S5          1.1213    1.9259   -0.1102 S.3        1 <1>        0.000
      8 C3          2.6396    1.5181    0.6663 C.2        1 <1>        0.000
      9 S6          3.7256    2.6835    1.2009 S.2        1 <1>        0.000
     10 O2          2.8863    0.1841    0.8730 O.3        1 <1>        0.000
     11 H          -2.0746   -0.6393    0.5456 H.spc      1 <1>        0.000
     12 H           2.1667   -0.3340    0.5052 H.spc      1 <1>        0.000
@<TRIPOS>BOND
     1    1    2 1  
     2    1    7 1  
     3    2    3 1  
     4    3    4 1  
     5    4    5 2  
     6    4    6 1  
     7    7    8 1  
     8    8    9 2  
     9    8   10 1  
    10    6   11 1  
    11   10   12 1  
# Name:          frag3-234-3/31924
# Creation time: Sat Jun  5 12:52:27 2010


@<TRIPOS>MOLECULE
frag3-234-3/31924
   12    11     1     1     1
SMALL
USER_CHARGES


@<TRIPOS>ATOM
      1 S1          0.5330   -0.2109   -0.2216 S.3        1 <1>        0.000
      2 S2         -1.0723   -0.3928    0.9372 S.3        1 <1>        0.000
      3 S3         -2.4340    0.3775   -0.3226 S.3        1 <1>        0.000
      4 C1         -2.5553   -0.9790   -1.4131 C.2        1 <1>        0.000
      5 S4         -3.0374   -2.5198   -0.8602 S.2        1 <1>        0.000
      6 O1         -2.2101   -0.8086   -2.7128 O.3        1 <1>        0.000
      7 S5          1.0515    1.6605    0.2239 S.3        1 <1>        0.000
      8 C3          2.7116    1.4517    0.6467 C.2        1 <1>        0.000
      9 S6          3.9564    2.3406   -0.0665 S.2        1 <1>        0.000
     10 O2          3.0082    0.4712    1.5590 O.3        1 <1>        0.000
     11 H          -1.9660    0.1081   -2.8604 H.spc      1 <1>        0.000
     12 H           2.1945    0.0650    1.8665 H.spc      1 <1>        0.000
@<TRIPOS>BOND
     1    1    2 1  
     2    1    7 1  
     3    2    3 1  
     4    3    4 1  
     5    4    5 2  
     6    4    6 1  
     7    7    8 1  
     8    8    9 2  
     9    8   10 1  
    10    6   11 1  
    11   10   12 1  
# Name:          frag3-234-3/31924
# Creation time: Sat Jun  5 12:52:27 2010


@<TRIPOS>MOLECULE
frag3-234-3/31924
   12    11     1     1     1
SMALL
USER_CHARGES


@<TRIPOS>ATOM
      1 S1         -1.6832    0.8167    0.3843 S.3        1 <1>        0.000
      2 S2          0.0042    0.1670    1.1828 S.3        1 <1>        0.000
      3 S3          1.0937    1.8259    1.1143 S.3        1 <1>        0.000
      4 C1          2.6000    1.2637    0.4974 C.2        1 <1>        0.000
      5 S4          3.7861    2.2600   -0.1549 S.2        1 <1>        0.000
      6 O1          2.8096   -0.0976    0.5598 O.3        1 <1>        0.000
      7 S5         -1.3915    0.2909   -1.5240 S.3        1 <1>        0.000
      8 C3         -2.1284   -1.2837   -1.4792 C.2        1 <1>        0.000
      9 S6         -3.7845   -1.4763   -1.1199 S.2        1 <1>        0.000
     10 O2         -1.3544   -2.3762   -1.6906 O.3        1 <1>        0.000
     11 H           2.0439   -0.5203    0.9554 H.spc      1 <1>        0.000
     12 H          -0.4551   -2.0982   -1.8793 H.spc      1 <1>        0.000
@<TRIPOS>BOND
     1    1    2 1  
     2    1    7 1  
     3    2    3 1  
     4    3    4 1  
     5    4    5 2  
     6    4    6 1  
     7    7    8 1  
     8    8    9 2  
     9    8   10 1  
    10    6   11 1  
    11   10   12 1  
# Name:          frag3-234-3/31924
# Creation time: Sat Jun  5 12:52:27 2010


@<TRIPOS>MOLECULE
frag3-234-3/31924
   12    11     1     1     1
SMALL
USER_CHARGES


@<TRIPOS>ATOM
      1 S1          0.2108   -0.1650    1.1172 S.3        1 <1>        0.000
      2 S2         -1.5745    0.6565    0.7928 S.3        1 <1>        0.000
      3 S3         -1.6812    0.4827   -1.1820 S.3        1 <1>        0.000
      4 C1         -2.2164   -1.1842   -1.3164 C.2        1 <1>        0.000
      5 S4         -2.5257   -1.9393   -2.7815 S.2        1 <1>        0.000
      6 O1         -2.3927   -1.8592   -0.1304 O.3        1 <1>        0.000
      7 S5          1.2799    1.4796    1.4373 S.3        1 <1>        0.000
      8 C3          2.5355    1.3303    0.2520 C.2        1 <1>        0.000
      9 S6          4.0787    1.9788    0.4589 S.2        1 <1>        0.000
     10 O2          2.2372    0.6102   -0.8779 O.3        1 <1>        0.000
     11 H          -2.1711   -1.2798    0.6023 H.spc      1 <1>        0.000
     12 H           1.3244    0.3159   -0.8367 H.spc      1 <1>        0.000
@<TRIPOS>BOND
     1    1    2 1  
     2    1    7 1  
     3    2    3 1  
     4    3    4 1  
     5    4    5 2  
     6    4    6 1  
     7    7    8 1  
     8    8    9 2  
     9    8   10 1  
    10    6   11 1  
    11   10   12 1  
# Name:          frag3-234-3/31924
# Creation time: Sat Jun  5 12:52:27 2010


@<TRIPOS>MOLECULE
frag3-234-3/31924
   12    11     1     1     1
SMALL
USER_CHARGES


@<TRIPOS>ATOM
      1 S1         -0.9542    0.3345    0.6567 S.3        1 <1>        0.000
      2 S2          0.4629    0.4893   -0.7319 S.3        1 <1>        0.000
      3 S3          2.0232   -0.2660    0.2720 S.3        1 <1>        0.000
      4 C1          2.8421    1.2104    0.6379 C.2        1 <1>        0.000
      5 S4          2.0421    2.5796    1.2720 S.2        1 <1>        0.000
      6 O1          4.1604    1.2921    0.3382 O.3        1 <1>        0.000
      7 S5         -1.6781   -1.4429    0.1627 S.3        1 <1>        0.000
      8 C3         -2.6784   -1.0183   -1.1967 C.2        1 <1>        0.000
      9 S6         -3.3505   -2.1197   -2.2678 S.2        1 <1>        0.000
     10 O2         -2.9179    0.3313   -1.3731 O.3        1 <1>        0.000
     11 H           4.4622    0.4480   -0.0054 H.spc      1 <1>        0.000
     12 H          -2.4684    0.8275   -0.6851 H.spc      1 <1>        0.000
@<TRIPOS>BOND
     1    1    2 1  
     2    1    7 1  
     3    2    3 1  
     4    3    4 1  
     5    4    5 2  
     6    4    6 1  
     7    7    8 1  
     8    8    9 2  
     9    8   10 1  
    10    6   11 1  
    11   10   12 1  
# Name:          frag3-234-3/31924
# Creation time: Sat Jun  5 12:52:27 2010


@<TRIPOS>MOLECULE
frag3-234-3/31924
   12    11     1     1     1
SMALL
USER_CHARGES


@<TRIPOS>ATOM
      1 S1          0.3367    2.0875   -1.0590 S.3        1 <1>        0.000
      2 S2         -1.3518    1.3782   -1.7505 S.3        1 <1>        0.000
      3 S3         -2.1074    0.5130   -0.1143 S.3        1 <1>        0.000
      4 C1         -1.7737   -1.1436   -0.4233 C.2        1 <1>        0.000
      5 S4         -2.4849   -1.9712   -1.7260 S.2        1 <1>        0.000
      6 O1         -0.8709   -1.7947    0.3558 O.3        1 <1>        0.000
      7 S5          1.4619    0.4405   -0.9347 S.3        1 <1>        0.000
      8 C3          2.0421    0.5213    0.6684 C.2        1 <1>        0.000
      9 S6          3.1402    1.7158    1.1667 S.2        1 <1>        0.000
     10 O2          1.5594   -0.3565    1.5869 O.3        1 <1>        0.000
     11 H          -0.5589   -1.2033    1.0446 H.spc      1 <1>        0.000
     12 H           0.9547   -0.9664    1.1580 H.spc      1 <1>        0.000
@<TRIPOS>BOND
     1    1    2 1  
     2    1    7 1  
     3    2    3 1  
     4    3    4 1  
     5    4    5 2  
     6    4    6 1  
     7    7    8 1  
     8    8    9 2  
     9    8   10 1  
    10    6   11 1  
    11   10   12 1  
# Name:          frag3-234-3/31924
# Creation time: Sat Jun  5 12:52:27 2010


@<TRIPOS>MOLECULE
frag3-234-3/31924
   12    11     1     1     1
SMALL
USER_CHARGES


@<TRIPOS>ATOM
      1 S1          0.5521   -0.5052    0.4285 S.3        1 <1>        0.000
      2 S2         -1.1363    0.5584    0.4940 S.3        1 <1>        0.000
      3 S3         -1.7202    0.4198   -1.3904 S.3        1 <1>        0.000
      4 C1         -2.5738   -1.1048   -1.3358 C.2        1 <1>        0.000
      5 S4         -3.3138   -1.7998   -2.6822 S.2        1 <1>        0.000
      6 O1         -2.6398   -1.7306   -0.1147 O.3        1 <1>        0.000
      7 S5          1.6842    0.5542    1.6603 S.3        1 <1>        0.000
      8 C3          2.7326    1.3731    0.5381 C.2        1 <1>        0.000
      9 S6          3.2155    2.9812    0.7171 S.2        1 <1>        0.000
     10 O2          3.1511    0.6440   -0.5448 O.3        1 <1>        0.000
     11 H          -2.1708   -1.2059    0.5383 H.spc      1 <1>        0.000
     12 H           2.7880   -0.2431   -0.4915 H.spc      1 <1>        0.000
@<TRIPOS>BOND
     1    1    2 1  
     2    1    7 1  
     3    2    3 1  
     4    3    4 1  
     5    4    5 2  
     6    4    6 1  
     7    7    8 1  
     8    8    9 2  
     9    8   10 1  
    10    6   11 1  
    11   10   12 1  
# Name:          frag3-234-3/31924
# Creation time: Sat Jun  5 12:52:27 2010


@<TRIPOS>MOLECULE
frag3-234-3/31924
   12    11     1     1     1
SMALL
USER_CHARGES


@<TRIPOS>ATOM
      1 S1          0.3853    1.7000   -1.1534 S.3        1 <1>        0.000
      2 S2         -1.4889    1.7532   -0.4999 S.3        1 <1>        0.000
      3 S3         -2.3335    0.3660   -1.6125 S.3        1 <1>        0.000
      4 C1         -1.9587   -1.0693   -0.7067 C.2        1 <1>        0.000
      5 S4         -1.3858   -2.4984   -1.3886 S.2        1 <1>        0.000
      6 O1         -2.1284   -0.9829    0.6563 O.3        1 <1>        0.000
      7 S5          1.4185    2.0082    0.5113 S.3        1 <1>        0.000
      8 C3          2.2872    0.5216    0.6300 C.2        1 <1>        0.000
      9 S6          1.5268   -0.9741    0.9105 S.2        1 <1>        0.000
     10 O2          3.6292    0.5661    0.4230 O.3        1 <1>        0.000
     11 H          -2.4587   -0.1102    0.8818 H.spc      1 <1>        0.000
     12 H           3.9000    1.4761    0.2812 H.spc      1 <1>        0.000
@<TRIPOS>BOND
     1    1    2 1  
     2    1    7 1  
     3    2    3 1  
     4    3    4 1  
     5    4    5 2  
     6    4    6 1  
     7    7    8 1  
     8    8    9 2  
     9    8   10 1  
    10    6   11 1  
    11   10   12 1  
# Name:          frag3-234-3/31924
# Creation time: Sat Jun  5 12:52:27 2010


@<TRIPOS>MOLECULE
frag3-234-3/31924
   12    11     1     1     1
SMALL
USER_CHARGES


@<TRIPOS>ATOM
      1 S1          0.8735   -1.1221    0.4599 S.3        1 <1>        0.000
      2 S2         -0.9441   -1.0312    1.1939 S.3        1 <1>        0.000
      3 S3         -1.7476    0.4681    0.1649 S.3        1 <1>        0.000
      4 C1         -2.3807   -0.4040   -1.1723 C.2        1 <1>        0.000
      5 S4         -1.4724   -0.9866   -2.4735 S.2        1 <1>        0.000
      6 O1         -3.7119   -0.7183   -1.1095 O.3        1 <1>        0.000
      7 S5          1.7742    0.3627    1.4449 S.3        1 <1>        0.000
      8 C3          2.3857    1.3330    0.1725 C.2        1 <1>        0.000
      9 S6          1.4296    2.1257   -0.9613 S.2        1 <1>        0.000
     10 O2          3.7453    1.3632    0.0505 O.3        1 <1>        0.000
     11 H          -4.0962   -0.3228   -0.3237 H.spc      1 <1>        0.000
     12 H           4.1412    0.8674    0.7710 H.spc      1 <1>        0.000
@<TRIPOS>BOND
     1    1    2 1  
     2    1    7 1  
     3    2    3 1  
     4    3    4 1  
     5    4    5 2  
     6    4    6 1  
     7    7    8 1  
     8    8    9 2  
     9    8   10 1  
    10    6   11 1  
    11   10   12 1  
# Name:          frag3-234-3/31924
# Creation time: Sat Jun  5 12:52:27 2010


@<TRIPOS>MOLECULE
frag3-234-3/31924
   12    11     1     1     1
SMALL
USER_CHARGES


@<TRIPOS>ATOM
      1 S1          0.2254    0.0384    0.3975 S.3        1 <1>        0.000
      2 S2         -1.4159    1.0735   -0.0372 S.3        1 <1>        0.000
      3 S3         -1.8236    0.2537   -1.8104 S.3        1 <1>        0.000
      4 C1         -2.4485   -1.2853   -1.2731 C.2        1 <1>        0.000
      5 S4         -4.0294   -1.7846   -1.5915 S.2        1 <1>        0.000
      6 O1         -1.6253   -2.0759   -0.5132 O.3        1 <1>        0.000
      7 S5          1.5948    1.1368   -0.5446 S.3        1 <1>        0.000
      8 C3          2.8130    1.2542    0.6710 C.2        1 <1>        0.000
      9 S6          3.3039    2.7090    1.3720 S.2        1 <1>        0.000
     10 O2          3.3572    0.0704    1.0995 O.3        1 <1>        0.000
     11 H          -0.7679   -1.6529   -0.4266 H.spc      1 <1>        0.000
     12 H           2.9731   -0.6555    0.6024 H.spc      1 <1>        0.000
@<TRIPOS>BOND
     1    1    2 1  
     2    1    7 1  
     3    2    3 1  
     4    3    4 1  
     5    4    5 2  
     6    4    6 1  
     7    7    8 1  
     8    8    9 2  
     9    8   10 1  
    10    6   11 1  
    11   10   12 1  
# Name:          frag3-234-3/31924
# Creation time: Sat Jun  5 12:52:27 2010


@<TRIPOS>MOLECULE
frag3-234-3/31924
   12    11     1     1     1
SMALL
USER_CHARGES


@<TRIPOS>ATOM
      1 S1         -0.3516   -1.7340    0.3414 S.3        1 <1>        0.000
      2 S2          0.4308   -0.3004    1.4582 S.3        1 <1>        0.000
      3 S3          0.7471    1.1088    0.0862 S.3        1 <1>        0.000
      4 C1          2.4067    1.4904    0.3709 C.2        1 <1>        0.000
      5 S4          3.2045    2.7815   -0.3583 S.2        1 <1>        0.000
      6 O1          3.0753    0.6899    1.2686 O.3        1 <1>        0.000
      7 S5         -2.2420   -1.0801    0.2783 S.3        1 <1>        0.000
      8 C3         -2.3729   -0.5926   -1.3822 C.2        1 <1>        0.000
      9 S6         -3.2584   -1.4910   -2.5137 S.2        1 <1>        0.000
     10 O2         -1.6879    0.5178   -1.7795 O.3        1 <1>        0.000
     11 H           2.4825    0.0063    1.5894 H.spc      1 <1>        0.000
     12 H          -1.2438    0.9064   -1.0223 H.spc      1 <1>        0.000
@<TRIPOS>BOND
     1    1    2 1  
     2    1    7 1  
     3    2    3 1  
     4    3    4 1  
     5    4    5 2  
     6    4    6 1  
     7    7    8 1  
     8    8    9 2  
     9    8   10 1  
    10    6   11 1  
    11   10   12 1  
# Name:          frag3-234-3/31924
# Creation time: Sat Jun  5 12:52:27 2010


@<TRIPOS>MOLECULE
frag3-234-3/31924
   12    11     1     1     1
SMALL
USER_CHARGES


@<TRIPOS>ATOM
      1 S1         -0.2313    1.1777    0.1408 S.3        1 <1>        0.000
      2 S2         -0.7268    0.5870   -1.6883 S.3        1 <1>        0.000
      3 S3         -0.7487   -1.3869   -1.4391 S.3        1 <1>        0.000
      4 C1         -2.3744   -1.5521   -0.8353 C.2        1 <1>        0.000
      5 S4         -3.7242   -1.2578   -1.8329 S.2        1 <1>        0.000
      6 O1         -2.5582   -1.8717    0.4708 O.3        1 <1>        0.000
      7 S5          1.4343    2.1718   -0.2417 S.3        1 <1>        0.000
      8 C3          2.5914    1.3628    0.7526 C.2        1 <1>        0.000
      9 S6          3.9716    2.1058    1.3661 S.2        1 <1>        0.000
     10 O2          2.3178    0.0538    1.0770 O.3        1 <1>        0.000
     11 H          -1.7047   -2.0049    0.8896 H.spc      1 <1>        0.000
     12 H           1.5019   -0.2168    0.6496 H.spc      1 <1>        0.000
@<TRIPOS>BOND
     1    1    2 1  
     2    1    7 1  
     3    2    3 1  
     4    3    4 1  
     5    4    5 2  
     6    4    6 1  
     7    7    8 1  
     8    8    9 2  
     9    8   10 1  
    10    6   11 1  
    11   10   12 1  
# Name:          frag3-234-3/31924
# Creation time: Sat Jun  5 12:52:27 2010


@<TRIPOS>MOLECULE
frag3-234-3/31924
   12    11     1     1     1
SMALL
USER_CHARGES


@<TRIPOS>ATOM
      1 S1         -1.0205    1.1470    0.2850 S.3        1 <1>        0.000
      2 S2          0.1815   -0.1745    1.1636 S.3        1 <1>        0.000
      3 S3          1.6280   -0.4004   -0.1585 S.3        1 <1>        0.000
      4 C1          2.5886    0.9807    0.2427 C.2        1 <1>        0.000
      5 S4          2.2322    2.5683   -0.2263 S.2        1 <1>        0.000
      6 O1          3.6574    0.7607    1.0666 O.3        1 <1>        0.000
      7 S5         -2.6870    0.0952    0.1867 S.3        1 <1>        0.000
      8 C3         -2.3327   -0.9505   -1.1581 C.2        1 <1>        0.000
      9 S6         -2.2170   -0.3709   -2.7362 S.2        1 <1>        0.000
     10 O2         -2.0789   -2.2653   -0.8955 O.3        1 <1>        0.000
     11 H           3.7346   -0.1795    1.2447 H.spc      1 <1>        0.000
     12 H          -2.1883   -2.4297    0.0440 H.spc      1 <1>        0.000
@<TRIPOS>BOND
     1    1    2 1  
     2    1    7 1  
     3    2    3 1  
     4    3    4 1  
     5    4    5 2  
     6    4    6 1  
     7    7    8 1  
     8    8    9 2  
     9    8   10 1  
    10    6   11 1  
    11   10   12 1  
# Name:          frag3-234-3/31924
# Creation time: Sat Jun  5 12:52:27 2010


@<TRIPOS>MOLECULE
frag3-234-3/31924
   12    11     1     1     1
SMALL
USER_CHARGES


@<TRIPOS>ATOM
      1 S1         -0.8291    0.3517    0.6536 S.3        1 <1>        0.000
      2 S2          0.7285   -0.6997   -0.0506 S.3        1 <1>        0.000
      3 S3          2.1394   -0.0822    1.1999 S.3        1 <1>        0.000
      4 C1          2.5990    1.4096    0.4049 C.2        1 <1>        0.000
      5 S4          3.0045    2.8181    1.2488 S.2        1 <1>        0.000
      6 O1          2.5977    1.3998   -0.9640 O.3        1 <1>        0.000
      7 S5         -2.2510   -1.0229    0.4891 S.3        1 <1>        0.000
      8 C3         -2.5846   -0.9015   -1.2365 C.2        1 <1>        0.000
      9 S6         -2.8914   -2.2425   -2.2090 S.2        1 <1>        0.000
     10 O2         -2.5614    0.3601   -1.7663 O.3        1 <1>        0.000
     11 H           2.3463    0.5275   -1.2764 H.spc      1 <1>        0.000
     12 H          -2.3730    0.9946   -1.0709 H.spc      1 <1>        0.000
@<TRIPOS>BOND
     1    1    2 1  
     2    1    7 1  
     3    2    3 1  
     4    3    4 1  
     5    4    5 2  
     6    4    6 1  
     7    7    8 1  
     8    8    9 2  
     9    8   10 1  
    10    6   11 1  
    11   10   12 1  
# Name:          frag3-234-3/31924
# Creation time: Sat Jun  5 12:52:27 2010


@<TRIPOS>MOLECULE
frag3-234-3/31924
   12    11     1     1     1
SMALL
USER_CHARGES


@<TRIPOS>ATOM
      1 S1         -1.2624    0.9480    0.3868 S.3        1 <1>        0.000
      2 S2          0.2801   -0.2631    0.7662 S.3        1 <1>        0.000
      3 S3          1.6034    0.3703   -0.5636 S.3        1 <1>        0.000
      4 C1          2.7012    1.2243    0.4778 C.2        1 <1>        0.000
      5 S4          3.3312    2.7497    0.1264 S.2        1 <1>        0.000
      6 O1          3.0336    0.5981    1.6530 O.3        1 <1>        0.000
      7 S5         -2.7084   -0.4017    0.2708 S.3        1 <1>        0.000
      8 C3         -2.3775   -1.0991   -1.2973 C.2        1 <1>        0.000
      9 S6         -3.5616   -1.2564   -2.4906 S.2        1 <1>        0.000
     10 O2         -1.0880   -1.4796   -1.5594 O.3        1 <1>        0.000
     11 H           2.5936   -0.2541    1.6958 H.spc      1 <1>        0.000
     12 H          -0.5459   -1.3260   -0.7821 H.spc      1 <1>        0.000
@<TRIPOS>BOND
     1    1    2 1  
     2    1    7 1  
     3    2    3 1  
     4    3    4 1  
     5    4    5 2  
     6    4    6 1  
     7    7    8 1  
     8    8    9 2  
     9    8   10 1  
    10    6   11 1  
    11   10   12 1  
# Name:          frag3-234-3/31924
# Creation time: Sat Jun  5 12:52:27 2010


@<TRIPOS>MOLECULE
frag3-234-3/31924
   12    11     1     1     1
SMALL
USER_CHARGES


@<TRIPOS>ATOM
      1 S1          0.4606   -0.2215    0.1061 S.3        1 <1>        0.000
      2 S2         -1.3436    0.3024    0.7681 S.3        1 <1>        0.000
      3 S3         -2.2578    0.5018   -0.9938 S.3        1 <1>        0.000
      4 C1         -2.4494   -1.1838   -1.4108 C.2        1 <1>        0.000
      5 S4         -3.9213   -1.8387   -1.9099 S.2        1 <1>        0.000
      6 O1         -1.3552   -1.9992   -1.2659 O.3        1 <1>        0.000
      7 S5          1.2395    1.5854   -0.1975 S.3        1 <1>        0.000
      8 C3          2.7172    1.4539    0.6893 C.2        1 <1>        0.000
      9 S6          4.2245    1.7903    0.0050 S.2        1 <1>        0.000
     10 O2          2.6372    0.9998    1.9794 O.3        1 <1>        0.000
     11 H          -0.6035   -1.4760   -0.9782 H.spc      1 <1>        0.000
     12 H           1.7163    0.8590    2.2114 H.spc      1 <1>        0.000
@<TRIPOS>BOND
     1    1    2 1  
     2    1    7 1  
     3    2    3 1  
     4    3    4 1  
     5    4    5 2  
     6    4    6 1  
     7    7    8 1  
     8    8    9 2  
     9    8   10 1  
    10    6   11 1  
    11   10   12 1  
# Name:          frag3-234-3/31924
# Creation time: Sat Jun  5 12:52:27 2010


@<TRIPOS>MOLECULE
frag3-234-3/31924
   12    11     1     1     1
SMALL
USER_CHARGES


@<TRIPOS>ATOM
      1 S1          0.7368   -0.1271   -0.3411 S.3        1 <1>        0.000
      2 S2         -0.9640    0.7759   -0.7984 S.3        1 <1>        0.000
      3 S3         -2.2390   -0.3160    0.2991 S.3        1 <1>        0.000
      4 C1         -2.9304   -1.2710   -0.9727 C.2        1 <1>        0.000
      5 S4         -1.9915   -2.2792   -1.9793 S.2        1 <1>        0.000
      6 O1         -4.2622   -1.1490   -1.1961 O.3        1 <1>        0.000
      7 S5          1.3424    1.0189    1.1681 S.3        1 <1>        0.000
      8 C3          2.9494    1.4108    0.6691 C.2        1 <1>        0.000
      9 S6          3.6521    2.9299    0.8552 S.2        1 <1>        0.000
     10 O2          3.6580    0.3972    0.0662 O.3        1 <1>        0.000
     11 H          -4.6408   -0.5505   -0.5479 H.spc      1 <1>        0.000
     12 H           3.1187   -0.3965    0.0390 H.spc      1 <1>        0.000
@<TRIPOS>BOND
     1    1    2 1  
     2    1    7 1  
     3    2    3 1  
     4    3    4 1  
     5    4    5 2  
     6    4    6 1  
     7    7    8 1  
     8    8    9 2  
     9    8   10 1  
    10    6   11 1  
    11   10   12 1  
# Name:          frag3-234-3/31924
# Creation time: Sat Jun  5 12:52:27 2010


@<TRIPOS>MOLECULE
frag3-234-3/31924
   12    11     1     1     1
SMALL
USER_CHARGES


@<TRIPOS>ATOM
      1 S1          0.6232    0.9908   -1.1410 S.3        1 <1>        0.000
      2 S2         -1.2537    1.5169   -0.8466 S.3        1 <1>        0.000
      3 S3         -2.1540    0.2299   -2.0653 S.3        1 <1>        0.000
      4 C1         -2.2522   -1.1643   -1.0483 C.2        1 <1>        0.000
      5 S4         -3.3622   -1.2650    0.2312 S.2        1 <1>        0.000
      6 O1         -1.3639   -2.1809   -1.2396 O.3        1 <1>        0.000
      7 S5          1.0629   -0.0385    0.5083 S.3        1 <1>        0.000
      8 C3          2.4810    0.7835    1.0048 C.2        1 <1>        0.000
      9 S6          2.5713    2.4773    1.1583 S.2        1 <1>        0.000
     10 O2          3.5992    0.0406    1.2081 O.3        1 <1>        0.000
     11 H          -0.8072   -1.9799   -1.9955 H.spc      1 <1>        0.000
     12 H           3.3911   -0.8887    1.0868 H.spc      1 <1>        0.000
@<TRIPOS>BOND
     1    1    2 1  
     2    1    7 1  
     3    2    3 1  
     4    3    4 1  
     5    4    5 2  
     6    4    6 1  
     7    7    8 1  
     8    8    9 2  
     9    8   10 1  
    10    6   11 1  
    11   10   12 1  
# Name:          frag3-234-3/31924
# Creation time: Sat Jun  5 12:52:27 2010


@<TRIPOS>MOLECULE
frag3-234-3/31924
   12    11     1     1     1
SMALL
USER_CHARGES


@<TRIPOS>ATOM
      1 S1          0.3636    1.0445   -0.7733 S.3        1 <1>        0.000
      2 S2         -1.3851    1.2387    0.1437 S.3        1 <1>        0.000
      3 S3         -2.5992    0.5878   -1.2749 S.3        1 <1>        0.000
      4 C1         -2.4832   -1.1344   -1.0596 C.2        1 <1>        0.000
      5 S4         -2.2757   -2.2336   -2.3194 S.2        1 <1>        0.000
      6 O1         -2.5399   -1.5861    0.2384 O.3        1 <1>        0.000
      7 S5          1.3697   -0.1164    0.4941 S.3        1 <1>        0.000
      8 C3          2.7894    0.8435    0.7051 C.2        1 <1>        0.000
      9 S6          2.7392    2.4397    1.3003 S.2        1 <1>        0.000
     10 O2          3.9729    0.3067    0.3157 O.3        1 <1>        0.000
     11 H          -2.6602   -0.8402    0.8306 H.spc      1 <1>        0.000
     12 H           3.8299   -0.5915    0.0085 H.spc      1 <1>        0.000
@<TRIPOS>BOND
     1    1    2 1  
     2    1    7 1  
     3    2    3 1  
     4    3    4 1  
     5    4    5 2  
     6    4    6 1  
     7    7    8 1  
     8    8    9 2  
     9    8   10 1  
    10    6   11 1  
    11   10   12 1  
# Name:          frag3-234-3/31924
# Creation time: Sat Jun  5 12:52:27 2010


@<TRIPOS>MOLECULE
frag3-234-3/31924
   12    11     1     1     1
SMALL
USER_CHARGES


@<TRIPOS>ATOM
      1 S1         -0.8721    0.8333   -0.0928 S.3        1 <1>        0.000
      2 S2          0.7386   -0.0443   -0.8619 S.3        1 <1>        0.000
      3 S3          2.0139    1.4632   -0.9105 S.3        1 <1>        0.000
      4 C1          2.8136    1.2019    0.6015 C.2        1 <1>        0.000
      5 S4          2.1630    1.6428    2.1043 S.2        1 <1>        0.000
      6 O1          4.0046    0.5358    0.5578 O.3        1 <1>        0.000
      7 S5         -2.2194    0.4424   -1.4938 S.3        1 <1>        0.000
      8 C3         -2.7940   -1.0822   -0.9012 C.2        1 <1>        0.000
      9 S6         -1.8327   -2.4836   -0.8194 S.2        1 <1>        0.000
     10 O2         -4.0639   -1.1189   -0.4139 O.3        1 <1>        0.000
     11 H           4.2374    0.3584   -0.3565 H.spc      1 <1>        0.000
     12 H          -4.4753   -0.2594   -0.5308 H.spc      1 <1>        0.000
@<TRIPOS>BOND
     1    1    2 1  
     2    1    7 1  
     3    2    3 1  
     4    3    4 1  
     5    4    5 2  
     6    4    6 1  
     7    7    8 1  
     8    8    9 2  
     9    8   10 1  
    10    6   11 1  
    11   10   12 1  
# Name:          frag3-234-3/31924
# Creation time: Sat Jun  5 12:52:27 2010


@<TRIPOS>MOLECULE
frag3-234-3/31924
   12    11     1     1     1
SMALL
USER_CHARGES


@<TRIPOS>ATOM
      1 S1          0.2869   -0.0197    0.3091 S.3        1 <1>        0.000
      2 S2         -1.4051    1.0083    0.3679 S.3        1 <1>        0.000
      3 S3         -2.1433    0.5193   -1.4169 S.3        1 <1>        0.000
      4 C1         -2.5824   -1.1354   -1.0992 C.2        1 <1>        0.000
      5 S4         -1.7611   -2.4736   -1.7215 S.2        1 <1>        0.000
      6 O1         -3.6316   -1.3281   -0.2368 O.3        1 <1>        0.000
      7 S5          1.4779    1.2821   -0.6394 S.3        1 <1>        0.000
      8 C3          2.8653    1.2059    0.3674 C.2        1 <1>        0.000
      9 S6          2.8137    1.5296    2.0387 S.2        1 <1>        0.000
     10 O2          4.0314    0.8021   -0.1992 O.3        1 <1>        0.000
     11 H          -3.9897   -0.4767    0.0250 H.spc      1 <1>        0.000
     12 H           3.8973    0.6618   -1.1394 H.spc      1 <1>        0.000
@<TRIPOS>BOND
     1    1    2 1  
     2    1    7 1  
     3    2    3 1  
     4    3    4 1  
     5    4    5 2  
     6    4    6 1  
     7    7    8 1  
     8    8    9 2  
     9    8   10 1  
    10    6   11 1  
    11   10   12 1  
# Name:          frag3-234-3/31924
# Creation time: Sat Jun  5 12:52:27 2010


@<TRIPOS>MOLECULE
frag3-234-3/31924
   12    11     1     1     1
SMALL
USER_CHARGES


@<TRIPOS>ATOM
      1 S1         -1.3579    1.2776    0.7585 S.3        1 <1>        0.000
      2 S2         -0.0866    2.2224   -0.4586 S.3        1 <1>        0.000
      3 S3          1.5861    2.1194    0.5931 S.3        1 <1>        0.000
      4 C1          1.9767    0.4424    0.3529 C.2        1 <1>        0.000
      5 S4          2.4497   -0.1549   -1.1686 S.2        1 <1>        0.000
      6 O1          1.8421   -0.4184    1.3963 O.3        1 <1>        0.000
      7 S5         -2.5171    0.3500   -0.5261 S.3        1 <1>        0.000
      8 C3         -1.5800   -1.0626   -0.9033 C.2        1 <1>        0.000
      9 S6         -1.6025   -1.8601   -2.3800 S.2        1 <1>        0.000
     10 O2         -0.7588   -1.5254    0.1057 O.3        1 <1>        0.000
     11 H           1.5721    0.0683    2.1785 H.spc      1 <1>        0.000
     12 H          -0.8592   -0.9669    0.8800 H.spc      1 <1>        0.000
@<TRIPOS>BOND
     1    1    2 1  
     2    1    7 1  
     3    2    3 1  
     4    3    4 1  
     5    4    5 2  
     6    4    6 1  
     7    7    8 1  
     8    8    9 2  
     9    8   10 1  
    10    6   11 1  
    11   10   12 1  
# Name:          frag3-234-3/31924
# Creation time: Sat Jun  5 12:52:27 2010


@<TRIPOS>MOLECULE
frag3-234-3/31924
   12    11     1     1     1
SMALL
USER_CHARGES


@<TRIPOS>ATOM
      1 S1          0.6048   -0.8736    1.3586 S.3        1 <1>        0.000
      2 S2         -1.1441    0.0931    1.2968 S.3        1 <1>        0.000
      3 S3         -2.2325   -1.1866    0.2608 S.3        1 <1>        0.000
      4 C1         -1.9504   -0.6240   -1.3644 C.2        1 <1>        0.000
      5 S4         -2.6710   -1.3123   -2.7233 S.2        1 <1>        0.000
      6 O1         -1.1027    0.4496   -1.5061 O.3        1 <1>        0.000
      7 S5          1.8426    0.6313    1.6824 S.3        1 <1>        0.000
      8 C3          2.1204    1.1858    0.0505 C.2        1 <1>        0.000
      9 S6          2.3803    2.8025   -0.3559 S.2        1 <1>        0.000
     10 O2          2.1042    0.2247   -0.9295 O.3        1 <1>        0.000
     11 H          -0.7809    0.7180   -0.6424 H.spc      1 <1>        0.000
     12 H           1.9455   -0.6342   -0.5312 H.spc      1 <1>        0.000
@<TRIPOS>BOND
     1    1    2 1  
     2    1    7 1  
     3    2    3 1  
     4    3    4 1  
     5    4    5 2  
     6    4    6 1  
     7    7    8 1  
     8    8    9 2  
     9    8   10 1  
    10    6   11 1  
    11   10   12 1  
# Name:          frag3-234-3/31924
# Creation time: Sat Jun  5 12:52:27 2010


@<TRIPOS>MOLECULE
frag3-234-3/31924
   12    11     1     1     1
SMALL
USER_CHARGES


@<TRIPOS>ATOM
      1 S1         -1.4607    1.3924   -1.0265 S.3        1 <1>        0.000
      2 S2         -0.3043    1.3986    0.5784 S.3        1 <1>        0.000
      3 S3          1.4096    2.0443   -0.2300 S.3        1 <1>        0.000
      4 C1          2.5472    0.9785    0.5106 C.2        1 <1>        0.000
      5 S4          2.9568    1.1157    2.1469 S.2        1 <1>        0.000
      6 O1          3.0717   -0.0201   -0.2481 O.3        1 <1>        0.000
      7 S5         -0.9686   -0.3752   -1.7935 S.3        1 <1>        0.000
      8 C3         -2.0685   -1.4035   -0.9249 C.2        1 <1>        0.000
      9 S6         -3.1481   -2.4452   -1.6890 S.2        1 <1>        0.000
     10 O2         -2.0835   -1.2951    0.4461 O.3        1 <1>        0.000
     11 H           2.7358    0.0506   -1.1446 H.spc      1 <1>        0.000
     12 H          -1.4135   -0.6661    0.7236 H.spc      1 <1>        0.000
@<TRIPOS>BOND
     1    1    2 1  
     2    1    7 1  
     3    2    3 1  
     4    3    4 1  
     5    4    5 2  
     6    4    6 1  
     7    7    8 1  
     8    8    9 2  
     9    8   10 1  
    10    6   11 1  
    11   10   12 1  
# Name:          frag3-234-3/31924
# Creation time: Sat Jun  5 12:52:27 2010


@<TRIPOS>MOLECULE
frag3-234-3/31924
   12    11     1     1     1
SMALL
USER_CHARGES


@<TRIPOS>ATOM
      1 S1          0.7224   -0.5464    1.2754 S.3        1 <1>        0.000
      2 S2         -1.2142   -0.2247    1.0394 S.3        1 <1>        0.000
      3 S3         -1.2792    0.1667   -0.9149 S.3        1 <1>        0.000
      4 C1         -2.4843   -0.9648   -1.4351 C.2        1 <1>        0.000
      5 S4         -3.0071   -1.0948   -3.0326 S.2        1 <1>        0.000
      6 O1         -3.0346   -1.7662   -0.4638 O.3        1 <1>        0.000
      7 S5          1.3479    1.3407    1.4892 S.3        1 <1>        0.000
      8 C3          2.6184    1.4220    0.3125 C.2        1 <1>        0.000
      9 S6          2.7800    2.6835   -0.7991 S.2        1 <1>        0.000
     10 O2          3.5022    0.3745    0.2991 O.3        1 <1>        0.000
     11 H          -2.6282   -1.5661    0.3826 H.spc      1 <1>        0.000
     12 H           3.2681   -0.2491    0.9904 H.spc      1 <1>        0.000
@<TRIPOS>BOND
     1    1    2 1  
     2    1    7 1  
     3    2    3 1  
     4    3    4 1  
     5    4    5 2  
     6    4    6 1  
     7    7    8 1  
     8    8    9 2  
     9    8   10 1  
    10    6   11 1  
    11   10   12 1  
# Name:          frag3-234-3/31924
# Creation time: Sat Jun  5 12:52:27 2010


@<TRIPOS>MOLECULE
frag3-234-3/31924
   12    11     1     1     1
SMALL
USER_CHARGES


@<TRIPOS>ATOM
      1 S1          0.5564    0.0036   -0.1727 S.3        1 <1>        0.000
      2 S2         -1.0217    0.9361   -0.9491 S.3        1 <1>        0.000
      3 S3         -1.6583   -0.4872   -2.1868 S.3        1 <1>        0.000
      4 C1         -2.6821   -1.3717   -1.0802 C.2        1 <1>        0.000
      5 S4         -4.3729   -1.2326   -1.1257 S.2        1 <1>        0.000
      6 O1         -2.0826   -2.1451   -0.1311 O.3        1 <1>        0.000
      7 S5          1.9938    1.2999   -0.6205 S.3        1 <1>        0.000
      8 C3          2.8384    1.3779    0.8930 C.2        1 <1>        0.000
      9 S6          3.1617    2.8271    1.7020 S.2        1 <1>        0.000
     10 O2          3.2189    0.1824    1.4411 O.3        1 <1>        0.000
     11 H          -1.1303   -2.1127   -0.2482 H.spc      1 <1>        0.000
     12 H           2.9604   -0.5334    0.8559 H.spc      1 <1>        0.000
@<TRIPOS>BOND
     1    1    2 1  
     2    1    7 1  
     3    2    3 1  
     4    3    4 1  
     5    4    5 2  
     6    4    6 1  
     7    7    8 1  
     8    8    9 2  
     9    8   10 1  
    10    6   11 1  
    11   10   12 1  
# Name:          frag3-234-3/31924
# Creation time: Sat Jun  5 12:52:27 2010


@<TRIPOS>MOLECULE
frag3-234-3/31924
   12    11     1     1     1
SMALL
USER_CHARGES


@<TRIPOS>ATOM
      1 S1          0.0823    0.4687    0.5387 S.3        1 <1>        0.000
      2 S2         -0.4315    0.3561   -1.3858 S.3        1 <1>        0.000
      3 S3         -2.4125    0.3757   -1.1841 S.3        1 <1>        0.000
      4 C1         -2.6948   -1.3528   -1.0632 C.2        1 <1>        0.000
      5 S4         -3.3551   -2.2342   -2.3458 S.2        1 <1>        0.000
      6 O1         -2.3142   -1.9737    0.0887 O.3        1 <1>        0.000
      7 S5          1.2335    2.0853    0.4863 S.3        1 <1>        0.000
      8 C3          2.7959    1.3754    0.7928 C.2        1 <1>        0.000
      9 S6          4.2355    2.2541    0.7498 S.2        1 <1>        0.000
     10 O2          2.8125    0.0358    1.0927 O.3        1 <1>        0.000
     11 H          -1.9642   -1.3226    0.7013 H.spc      1 <1>        0.000
     12 H           1.9157   -0.3063    1.0738 H.spc      1 <1>        0.000
@<TRIPOS>BOND
     1    1    2 1  
     2    1    7 1  
     3    2    3 1  
     4    3    4 1  
     5    4    5 2  
     6    4    6 1  
     7    7    8 1  
     8    8    9 2  
     9    8   10 1  
    10    6   11 1  
    11   10   12 1  
# Name:          frag3-234-3/31924
# Creation time: Sat Jun  5 12:52:27 2010


@<TRIPOS>MOLECULE
frag3-234-3/31924
   12    11     1     1     1
SMALL
USER_CHARGES


@<TRIPOS>ATOM
      1 S1         -0.5476   -1.6071    1.0832 S.3        1 <1>        0.000
      2 S2          0.3844   -0.1300    2.0197 S.3        1 <1>        0.000
      3 S3          2.0939   -0.0383    1.0455 S.3        1 <1>        0.000
      4 C1          1.6715    0.9713   -0.2964 C.2        1 <1>        0.000
      5 S4          1.5979    2.6462   -0.1765 S.2        1 <1>        0.000
      6 O1          1.3039    0.3548   -1.4644 O.3        1 <1>        0.000
      7 S5         -2.1632   -0.7107    0.4026 S.3        1 <1>        0.000
      8 C3         -1.6338   -0.1304   -1.1277 C.2        1 <1>        0.000
      9 S6         -1.6728   -1.0817   -2.5230 S.2        1 <1>        0.000
     10 O2         -1.0826    1.1163   -1.1931 O.3        1 <1>        0.000
     11 H           1.4032   -0.5952   -1.3685 H.spc      1 <1>        0.000
     12 H          -1.1323    1.5326   -0.3295 H.spc      1 <1>        0.000
@<TRIPOS>BOND
     1    1    2 1  
     2    1    7 1  
     3    2    3 1  
     4    3    4 1  
     5    4    5 2  
     6    4    6 1  
     7    7    8 1  
     8    8    9 2  
     9    8   10 1  
    10    6   11 1  
    11   10   12 1  
# Name:          frag3-234-3/31924
# Creation time: Sat Jun  5 12:52:27 2010


@<TRIPOS>MOLECULE
frag3-234-3/31924
   12    11     1     1     1
SMALL
USER_CHARGES


@<TRIPOS>ATOM
      1 S1          0.3008   -0.1250    1.5661 S.3        1 <1>        0.000
      2 S2         -1.4080    0.6581    0.9689 S.3        1 <1>        0.000
      3 S3         -2.2992   -0.9738    0.2783 S.3        1 <1>        0.000
      4 C1         -2.1351   -0.8168   -1.4286 C.2        1 <1>        0.000
      5 S4         -3.2747   -1.3463   -2.5367 S.2        1 <1>        0.000
      6 O1         -1.0145   -0.1531   -1.8866 O.3        1 <1>        0.000
      7 S5          1.3517   -0.1921   -0.1327 S.3        1 <1>        0.000
      8 C3          2.5131    1.0432    0.1894 C.2        1 <1>        0.000
      9 S6          2.1195    2.6719    0.3934 S.2        1 <1>        0.000
     10 O2          3.7980    0.6242    0.3584 O.3        1 <1>        0.000
     11 H          -0.4588    0.0862   -1.1413 H.spc      1 <1>        0.000
     12 H           3.8473   -0.3224    0.2063 H.spc      1 <1>        0.000
@<TRIPOS>BOND
     1    1    2 1  
     2    1    7 1  
     3    2    3 1  
     4    3    4 1  
     5    4    5 2  
     6    4    6 1  
     7    7    8 1  
     8    8    9 2  
     9    8   10 1  
    10    6   11 1  
    11   10   12 1  
# Name:          frag3-234-3/31924
# Creation time: Sat Jun  5 12:52:27 2010


@<TRIPOS>MOLECULE
frag3-234-3/31924
   12    11     1     1     1
SMALL
USER_CHARGES


@<TRIPOS>ATOM
      1 S1          0.1948   -0.0957    0.9637 S.3        1 <1>        0.000
      2 S2         -1.7151    0.4149    0.8062 S.3        1 <1>        0.000
      3 S3         -1.8494    0.5266   -1.1866 S.3        1 <1>        0.000
      4 C1         -2.2312   -1.1404   -1.5296 C.2        1 <1>        0.000
      5 S4         -3.8077   -1.6352   -1.9114 S.2        1 <1>        0.000
      6 O1         -1.2310   -2.0626   -1.4252 O.3        1 <1>        0.000
      7 S5          1.0427    1.7087    0.8507 S.3        1 <1>        0.000
      8 C3          2.6920    1.3070    0.5418 C.2        1 <1>        0.000
      9 S6          3.6558    2.1307   -0.5725 S.2        1 <1>        0.000
     10 O2          3.2006    0.2365    1.2329 O.3        1 <1>        0.000
     11 H          -0.4090   -1.6180   -1.2053 H.spc      1 <1>        0.000
     12 H           2.5265   -0.1134    1.8200 H.spc      1 <1>        0.000
@<TRIPOS>BOND
     1    1    2 1  
     2    1    7 1  
     3    2    3 1  
     4    3    4 1  
     5    4    5 2  
     6    4    6 1  
     7    7    8 1  
     8    8    9 2  
     9    8   10 1  
    10    6   11 1  
    11   10   12 1  
# Name:          frag3-234-3/31924
# Creation time: Sat Jun  5 12:52:27 2010


@<TRIPOS>MOLECULE
frag3-234-3/31924
   12    11     1     1     1
SMALL
USER_CHARGES


@<TRIPOS>ATOM
      1 S1          0.8964   -0.4799   -0.4862 S.3        1 <1>        0.000
      2 S2         -0.4831    0.8242   -1.1241 S.3        1 <1>        0.000
      3 S3         -1.5489   -0.3658   -2.2926 S.3        1 <1>        0.000
      4 C1         -2.5933   -1.1193   -1.1122 C.2        1 <1>        0.000
      5 S4         -4.2024   -1.5144   -1.4407 S.2        1 <1>        0.000
      6 O1         -2.0693   -1.3484    0.1330 O.3        1 <1>        0.000
      7 S5          1.2493    0.2296    1.3268 S.3        1 <1>        0.000
      8 C3          2.5351    1.3602    0.9746 C.2        1 <1>        0.000
      9 S6          2.9529    2.6390    1.9929 S.2        1 <1>        0.000
     10 O2          3.2150    1.1651   -0.2014 O.3        1 <1>        0.000
     11 H          -1.1510   -1.0690    0.1489 H.spc      1 <1>        0.000
     12 H           2.8531    0.4009   -0.6559 H.spc      1 <1>        0.000
@<TRIPOS>BOND
     1    1    2 1  
     2    1    7 1  
     3    2    3 1  
     4    3    4 1  
     5    4    5 2  
     6    4    6 1  
     7    7    8 1  
     8    8    9 2  
     9    8   10 1  
    10    6   11 1  
    11   10   12 1  
# Name:          frag3-234-3/31924
# Creation time: Sat Jun  5 12:52:27 2010


@<TRIPOS>MOLECULE
frag3-234-3/31924
   12    11     1     1     1
SMALL
USER_CHARGES


@<TRIPOS>ATOM
      1 S1          0.1365    2.1544   -0.6470 S.3        1 <1>        0.000
      2 S2         -1.3300    1.4826   -1.7660 S.3        1 <1>        0.000
      3 S3         -2.4957    0.5918   -0.4268 S.3        1 <1>        0.000
      4 C1         -1.7710   -0.9674   -0.3544 C.2        1 <1>        0.000
      5 S4         -1.3883   -1.8484   -1.7632 S.2        1 <1>        0.000
      6 O1         -1.4545   -1.4981    0.8510 O.3        1 <1>        0.000
      7 S5          1.6422    0.9444   -1.0402 S.3        1 <1>        0.000
      8 C3          2.1082    0.3765    0.4956 C.2        1 <1>        0.000
      9 S6          1.6312   -1.0834    1.1784 S.2        1 <1>        0.000
     10 O2          2.8729    1.2380    1.2426 O.3        1 <1>        0.000
     11 H          -1.7276   -0.8953    1.5464 H.spc      1 <1>        0.000
     12 H           3.0663    2.0232    0.7252 H.spc      1 <1>        0.000
@<TRIPOS>BOND
     1    1    2 1  
     2    1    7 1  
     3    2    3 1  
     4    3    4 1  
     5    4    5 2  
     6    4    6 1  
     7    7    8 1  
     8    8    9 2  
     9    8   10 1  
    10    6   11 1  
    11   10   12 1  
# Name:          frag3-234-3/31924
# Creation time: Sat Jun  5 12:52:27 2010


@<TRIPOS>MOLECULE
frag3-234-3/31924
   12    11     1     1     1
SMALL
USER_CHARGES


@<TRIPOS>ATOM
      1 S1         -1.1504    0.5712    0.0368 S.3        1 <1>        0.000
      2 S2          0.6291   -0.2368    0.3477 S.3        1 <1>        0.000
      3 S3          1.7779    1.1219   -0.5544 S.3        1 <1>        0.000
      4 C1          2.8852    1.5092    0.7172 C.2        1 <1>        0.000
      5 S4          3.5927    3.0258    0.9152 S.2        1 <1>        0.000
      6 O1          3.1727    0.4961    1.6014 O.3        1 <1>        0.000
      7 S5         -1.5254   -0.1952   -1.7838 S.3        1 <1>        0.000
      8 C3         -2.7371   -1.3586   -1.3435 C.2        1 <1>        0.000
      9 S6         -4.2052   -0.8701   -0.6198 S.2        1 <1>        0.000
     10 O2         -2.4880   -2.6730   -1.5468 O.3        1 <1>        0.000
     11 H           2.6913   -0.2948    1.3477 H.spc      1 <1>        0.000
     12 H          -1.6270   -2.7743   -1.9591 H.spc      1 <1>        0.000
@<TRIPOS>BOND
     1    1    2 1  
     2    1    7 1  
     3    2    3 1  
     4    3    4 1  
     5    4    5 2  
     6    4    6 1  
     7    7    8 1  
     8    8    9 2  
     9    8   10 1  
    10    6   11 1  
    11   10   12 1  
# Name:          frag3-234-3/31924
# Creation time: Sat Jun  5 12:52:27 2010


@<TRIPOS>MOLECULE
frag3-234-3/31924
   12    11     1     1     1
SMALL
USER_CHARGES


@<TRIPOS>ATOM
      1 S1         -0.4992    0.4193   -1.8453 S.3        1 <1>        0.000
      2 S2          0.6379   -0.2645   -0.3702 S.3        1 <1>        0.000
      3 S3          0.9330    1.4232    0.6511 S.3        1 <1>        0.000
      4 C1          2.6325    1.3606    0.9200 C.2        1 <1>        0.000
      5 S4          3.6641    2.6812    0.7593 S.2        1 <1>        0.000
      6 O1          3.1456    0.1289    1.2581 O.3        1 <1>        0.000
      7 S5         -2.2329    0.5537   -0.8341 S.3        1 <1>        0.000
      8 C3         -2.6611   -1.1365   -0.8326 C.2        1 <1>        0.000
      9 S6         -2.9478   -1.9793   -2.2870 S.2        1 <1>        0.000
     10 O2         -2.7204   -1.7962    0.3508 O.3        1 <1>        0.000
     11 H           2.4317   -0.5110    1.3087 H.spc      1 <1>        0.000
     12 H          -2.5363   -1.1838    1.0668 H.spc      1 <1>        0.000
@<TRIPOS>BOND
     1    1    2 1  
     2    1    7 1  
     3    2    3 1  
     4    3    4 1  
     5    4    5 2  
     6    4    6 1  
     7    7    8 1  
     8    8    9 2  
     9    8   10 1  
    10    6   11 1  
    11   10   12 1  
# Name:          frag3-234-3/31924
# Creation time: Sat Jun  5 12:52:27 2010


@<TRIPOS>MOLECULE
frag3-234-3/31924
   12    11     1     1     1
SMALL
USER_CHARGES


@<TRIPOS>ATOM
      1 S1         -1.1768    0.8475    0.6775 S.3        1 <1>        0.000
      2 S2          0.3151   -0.4693    0.8886 S.3        1 <1>        0.000
      3 S3          1.5085    0.0749   -0.5825 S.3        1 <1>        0.000
      4 C1          2.4307    1.3183    0.2060 C.2        1 <1>        0.000
      5 S4          4.0632    1.5895   -0.0797 S.2        1 <1>        0.000
      6 O1          1.7748    2.0706    1.1591 O.3        1 <1>        0.000
      7 S5         -2.6828   -0.4163    0.4023 S.3        1 <1>        0.000
      8 C3         -2.2284   -1.0884   -1.1515 C.2        1 <1>        0.000
      9 S6         -2.2825   -0.1670   -2.5681 S.2        1 <1>        0.000
     10 O2         -1.7702   -2.3693   -1.1819 O.3        1 <1>        0.000
     11 H           0.8554    1.7980    1.2033 H.spc      1 <1>        0.000
     12 H          -1.8077   -2.7424   -0.2982 H.spc      1 <1>        0.000
@<TRIPOS>BOND
     1    1    2 1  
     2    1    7 1  
     3    2    3 1  
     4    3    4 1  
     5    4    5 2  
     6    4    6 1  
     7    7    8 1  
     8    8    9 2  
     9    8   10 1  
    10    6   11 1  
    11   10   12 1  
# Name:          frag3-234-3/31924
# Creation time: Sat Jun  5 12:52:27 2010


@<TRIPOS>MOLECULE
frag3-234-3/31924
   12    11     1     1     1
SMALL
USER_CHARGES


@<TRIPOS>ATOM
      1 S1         -1.4765   -0.4445    1.4488 S.3        1 <1>        0.000
      2 S2          0.0410    0.8175    1.5332 S.3        1 <1>        0.000
      3 S3          1.3518   -0.0798    0.3304 S.3        1 <1>        0.000
      4 C1          2.4726    1.1938    0.0151 C.2        1 <1>        0.000
      5 S4          4.0766    0.9260   -0.4323 S.2        1 <1>        0.000
      6 O1          2.0071    2.4759    0.1726 O.3        1 <1>        0.000
      7 S5         -2.4476    0.2822   -0.1344 S.3        1 <1>        0.000
      8 C3         -2.1312   -0.9405   -1.3290 C.2        1 <1>        0.000
      9 S6         -1.7910   -0.6011   -2.9469 S.2        1 <1>        0.000
     10 O2         -2.1511   -2.2392   -0.8875 O.3        1 <1>        0.000
     11 H           1.0817    2.4502    0.4266 H.spc      1 <1>        0.000
     12 H          -2.3591   -2.2543    0.0496 H.spc      1 <1>        0.000
@<TRIPOS>BOND
     1    1    2 1  
     2    1    7 1  
     3    2    3 1  
     4    3    4 1  
     5    4    5 2  
     6    4    6 1  
     7    7    8 1  
     8    8    9 2  
     9    8   10 1  
    10    6   11 1  
    11   10   12 1  
# Name:          frag3-234-3/31924
# Creation time: Sat Jun  5 12:52:27 2010


@<TRIPOS>MOLECULE
frag3-234-3/31924
   12    11     1     1     1
SMALL
USER_CHARGES


@<TRIPOS>ATOM
      1 S1         -1.1482    1.2201    0.1123 S.3        1 <1>        0.000
      2 S2          0.4474    1.7152   -0.9197 S.3        1 <1>        0.000
      3 S3          1.6249    0.1288   -0.7202 S.3        1 <1>        0.000
      4 C1          2.6666    0.7001    0.5143 C.2        1 <1>        0.000
      5 S4          2.1618    1.1070    2.0824 S.2        1 <1>        0.000
      6 O1          3.9656    0.9269    0.1649 O.3        1 <1>        0.000
      7 S5         -2.3402    0.5093   -1.3120 S.3        1 <1>        0.000
      8 C3         -2.4897   -1.1441   -0.8698 C.2        1 <1>        0.000
      9 S6         -1.2179   -2.2448   -0.8677 S.2        1 <1>        0.000
     10 O2         -3.7187   -1.5282   -0.4144 O.3        1 <1>        0.000
     11 H           4.1044    0.6500   -0.7438 H.spc      1 <1>        0.000
     12 H          -4.3287   -0.7900   -0.4818 H.spc      1 <1>        0.000
@<TRIPOS>BOND
     1    1    2 1  
     2    1    7 1  
     3    2    3 1  
     4    3    4 1  
     5    4    5 2  
     6    4    6 1  
     7    7    8 1  
     8    8    9 2  
     9    8   10 1  
    10    6   11 1  
    11   10   12 1  
# Name:          frag3-234-3/31924
# Creation time: Sat Jun  5 12:52:27 2010


@<TRIPOS>MOLECULE
frag3-234-3/31924
   12    11     1     1     1
SMALL
USER_CHARGES


@<TRIPOS>ATOM
      1 S1         -1.3883    0.4146    0.8955 S.3        1 <1>        0.000
      2 S2          0.1751    0.7505   -0.2804 S.3        1 <1>        0.000
      3 S3          1.6558    0.0801    0.8928 S.3        1 <1>        0.000
      4 C1          2.8996    1.1900    0.4601 C.2        1 <1>        0.000
      5 S4          2.7927    2.8566    0.7970 S.2        1 <1>        0.000
      6 O1          3.9626    0.7065   -0.2317 O.3        1 <1>        0.000
      7 S5         -1.8183   -1.4435    0.3197 S.3        1 <1>        0.000
      8 C3         -2.5823   -1.1139   -1.2168 C.2        1 <1>        0.000
      9 S6         -2.3545   -2.0475   -2.6011 S.2        1 <1>        0.000
     10 O2         -3.3910   -0.0031   -1.2650 O.3        1 <1>        0.000
     11 H           3.8702   -0.2434   -0.3355 H.spc      1 <1>        0.000
     12 H          -3.4136    0.4126   -0.4000 H.spc      1 <1>        0.000
@<TRIPOS>BOND
     1    1    2 1  
     2    1    7 1  
     3    2    3 1  
     4    3    4 1  
     5    4    5 2  
     6    4    6 1  
     7    7    8 1  
     8    8    9 2  
     9    8   10 1  
    10    6   11 1  
    11   10   12 1  
# Name:          frag3-234-3/31924
# Creation time: Sat Jun  5 12:52:27 2010


@<TRIPOS>MOLECULE
frag3-234-3/31924
   12    11     1     1     1
SMALL
USER_CHARGES


@<TRIPOS>ATOM
      1 S1         -0.1684    0.6056    1.1900 S.3        1 <1>        0.000
      2 S2         -0.9837    1.2008   -0.5386 S.3        1 <1>        0.000
      3 S3         -2.7178    0.2444   -0.4428 S.3        1 <1>        0.000
      4 C1         -2.2353   -1.2823   -1.1422 C.2        1 <1>        0.000
      5 S4         -2.5383   -1.6487   -2.7726 S.2        1 <1>        0.000
      6 O1         -1.5566   -2.1635   -0.3565 O.3        1 <1>        0.000
      7 S5          1.3215    1.8968    1.3400 S.3        1 <1>        0.000
      8 C3          2.5633    1.0442    0.4526 C.2        1 <1>        0.000
      9 S6          3.6762    1.8115   -0.5600 S.2        1 <1>        0.000
     10 O2          2.5906   -0.3185    0.6003 O.3        1 <1>        0.000
     11 H          -1.4735   -1.8026    0.5292 H.spc      1 <1>        0.000
     12 H           1.8961   -0.5876    1.2060 H.spc      1 <1>        0.000
@<TRIPOS>BOND
     1    1    2 1  
     2    1    7 1  
     3    2    3 1  
     4    3    4 1  
     5    4    5 2  
     6    4    6 1  
     7    7    8 1  
     8    8    9 2  
     9    8   10 1  
    10    6   11 1  
    11   10   12 1  
# Name:          frag3-234-3/31924
# Creation time: Sat Jun  5 12:52:27 2010


@<TRIPOS>MOLECULE
frag3-234-3/31924
   12    11     1     1     1
SMALL
USER_CHARGES


@<TRIPOS>ATOM
      1 S1         -1.0031   -1.1821    1.2629 S.3        1 <1>        0.000
      2 S2          0.8553   -0.6081    1.5945 S.3        1 <1>        0.000
      3 S3          0.7751    1.3003    1.0280 S.3        1 <1>        0.000
      4 C1          2.1959    1.4445    0.0597 C.2        1 <1>        0.000
      5 S4          2.2207    2.1405   -1.4753 S.2        1 <1>        0.000
      6 O1          3.3486    0.9182    0.5927 O.3        1 <1>        0.000
      7 S5         -0.9135   -1.6498   -0.6754 S.3        1 <1>        0.000
      8 C3         -2.1782   -0.6574   -1.3351 C.2        1 <1>        0.000
      9 S6         -1.8955    0.6837   -2.3103 S.2        1 <1>        0.000
     10 O2         -3.4536   -0.9993   -0.9716 O.3        1 <1>        0.000
     11 H           3.1636    0.5643    1.4657 H.spc      1 <1>        0.000
     12 H          -3.4282   -1.7840   -0.4192 H.spc      1 <1>        0.000
@<TRIPOS>BOND
     1    1    2 1  
     2    1    7 1  
     3    2    3 1  
     4    3    4 1  
     5    4    5 2  
     6    4    6 1  
     7    7    8 1  
     8    8    9 2  
     9    8   10 1  
    10    6   11 1  
    11   10   12 1  
# Name:          frag3-234-3/31924
# Creation time: Sat Jun  5 12:52:27 2010


@<TRIPOS>MOLECULE
frag3-234-3/31924
   12    11     1     1     1
SMALL
USER_CHARGES


@<TRIPOS>ATOM
      1 S1         -0.3618   -0.7335    0.5708 S.3        1 <1>        0.000
      2 S2         -0.1328    1.1964    1.0062 S.3        1 <1>        0.000
      3 S3          1.1139    1.7462   -0.4253 S.3        1 <1>        0.000
      4 C1          2.6381    1.2947    0.3112 C.2        1 <1>        0.000
      5 S4          3.9564    2.3298    0.3802 S.2        1 <1>        0.000
      6 O1          2.6987    0.0493    0.8892 O.3        1 <1>        0.000
      7 S5         -2.3373   -0.8212    0.4089 S.3        1 <1>        0.000
      8 C3         -2.5167   -1.0695   -1.2947 C.2        1 <1>        0.000
      9 S6         -2.4542   -2.6229   -1.9798 S.2        1 <1>        0.000
     10 O2         -2.6527    0.0210   -2.0967 O.3        1 <1>        0.000
     11 H           1.8636   -0.4051    0.7560 H.spc      1 <1>        0.000
     12 H          -2.6709    0.8141   -1.5561 H.spc      1 <1>        0.000
@<TRIPOS>BOND
     1    1    2 1  
     2    1    7 1  
     3    2    3 1  
     4    3    4 1  
     5    4    5 2  
     6    4    6 1  
     7    7    8 1  
     8    8    9 2  
     9    8   10 1  
    10    6   11 1  
    11   10   12 1  
# Name:          frag3-234-3/31924
# Creation time: Sat Jun  5 12:52:27 2010


@<TRIPOS>MOLECULE
frag3-234-3/31924
   12    11     1     1     1
SMALL
USER_CHARGES


@<TRIPOS>ATOM
      1 S1         -1.0366   -0.0649    1.1887 S.3        1 <1>        0.000
      2 S2          0.7268   -0.1220    2.0930 S.3        1 <1>        0.000
      3 S3          1.4485    1.6440    1.5075 S.3        1 <1>        0.000
      4 C1          2.1432    1.2268   -0.0374 C.2        1 <1>        0.000
      5 S4          2.1200    2.2466   -1.3807 S.2        1 <1>        0.000
      6 O1          2.7156   -0.0189   -0.1299 O.3        1 <1>        0.000
      7 S5         -0.5411   -0.6771   -0.6472 S.3        1 <1>        0.000
      8 C3         -2.0901   -0.9276   -1.3564 C.2        1 <1>        0.000
      9 S6         -2.5744   -0.1822   -2.7939 S.2        1 <1>        0.000
     10 O2         -2.9603   -1.7343   -0.6737 O.3        1 <1>        0.000
     11 H           2.6449   -0.4660    0.7167 H.spc      1 <1>        0.000
     12 H          -2.5290   -2.0743    0.1137 H.spc      1 <1>        0.000
@<TRIPOS>BOND
     1    1    2 1  
     2    1    7 1  
     3    2    3 1  
     4    3    4 1  
     5    4    5 2  
     6    4    6 1  
     7    7    8 1  
     8    8    9 2  
     9    8   10 1  
    10    6   11 1  
    11   10   12 1  
# Name:          frag3-234-3/31924
# Creation time: Sat Jun  5 12:52:27 2010


@<TRIPOS>MOLECULE
frag3-234-3/31924
   12    11     1     1     1
SMALL
USER_CHARGES


@<TRIPOS>ATOM
      1 S1         -0.0726    1.5607   -0.3579 S.3        1 <1>        0.000
      2 S2         -1.6097    0.9583    0.7477 S.3        1 <1>        0.000
      3 S3         -2.8487    0.3746   -0.7009 S.3        1 <1>        0.000
      4 C1         -2.2256   -1.2233   -1.0199 C.2        1 <1>        0.000
      5 S4         -1.2577   -1.5922   -2.3624 S.2        1 <1>        0.000
      6 O1         -2.5135   -2.1880   -0.0981 O.3        1 <1>        0.000
      7 S5          1.2097    0.0712   -0.0686 S.3        1 <1>        0.000
      8 C3          2.6447    0.9352    0.4003 C.2        1 <1>        0.000
      9 S6          4.0574    0.1862    0.9025 S.2        1 <1>        0.000
     10 O2          2.5677    2.3076    0.3272 O.3        1 <1>        0.000
     11 H          -3.0675   -1.8149    0.5915 H.spc      1 <1>        0.000
     12 H           1.6933    2.5622    0.0235 H.spc      1 <1>        0.000
@<TRIPOS>BOND
     1    1    2 1  
     2    1    7 1  
     3    2    3 1  
     4    3    4 1  
     5    4    5 2  
     6    4    6 1  
     7    7    8 1  
     8    8    9 2  
     9    8   10 1  
    10    6   11 1  
    11   10   12 1  
# Name:          frag3-234-3/31924
# Creation time: Sat Jun  5 12:52:27 2010


@<TRIPOS>MOLECULE
frag3-234-3/31924
   12    11     1     1     1
SMALL
USER_CHARGES


@<TRIPOS>ATOM
      1 S1          0.5576   -0.5433    0.7564 S.3        1 <1>        0.000
      2 S2         -1.0881    0.5572    0.8771 S.3        1 <1>        0.000
      3 S3         -2.4877   -0.8120    0.5946 S.3        1 <1>        0.000
      4 C1         -2.5498   -0.8653   -1.1303 C.2        1 <1>        0.000
      5 S4         -1.4022   -1.6493   -2.1013 S.2        1 <1>        0.000
      6 O1         -3.5532   -0.1574   -1.7291 O.3        1 <1>        0.000
      7 S5          1.5275    0.2855   -0.7596 S.3        1 <1>        0.000
      8 C3          2.6862    1.2274    0.1198 C.2        1 <1>        0.000
      9 S6          2.2907    2.5810    1.0446 S.2        1 <1>        0.000
     10 O2          3.9706    0.7668    0.0979 O.3        1 <1>        0.000
     11 H          -4.1190    0.2261   -1.0551 H.spc      1 <1>        0.000
     12 H           4.0234   -0.0037   -0.4724 H.spc      1 <1>        0.000
@<TRIPOS>BOND
     1    1    2 1  
     2    1    7 1  
     3    2    3 1  
     4    3    4 1  
     5    4    5 2  
     6    4    6 1  
     7    7    8 1  
     8    8    9 2  
     9    8   10 1  
    10    6   11 1  
    11   10   12 1  
# Name:          frag3-234-3/31924
# Creation time: Sat Jun  5 12:52:27 2010


@<TRIPOS>MOLECULE
frag3-234-3/31924
   12    11     1     1     1
SMALL
USER_CHARGES


@<TRIPOS>ATOM
      1 S1          0.4886    0.1655    1.9341 S.3        1 <1>        0.000
      2 S2         -1.2976   -0.5228    1.5185 S.3        1 <1>        0.000
      3 S3         -1.8385    0.6241   -0.0122 S.3        1 <1>        0.000
      4 C1         -2.0838   -0.5061   -1.2769 C.2        1 <1>        0.000
      5 S4         -1.3652   -0.4398   -2.7922 S.2        1 <1>        0.000
      6 O1         -2.9138   -1.5649   -0.9704 O.3        1 <1>        0.000
      7 S5          1.5690   -0.5247    0.3922 S.3        1 <1>        0.000
      8 C3          2.3045    0.9119   -0.1812 C.2        1 <1>        0.000
      9 S6          1.4277    2.2656   -0.7174 S.2        1 <1>        0.000
     10 O2          3.6608    0.9816   -0.1245 O.3        1 <1>        0.000
     11 H          -3.2450   -1.4617   -0.0753 H.spc      1 <1>        0.000
     12 H           4.0100    0.1463    0.1948 H.spc      1 <1>        0.000
@<TRIPOS>BOND
     1    1    2 1  
     2    1    7 1  
     3    2    3 1  
     4    3    4 1  
     5    4    5 2  
     6    4    6 1  
     7    7    8 1  
     8    8    9 2  
     9    8   10 1  
    10    6   11 1  
    11   10   12 1  
# Name:          frag3-234-3/31924
# Creation time: Sat Jun  5 12:52:27 2010


@<TRIPOS>MOLECULE
frag3-234-3/31924
   12    11     1     1     1
SMALL
USER_CHARGES


@<TRIPOS>ATOM
      1 S1         -1.4169    0.7730    0.6501 S.3        1 <1>        0.000
      2 S2          0.3479    0.0580    1.1702 S.3        1 <1>        0.000
      3 S3          1.4489    0.4402   -0.4489 S.3        1 <1>        0.000
      4 C1          2.8163    1.1757    0.2983 C.2        1 <1>        0.000
      5 S4          2.7073    2.6172    1.1993 S.2        1 <1>        0.000
      6 O1          4.0060    0.5286    0.2050 O.3        1 <1>        0.000
      7 S5         -2.4031   -0.9194    0.3538 S.3        1 <1>        0.000
      8 C3         -2.4716   -1.0211   -1.3733 C.2        1 <1>        0.000
      9 S6         -3.0994   -2.3297   -2.2189 S.2        1 <1>        0.000
     10 O2         -1.9838    0.0679   -2.0655 O.3        1 <1>        0.000
     11 H           3.8991   -0.2593   -0.3329 H.spc      1 <1>        0.000
     12 H          -1.6639    0.7245   -1.4425 H.spc      1 <1>        0.000
@<TRIPOS>BOND
     1    1    2 1  
     2    1    7 1  
     3    2    3 1  
     4    3    4 1  
     5    4    5 2  
     6    4    6 1  
     7    7    8 1  
     8    8    9 2  
     9    8   10 1  
    10    6   11 1  
    11   10   12 1  
# Name:          frag3-234-3/31924
# Creation time: Sat Jun  5 12:52:27 2010


@<TRIPOS>MOLECULE
frag3-234-3/31924
   12    11     1     1     1
SMALL
USER_CHARGES


@<TRIPOS>ATOM
      1 S1         -0.8845    1.3064   -0.7271 S.3        1 <1>        0.000
      2 S2          0.7534    0.4453   -1.4995 S.3        1 <1>        0.000
      3 S3          2.1481    1.6668   -0.8059 S.3        1 <1>        0.000
      4 C1          2.3861    0.9791    0.7857 C.2        1 <1>        0.000
      5 S4          2.7324    1.9110    2.1532 S.2        1 <1>        0.000
      6 O1          2.2632   -0.3810    0.8897 O.3        1 <1>        0.000
      7 S5         -2.2881    0.2882   -1.6822 S.3        1 <1>        0.000
      8 C3         -2.3539   -1.1528   -0.6878 C.2        1 <1>        0.000
      9 S6         -2.7668   -2.6758   -1.2923 S.2        1 <1>        0.000
     10 O2         -2.0382   -0.9969    0.6362 O.3        1 <1>        0.000
     11 H           2.0673   -0.7505    0.0256 H.spc      1 <1>        0.000
     12 H          -1.8304   -0.0756    0.8081 H.spc      1 <1>        0.000
@<TRIPOS>BOND
     1    1    2 1  
     2    1    7 1  
     3    2    3 1  
     4    3    4 1  
     5    4    5 2  
     6    4    6 1  
     7    7    8 1  
     8    8    9 2  
     9    8   10 1  
    10    6   11 1  
    11   10   12 1  
# Name:          frag3-234-3/31924
# Creation time: Sat Jun  5 12:52:27 2010


@<TRIPOS>MOLECULE
frag3-234-3/31924
   12    11     1     1     1
SMALL
USER_CHARGES


@<TRIPOS>ATOM
      1 S1         -0.0235    1.3277    0.0657 S.3        1 <1>        0.000
      2 S2         -1.4380    0.3416    1.0464 S.3        1 <1>        0.000
      3 S3         -2.8405    0.2815   -0.3493 S.3        1 <1>        0.000
      4 C1         -2.3285   -1.0840   -1.3001 C.2        1 <1>        0.000
      5 S4         -2.7920   -1.3482   -2.8956 S.2        1 <1>        0.000
      6 O1         -1.4904   -1.9801   -0.6741 O.3        1 <1>        0.000
      7 S5          1.4370   -0.0276    0.0131 S.3        1 <1>        0.000
      8 C3          2.7633    0.9466    0.5356 C.2        1 <1>        0.000
      9 S6          3.3748    2.2063   -0.4368 S.2        1 <1>        0.000
     10 O2          3.2893    0.7265    1.7651 O.3        1 <1>        0.000
     11 H          -1.3241   -1.6868    0.2247 H.spc      1 <1>        0.000
     12 H           2.8365   -0.0125    2.1780 H.spc      1 <1>        0.000
@<TRIPOS>BOND
     1    1    2 1  
     2    1    7 1  
     3    2    3 1  
     4    3    4 1  
     5    4    5 2  
     6    4    6 1  
     7    7    8 1  
     8    8    9 2  
     9    8   10 1  
    10    6   11 1  
    11   10   12 1  
# Name:          frag3-234-3/31924
# Creation time: Sat Jun  5 12:52:27 2010


@<TRIPOS>MOLECULE
frag3-234-3/31924
   12    11     1     1     1
SMALL
USER_CHARGES


@<TRIPOS>ATOM
      1 S1          0.2288    2.2167   -0.5332 S.3        1 <1>        0.000
      2 S2         -1.0590    1.0366    0.3988 S.3        1 <1>        0.000
      3 S3         -2.1697    0.4339   -1.1314 S.3        1 <1>        0.000
      4 C1         -2.1849   -1.2754   -0.9524 C.2        1 <1>        0.000
      5 S4         -2.5359   -2.3613   -2.1816 S.2        1 <1>        0.000
      6 O1         -1.8739   -1.7508    0.3076 O.3        1 <1>        0.000
      7 S5          1.6168    0.8700   -1.0422 S.3        1 <1>        0.000
      8 C3          2.4024    0.7060    0.5142 C.2        1 <1>        0.000
      9 S6          3.3016    1.9697    1.1903 S.2        1 <1>        0.000
     10 O2          2.2254   -0.4549    1.1998 O.3        1 <1>        0.000
     11 H          -1.6997   -1.0107    0.8937 H.spc      1 <1>        0.000
     12 H           1.6952   -1.0582    0.6739 H.spc      1 <1>        0.000
@<TRIPOS>BOND
     1    1    2 1  
     2    1    7 1  
     3    2    3 1  
     4    3    4 1  
     5    4    5 2  
     6    4    6 1  
     7    7    8 1  
     8    8    9 2  
     9    8   10 1  
    10    6   11 1  
    11   10   12 1  
# Name:          frag3-234-3/31924
# Creation time: Sat Jun  5 12:52:27 2010


@<TRIPOS>MOLECULE
frag3-234-3/31924
   12    11     1     1     1
SMALL
USER_CHARGES


@<TRIPOS>ATOM
      1 S1          0.7375   -0.8888    1.0044 S.3        1 <1>        0.000
      2 S2         -1.1581   -1.3552    1.3394 S.3        1 <1>        0.000
      3 S3         -1.6642   -2.0074   -0.4752 S.3        1 <1>        0.000
      4 C1         -2.0974   -0.5091   -1.2582 C.2        1 <1>        0.000
      5 S4         -1.7792   -0.1789   -2.8826 S.2        1 <1>        0.000
      6 O1         -2.7109    0.4336   -0.4719 O.3        1 <1>        0.000
      7 S5          0.5708    1.0170    0.4460 S.3        1 <1>        0.000
      8 C3          2.2128    1.4477    0.1375 C.2        1 <1>        0.000
      9 S6          2.6787    2.9243   -0.5276 S.2        1 <1>        0.000
     10 O2          3.1615    0.5072    0.4583 O.3        1 <1>        0.000
     11 H          -2.8162    0.0876    0.4173 H.spc      1 <1>        0.000
     12 H           2.7304   -0.2690    0.8233 H.spc      1 <1>        0.000
@<TRIPOS>BOND
     1    1    2 1  
     2    1    7 1  
     3    2    3 1  
     4    3    4 1  
     5    4    5 2  
     6    4    6 1  
     7    7    8 1  
     8    8    9 2  
     9    8   10 1  
    10    6   11 1  
    11   10   12 1  
# Name:          frag3-234-3/31924
# Creation time: Sat Jun  5 12:52:27 2010


@<TRIPOS>MOLECULE
frag3-234-3/31924
   12    11     1     1     1
SMALL
USER_CHARGES


@<TRIPOS>ATOM
      1 S1         -0.5274    0.7798   -2.2097 S.3        1 <1>        0.000
      2 S2          0.1305    2.0872   -0.8868 S.3        1 <1>        0.000
      3 S3          2.0242    1.6212   -0.6714 S.3        1 <1>        0.000
      4 C1          1.9363    0.4106    0.5345 C.2        1 <1>        0.000
      5 S4          1.1659    0.6677    2.0261 S.2        1 <1>        0.000
      6 O1          2.4434   -0.8230    0.2812 O.3        1 <1>        0.000
      7 S5         -2.2786    0.2654   -1.5044 S.3        1 <1>        0.000
      8 C3         -1.8343   -0.8316   -0.2607 C.2        1 <1>        0.000
      9 S6         -1.1307   -2.3366   -0.5784 S.2        1 <1>        0.000
     10 O2         -1.9777   -0.4502    1.0396 O.3        1 <1>        0.000
     11 H           2.8476   -0.8290   -0.5896 H.spc      1 <1>        0.000
     12 H          -2.3875    0.4173    1.0741 H.spc      1 <1>        0.000
@<TRIPOS>BOND
     1    1    2 1  
     2    1    7 1  
     3    2    3 1  
     4    3    4 1  
     5    4    5 2  
     6    4    6 1  
     7    7    8 1  
     8    8    9 2  
     9    8   10 1  
    10    6   11 1  
    11   10   12 1  
# Name:          frag3-234-3/31924
# Creation time: Sat Jun  5 12:52:27 2010


@<TRIPOS>MOLECULE
frag3-234-3/31924
   12    11     1     1     1
SMALL
USER_CHARGES


@<TRIPOS>ATOM
      1 S1          1.0906   -0.6239    1.6525 S.3        1 <1>        0.000
      2 S2         -0.8385   -0.7264    1.2226 S.3        1 <1>        0.000
      3 S3         -0.8024   -1.5118   -0.6005 S.3        1 <1>        0.000
      4 C1         -2.2333   -0.8518   -1.3015 C.2        1 <1>        0.000
      5 S4         -2.3495   -0.3805   -2.9168 S.2        1 <1>        0.000
      6 O1         -3.3057   -0.6892   -0.4593 O.3        1 <1>        0.000
      7 S5          1.3689    1.3387    1.5547 S.3        1 <1>        0.000
      8 C3          2.0868    1.5159   -0.0194 C.2        1 <1>        0.000
      9 S6          3.1523    2.7630   -0.4097 S.2        1 <1>        0.000
     10 O2          1.7823    0.5563   -0.9525 O.3        1 <1>        0.000
     11 H          -3.0739   -1.0057    0.4169 H.spc      1 <1>        0.000
     12 H           1.1668   -0.0746   -0.5720 H.spc      1 <1>        0.000
@<TRIPOS>BOND
     1    1    2 1  
     2    1    7 1  
     3    2    3 1  
     4    3    4 1  
     5    4    5 2  
     6    4    6 1  
     7    7    8 1  
     8    8    9 2  
     9    8   10 1  
    10    6   11 1  
    11   10   12 1  
# Name:          frag3-234-3/31924
# Creation time: Sat Jun  5 12:52:27 2010


@<TRIPOS>MOLECULE
frag3-234-3/31924
   12    11     1     1     1
SMALL
USER_CHARGES


@<TRIPOS>ATOM
      1 S1         -0.0116    0.3821    1.2047 S.3        1 <1>        0.000
      2 S2         -1.3151    1.3432    0.0605 S.3        1 <1>        0.000
      3 S3         -2.7646    0.0005    0.0104 S.3        1 <1>        0.000
      4 C1         -2.2339   -1.0490   -1.2600 C.2        1 <1>        0.000
      5 S4         -3.1321   -1.3388   -2.6519 S.2        1 <1>        0.000
      6 O1         -0.9842   -1.6110   -1.1391 O.3        1 <1>        0.000
      7 S5          1.3935   -0.1498   -0.1024 S.3        1 <1>        0.000
      8 C3          2.6677    0.9076    0.3953 C.2        1 <1>        0.000
      9 S6          2.5838    2.5902    0.2764 S.2        1 <1>        0.000
     10 O2          3.7480    0.3153    0.9760 O.3        1 <1>        0.000
     11 H          -0.6000   -1.3560   -0.2971 H.spc      1 <1>        0.000
     12 H           3.6353   -0.6380    0.9612 H.spc      1 <1>        0.000
@<TRIPOS>BOND
     1    1    2 1  
     2    1    7 1  
     3    2    3 1  
     4    3    4 1  
     5    4    5 2  
     6    4    6 1  
     7    7    8 1  
     8    8    9 2  
     9    8   10 1  
    10    6   11 1  
    11   10   12 1  
# Name:          frag3-234-3/31924
# Creation time: Sat Jun  5 12:52:27 2010


@<TRIPOS>MOLECULE
frag3-234-3/31924
   12    11     1     1     1
SMALL
USER_CHARGES


@<TRIPOS>ATOM
      1 S1          0.2967    1.0504   -0.6965 S.3        1 <1>        0.000
      2 S2         -0.8644    0.1727    0.6730 S.3        1 <1>        0.000
      3 S3         -2.6128    0.2879   -0.2327 S.3        1 <1>        0.000
      4 C1         -2.5371   -1.1031   -1.2787 C.2        1 <1>        0.000
      5 S4         -3.8780   -2.0593   -1.6351 S.2        1 <1>        0.000
      6 O1         -1.3037   -1.4403   -1.7828 O.3        1 <1>        0.000
      7 S5          1.9936    0.0586   -0.4231 S.3        1 <1>        0.000
      8 C3          2.7335    1.1009    0.7604 C.2        1 <1>        0.000
      9 S6          3.3790    2.6157    0.3262 S.2        1 <1>        0.000
     10 O2          2.7448    0.7069    2.0593 O.3        1 <1>        0.000
     11 H          -0.6528   -0.7989   -1.4886 H.spc      1 <1>        0.000
     12 H           2.3470   -0.1638    2.1319 H.spc      1 <1>        0.000
@<TRIPOS>BOND
     1    1    2 1  
     2    1    7 1  
     3    2    3 1  
     4    3    4 1  
     5    4    5 2  
     6    4    6 1  
     7    7    8 1  
     8    8    9 2  
     9    8   10 1  
    10    6   11 1  
    11   10   12 1  
# Name:          frag3-234-3/31924
# Creation time: Sat Jun  5 12:52:27 2010


@<TRIPOS>MOLECULE
frag3-234-3/31924
   12    11     1     1     1
SMALL
USER_CHARGES


@<TRIPOS>ATOM
      1 S1         -0.6013    0.9320   -1.2941 S.3        1 <1>        0.000
      2 S2          0.6976   -0.3412   -0.5215 S.3        1 <1>        0.000
      3 S3          1.0598    0.5108    1.2525 S.3        1 <1>        0.000
      4 C1          2.5729    1.2275    0.9254 C.2        1 <1>        0.000
      5 S4          2.8690    2.3170   -0.3404 S.2        1 <1>        0.000
      6 O1          3.6265    0.8047    1.6765 O.3        1 <1>        0.000
      7 S5         -2.1947    0.4321   -0.1956 S.3        1 <1>        0.000
      8 C3         -2.5842   -1.0827   -0.9522 C.2        1 <1>        0.000
      9 S6         -3.1738   -1.1797   -2.5226 S.2        1 <1>        0.000
     10 O2         -2.3201   -2.2302   -0.2579 O.3        1 <1>        0.000
     11 H           3.3140    0.1965    2.3504 H.spc      1 <1>        0.000
     12 H          -1.9924   -2.0058    0.6161 H.spc      1 <1>        0.000
@<TRIPOS>BOND
     1    1    2 1  
     2    1    7 1  
     3    2    3 1  
     4    3    4 1  
     5    4    5 2  
     6    4    6 1  
     7    7    8 1  
     8    8    9 2  
     9    8   10 1  
    10    6   11 1  
    11   10   12 1  
# Name:          frag3-234-3/31924
# Creation time: Sat Jun  5 12:52:27 2010


@<TRIPOS>MOLECULE
frag3-234-3/31924
   12    11     1     1     1
SMALL
USER_CHARGES


@<TRIPOS>ATOM
      1 S1         -0.0356    1.8789    1.4417 S.3        1 <1>        0.000
      2 S2         -1.6857    1.0618    0.7558 S.3        1 <1>        0.000
      3 S3         -1.1719   -0.8648    0.5906 S.3        1 <1>        0.000
      4 C1         -1.7359   -1.2313   -0.9945 C.2        1 <1>        0.000
      5 S4         -1.1122   -0.5146   -2.3900 S.2        1 <1>        0.000
      6 O1         -2.7936   -2.0846   -1.0789 O.3        1 <1>        0.000
      7 S5          1.0308    2.0673   -0.2207 S.3        1 <1>        0.000
      8 C3          2.1577    0.7667   -0.1093 C.2        1 <1>        0.000
      9 S6          2.5963   -0.2485   -1.3697 S.2        1 <1>        0.000
     10 O2          2.7017    0.5597    1.1449 O.3        1 <1>        0.000
     11 H          -3.0200   -2.3997   -0.2008 H.spc      1 <1>        0.000
     12 H           2.3564    1.2160    1.7545 H.spc      1 <1>        0.000
@<TRIPOS>BOND
     1    1    2 1  
     2    1    7 1  
     3    2    3 1  
     4    3    4 1  
     5    4    5 2  
     6    4    6 1  
     7    7    8 1  
     8    8    9 2  
     9    8   10 1  
    10    6   11 1  
    11   10   12 1  
# Name:          frag3-234-3/31924
# Creation time: Sat Jun  5 12:52:27 2010


@<TRIPOS>MOLECULE
frag3-234-3/31924
   12    11     1     1     1
SMALL
USER_CHARGES


@<TRIPOS>ATOM
      1 S1          0.1280    1.0996    1.8620 S.3        1 <1>        0.000
      2 S2         -1.6034    0.7462    0.9978 S.3        1 <1>        0.000
      3 S3         -1.4959   -1.1937    0.5637 S.3        1 <1>        0.000
      4 C1         -1.8492   -1.1766   -1.1237 C.2        1 <1>        0.000
      5 S4         -0.9303   -0.3088   -2.2486 S.2        1 <1>        0.000
      6 O1         -2.9670   -1.8399   -1.5204 O.3        1 <1>        0.000
      7 S5          1.0787    2.1187    0.4689 S.3        1 <1>        0.000
      8 C3          2.1825    0.9670   -0.1859 C.2        1 <1>        0.000
      9 S6          3.1320    1.2106   -1.5433 S.2        1 <1>        0.000
     10 O2          2.2762   -0.2328    0.4996 O.3        1 <1>        0.000
     11 H          -3.3648   -2.2757   -0.7631 H.spc      1 <1>        0.000
     12 H           1.6748   -0.2204    1.2478 H.spc      1 <1>        0.000
@<TRIPOS>BOND
     1    1    2 1  
     2    1    7 1  
     3    2    3 1  
     4    3    4 1  
     5    4    5 2  
     6    4    6 1  
     7    7    8 1  
     8    8    9 2  
     9    8   10 1  
    10    6   11 1  
    11   10   12 1  
# Name:          frag3-234-3/31924
# Creation time: Sat Jun  5 12:52:27 2010


@<TRIPOS>MOLECULE
frag3-234-3/31924
   12    11     1     1     1
SMALL
USER_CHARGES


@<TRIPOS>ATOM
      1 S1          0.5744    0.1159   -0.8150 S.3        1 <1>        0.000
      2 S2         -1.0556    0.7472    0.1592 S.3        1 <1>        0.000
      3 S3         -2.4111    0.4502   -1.2712 S.3        1 <1>        0.000
      4 C1         -2.5225   -1.2991   -1.1499 C.2        1 <1>        0.000
      5 S4         -3.1936   -2.0453    0.2183 S.2        1 <1>        0.000
      6 O1         -2.0051   -2.0443   -2.1591 O.3        1 <1>        0.000
      7 S5          1.6994    1.7364   -0.6611 S.3        1 <1>        0.000
      8 C3          2.6280    1.3401    0.7601 C.2        1 <1>        0.000
      9 S6          4.2099    1.8682    1.0021 S.2        1 <1>        0.000
     10 O2          2.0279    0.5211    1.6868 O.3        1 <1>        0.000
     11 H          -1.6716   -1.4628   -2.8463 H.spc      1 <1>        0.000
     12 H           1.1354    0.3147    1.3995 H.spc      1 <1>        0.000
@<TRIPOS>BOND
     1    1    2 1  
     2    1    7 1  
     3    2    3 1  
     4    3    4 1  
     5    4    5 2  
     6    4    6 1  
     7    7    8 1  
     8    8    9 2  
     9    8   10 1  
    10    6   11 1  
    11   10   12 1  
# Name:          frag3-234-3/31924
# Creation time: Sat Jun  5 12:52:27 2010


@<TRIPOS>MOLECULE
frag3-234-3/31924
   12    11     1     1     1
SMALL
USER_CHARGES


@<TRIPOS>ATOM
      1 S1         -0.9675    1.2178   -1.6982 S.3        1 <1>        0.000
      2 S2         -0.2494    2.2483   -0.1579 S.3        1 <1>        0.000
      3 S3          1.6852    2.0784   -0.4359 S.3        1 <1>        0.000
      4 C1          2.0334    0.5940    0.3840 C.2        1 <1>        0.000
      5 S4          3.3613    0.3765    1.3892 S.2        1 <1>        0.000
      6 O1          1.1241   -0.4307    0.2371 O.3        1 <1>        0.000
      7 S5         -2.5058    0.2888   -0.8688 S.3        1 <1>        0.000
      8 C3         -1.7627   -1.2039   -0.4125 C.2        1 <1>        0.000
      9 S6         -1.1320   -2.2784   -1.5742 S.2        1 <1>        0.000
     10 O2         -1.6351   -1.5004    0.9072 O.3        1 <1>        0.000
     11 H           0.4281   -0.1556   -0.3641 H.spc      1 <1>        0.000
     12 H          -2.0375   -0.8037    1.4309 H.spc      1 <1>        0.000
@<TRIPOS>BOND
     1    1    2 1  
     2    1    7 1  
     3    2    3 1  
     4    3    4 1  
     5    4    5 2  
     6    4    6 1  
     7    7    8 1  
     8    8    9 2  
     9    8   10 1  
    10    6   11 1  
    11   10   12 1  
# Name:          frag3-234-3/31924
# Creation time: Sat Jun  5 12:52:28 2010


@<TRIPOS>MOLECULE
frag3-234-3/31924
   12    11     1     1     1
SMALL
USER_CHARGES


@<TRIPOS>ATOM
      1 S1          0.4996   -0.1398    1.2605 S.3        1 <1>        0.000
      2 S2         -1.2588    0.3165    0.4766 S.3        1 <1>        0.000
      3 S3         -1.0582   -0.4340   -1.3567 S.3        1 <1>        0.000
      4 C1         -2.5589   -1.2853   -1.4981 C.2        1 <1>        0.000
      5 S4         -3.8927   -0.6159   -2.3085 S.2        1 <1>        0.000
      6 O1         -2.6682   -2.4975   -0.8869 O.3        1 <1>        0.000
      7 S5          1.3023    1.6751    1.4134 S.3        1 <1>        0.000
      8 C3          2.7793    1.4780    0.5297 C.2        1 <1>        0.000
      9 S6          3.2102    2.4382   -0.7924 S.2        1 <1>        0.000
     10 O2          3.5970    0.4552    0.9326 O.3        1 <1>        0.000
     11 H          -1.8293   -2.7263   -0.4800 H.spc      1 <1>        0.000
     12 H           3.2066    0.0147    1.6910 H.spc      1 <1>        0.000
@<TRIPOS>BOND
     1    1    2 1  
     2    1    7 1  
     3    2    3 1  
     4    3    4 1  
     5    4    5 2  
     6    4    6 1  
     7    7    8 1  
     8    8    9 2  
     9    8   10 1  
    10    6   11 1  
    11   10   12 1  
# Name:          frag3-234-3/31924
# Creation time: Sat Jun  5 12:52:28 2010


@<TRIPOS>MOLECULE
frag3-234-3/31924
   12    11     1     1     1
SMALL
USER_CHARGES


@<TRIPOS>ATOM
      1 S1         -0.8507    0.6999    0.4388 S.3        1 <1>        0.000
      2 S2          0.5660   -0.7074    0.6209 S.3        1 <1>        0.000
      3 S3          1.9426    0.0000   -0.5991 S.3        1 <1>        0.000
      4 C1          2.5172    1.3575    0.3408 C.2        1 <1>        0.000
      5 S4          3.4007    2.6375   -0.2999 S.2        1 <1>        0.000
      6 O1          2.2072    1.3447    1.6830 O.3        1 <1>        0.000
      7 S5         -2.4684   -0.4473    0.5023 S.3        1 <1>        0.000
      8 C3         -2.4528   -1.0664   -1.1278 C.2        1 <1>        0.000
      9 S6         -2.8183   -0.0690   -2.4586 S.2        1 <1>        0.000
     10 O2         -2.0919   -2.3591   -1.3303 O.3        1 <1>        0.000
     11 H           1.7041    0.5528    1.8865 H.spc      1 <1>        0.000
     12 H          -1.9213   -2.7789   -0.4840 H.spc      1 <1>        0.000
@<TRIPOS>BOND
     1    1    2 1  
     2    1    7 1  
     3    2    3 1  
     4    3    4 1  
     5    4    5 2  
     6    4    6 1  
     7    7    8 1  
     8    8    9 2  
     9    8   10 1  
    10    6   11 1  
    11   10   12 1  
# Name:          frag3-234-3/31924
# Creation time: Sat Jun  5 12:52:28 2010


@<TRIPOS>MOLECULE
frag3-234-3/31924
   12    11     1     1     1
SMALL
USER_CHARGES


@<TRIPOS>ATOM
      1 S1          0.0250    1.3387   -0.5271 S.3        1 <1>        0.000
      2 S2         -1.7720    1.1460    0.2793 S.3        1 <1>        0.000
      3 S3         -1.7897   -0.8266    0.6087 S.3        1 <1>        0.000
      4 C1         -2.3154   -1.3672   -0.9591 C.2        1 <1>        0.000
      5 S4         -1.2692   -1.9892   -2.1368 S.2        1 <1>        0.000
      6 O1         -3.6443   -1.2148   -1.2424 O.3        1 <1>        0.000
      7 S5          1.1585    1.2184    1.1224 S.3        1 <1>        0.000
      8 C3          2.7212    1.0134    0.4405 C.2        1 <1>        0.000
      9 S6          3.6639    2.3293   -0.0731 S.2        1 <1>        0.000
     10 O2          3.1736   -0.2576    0.2576 O.3        1 <1>        0.000
     11 H          -4.0945   -0.8538   -0.4752 H.spc      1 <1>        0.000
     12 H           2.5269   -0.8787    0.6005 H.spc      1 <1>        0.000
@<TRIPOS>BOND
     1    1    2 1  
     2    1    7 1  
     3    2    3 1  
     4    3    4 1  
     5    4    5 2  
     6    4    6 1  
     7    7    8 1  
     8    8    9 2  
     9    8   10 1  
    10    6   11 1  
    11   10   12 1  
# Name:          frag3-234-3/31924
# Creation time: Sat Jun  5 12:52:28 2010


@<TRIPOS>MOLECULE
frag3-234-3/31924
   12    11     1     1     1
SMALL
USER_CHARGES


@<TRIPOS>ATOM
      1 S1         -1.4282    1.4754   -1.2344 S.3        1 <1>        0.000
      2 S2          0.2618    2.4018   -0.9318 S.3        1 <1>        0.000
      3 S3          1.5933    0.9657   -1.2896 S.3        1 <1>        0.000
      4 C1          2.0433    0.4869    0.2889 C.2        1 <1>        0.000
      5 S4          2.9599    1.4840    1.3038 S.2        1 <1>        0.000
      6 O1          1.5917   -0.6985    0.7818 O.3        1 <1>        0.000
      7 S5         -1.6431    0.3392    0.3903 S.3        1 <1>        0.000
      8 C3         -1.8001   -1.2229   -0.2596 C.2        1 <1>        0.000
      9 S6         -0.6085   -2.0234   -1.1534 S.2        1 <1>        0.000
     10 O2         -3.0184   -1.8178   -0.1261 O.3        1 <1>        0.000
     11 H           1.0909   -1.1562    0.1026 H.spc      1 <1>        0.000
     12 H          -3.5914   -1.2563    0.4012 H.spc      1 <1>        0.000
@<TRIPOS>BOND
     1    1    2 1  
     2    1    7 1  
     3    2    3 1  
     4    3    4 1  
     5    4    5 2  
     6    4    6 1  
     7    7    8 1  
     8    8    9 2  
     9    8   10 1  
    10    6   11 1  
    11   10   12 1  
# Name:          frag3-234-3/31924
# Creation time: Sat Jun  5 12:52:28 2010


@<TRIPOS>MOLECULE
frag3-234-3/31924
   12    11     1     1     1
SMALL
USER_CHARGES


@<TRIPOS>ATOM
      1 S1         -0.1060    1.9956    0.8475 S.3        1 <1>        0.000
      2 S2         -1.5654    0.6685    1.0072 S.3        1 <1>        0.000
      3 S3         -2.1839    0.5225   -0.8655 S.3        1 <1>        0.000
      4 C1         -1.9618   -1.1688   -1.1924 C.2        1 <1>        0.000
      5 S4         -1.4958   -1.7813   -2.6811 S.2        1 <1>        0.000
      6 O1         -2.1832   -2.0121   -0.1271 O.3        1 <1>        0.000
      7 S5          1.4227    0.9617    1.5834 S.3        1 <1>        0.000
      8 C3          2.3714    0.7225    0.1536 C.2        1 <1>        0.000
      9 S6          3.4923    1.8850   -0.3753 S.2        1 <1>        0.000
     10 O2          2.1614   -0.4032   -0.5802 O.3        1 <1>        0.000
     11 H          -2.4409   -1.4958    0.6401 H.spc      1 <1>        0.000
     12 H           1.5032   -0.9496   -0.1446 H.spc      1 <1>        0.000
@<TRIPOS>BOND
     1    1    2 1  
     2    1    7 1  
     3    2    3 1  
     4    3    4 1  
     5    4    5 2  
     6    4    6 1  
     7    7    8 1  
     8    8    9 2  
     9    8   10 1  
    10    6   11 1  
    11   10   12 1  
# Name:          frag3-234-3/31924
# Creation time: Sat Jun  5 12:52:28 2010


@<TRIPOS>MOLECULE
frag3-234-3/31924
   12    11     1     1     1
SMALL
USER_CHARGES


@<TRIPOS>ATOM
      1 S1          0.3938    0.0716    1.4863 S.3        1 <1>        0.000
      2 S2         -1.5754   -0.0527    1.3811 S.3        1 <1>        0.000
      3 S3         -1.7707   -1.6898    0.2539 S.3        1 <1>        0.000
      4 C1         -2.2450   -0.9863   -1.2602 C.2        1 <1>        0.000
      5 S4         -1.1760   -0.7532   -2.5545 S.2        1 <1>        0.000
      6 O1         -3.5403   -0.5647   -1.3596 O.3        1 <1>        0.000
      7 S5          0.7918    1.2427   -0.0748 S.3        1 <1>        0.000
      8 C3          2.5131    1.2951   -0.0499 C.2        1 <1>        0.000
      9 S6          3.3973    2.7272   -0.1806 S.2        1 <1>        0.000
     10 O2          3.1630    0.1005    0.1284 O.3        1 <1>        0.000
     11 H          -4.0063   -0.7715   -0.5462 H.spc      1 <1>        0.000
     12 H           2.5180   -0.6084    0.1827 H.spc      1 <1>        0.000
@<TRIPOS>BOND
     1    1    2 1  
     2    1    7 1  
     3    2    3 1  
     4    3    4 1  
     5    4    5 2  
     6    4    6 1  
     7    7    8 1  
     8    8    9 2  
     9    8   10 1  
    10    6   11 1  
    11   10   12 1  
# Name:          frag3-234-3/31924
# Creation time: Sat Jun  5 12:52:28 2010


@<TRIPOS>MOLECULE
frag3-234-3/31924
   12    11     1     1     1
SMALL
USER_CHARGES


@<TRIPOS>ATOM
      1 S1         -1.1488    0.3288    0.7106 S.3        1 <1>        0.000
      2 S2          0.5369   -0.7063    0.6202 S.3        1 <1>        0.000
      3 S3          1.7390    0.3611    1.7702 S.3        1 <1>        0.000
      4 C1          2.6154    1.2677    0.5888 C.2        1 <1>        0.000
      5 S4          1.9097    2.3960   -0.4470 S.2        1 <1>        0.000
      6 O1          3.9376    0.9589    0.4580 O.3        1 <1>        0.000
      7 S5         -1.5479    0.6186   -1.2002 S.3        1 <1>        0.000
      8 C3         -2.3891   -0.8526   -1.5378 C.2        1 <1>        0.000
      9 S6         -3.9651   -1.1383   -0.9804 S.2        1 <1>        0.000
     10 O2         -1.7361   -1.8435   -2.2124 O.3        1 <1>        0.000
     11 H           4.1794    0.3058    1.1187 H.spc      1 <1>        0.000
     12 H          -0.8616   -1.5363   -2.4623 H.spc      1 <1>        0.000
@<TRIPOS>BOND
     1    1    2 1  
     2    1    7 1  
     3    2    3 1  
     4    3    4 1  
     5    4    5 2  
     6    4    6 1  
     7    7    8 1  
     8    8    9 2  
     9    8   10 1  
    10    6   11 1  
    11   10   12 1  
# Name:          frag3-234-3/31924
# Creation time: Sat Jun  5 12:52:28 2010


@<TRIPOS>MOLECULE
frag3-234-3/31924
   12    11     1     1     1
SMALL
USER_CHARGES


@<TRIPOS>ATOM
      1 S1         -1.1740    0.5646    0.1303 S.3        1 <1>        0.000
      2 S2          0.6748   -0.1627    0.1549 S.3        1 <1>        0.000
      3 S3          1.6755    1.4577   -0.4455 S.3        1 <1>        0.000
      4 C1          2.9507    1.4956    0.7335 C.2        1 <1>        0.000
      5 S4          3.6848    2.9254    1.2550 S.2        1 <1>        0.000
      6 O1          3.3450    0.2877    1.2475 O.3        1 <1>        0.000
      7 S5         -1.7201   -0.0418   -1.6925 S.3        1 <1>        0.000
      8 C3         -2.8084   -1.3500   -1.2746 C.2        1 <1>        0.000
      9 S6         -4.0528   -1.8539   -2.2903 S.2        1 <1>        0.000
     10 O2         -2.6237   -1.9322   -0.0483 O.3        1 <1>        0.000
     11 H           2.8286   -0.4142    0.8446 H.spc      1 <1>        0.000
     12 H          -1.8741   -1.5224    0.3896 H.spc      1 <1>        0.000
@<TRIPOS>BOND
     1    1    2 1  
     2    1    7 1  
     3    2    3 1  
     4    3    4 1  
     5    4    5 2  
     6    4    6 1  
     7    7    8 1  
     8    8    9 2  
     9    8   10 1  
    10    6   11 1  
    11   10   12 1  
# Name:          frag3-234-3/31924
# Creation time: Sat Jun  5 12:52:28 2010


@<TRIPOS>MOLECULE
frag3-234-3/31924
   12    11     1     1     1
SMALL
USER_CHARGES


@<TRIPOS>ATOM
      1 S1          0.2813   -0.0084    0.7069 S.3        1 <1>        0.000
      2 S2         -1.6161    0.5694    0.7911 S.3        1 <1>        0.000
      3 S3         -2.0670    0.4623   -1.1529 S.3        1 <1>        0.000
      4 C1         -2.4951   -1.2290   -1.2600 C.2        1 <1>        0.000
      5 S4         -2.1655   -2.1853   -2.6135 S.2        1 <1>        0.000
      6 O1         -3.1162   -1.7728   -0.1659 O.3        1 <1>        0.000
      7 S5          1.1411    1.7357    0.2438 S.3        1 <1>        0.000
      8 C3          2.8197    1.3338    0.3543 C.2        1 <1>        0.000
      9 S6          4.0204    2.4679    0.7052 S.2        1 <1>        0.000
     10 O2          3.1490    0.0168    0.1612 O.3        1 <1>        0.000
     11 H          -3.2261   -1.0970    0.5070 H.spc      1 <1>        0.000
     12 H           2.3535   -0.4865   -0.0272 H.spc      1 <1>        0.000
@<TRIPOS>BOND
     1    1    2 1  
     2    1    7 1  
     3    2    3 1  
     4    3    4 1  
     5    4    5 2  
     6    4    6 1  
     7    7    8 1  
     8    8    9 2  
     9    8   10 1  
    10    6   11 1  
    11   10   12 1  
# Name:          frag3-234-3/31924
# Creation time: Sat Jun  5 12:52:28 2010


@<TRIPOS>MOLECULE
frag3-234-3/31924
   12    11     1     1     1
SMALL
USER_CHARGES


@<TRIPOS>ATOM
      1 S1          0.7991   -0.3994   -0.4910 S.3        1 <1>        0.000
      2 S2         -0.7979    0.0866    0.6167 S.3        1 <1>        0.000
      3 S3         -2.1052    0.5023   -0.8081 S.3        1 <1>        0.000
      4 C1         -2.6698   -1.1107   -1.1830 C.2        1 <1>        0.000
      5 S4         -3.4162   -1.5145   -2.6426 S.2        1 <1>        0.000
      6 O1         -2.4761   -2.0675   -0.2196 O.3        1 <1>        0.000
      7 S5          2.2288   -0.1515    0.8545 S.3        1 <1>        0.000
      8 C3          2.6164    1.5349    0.6103 C.2        1 <1>        0.000
      9 S6          4.1491    2.1733    0.9210 S.2        1 <1>        0.000
     10 O2          1.6235    2.3367    0.1118 O.3        1 <1>        0.000
     11 H          -2.0423   -1.6719    0.5400 H.spc      1 <1>        0.000
     12 H           0.8238    1.8186   -0.0051 H.spc      1 <1>        0.000
@<TRIPOS>BOND
     1    1    2 1  
     2    1    7 1  
     3    2    3 1  
     4    3    4 1  
     5    4    5 2  
     6    4    6 1  
     7    7    8 1  
     8    8    9 2  
     9    8   10 1  
    10    6   11 1  
    11   10   12 1  
# Name:          frag3-234-3/31924
# Creation time: Sat Jun  5 12:52:28 2010


@<TRIPOS>MOLECULE
frag3-234-3/31924
   12    11     1     1     1
SMALL
USER_CHARGES


@<TRIPOS>ATOM
      1 S1         -0.2898    2.0316    0.4248 S.3        1 <1>        0.000
      2 S2         -1.3740    0.5334    1.1698 S.3        1 <1>        0.000
      3 S3         -2.6012    0.1678   -0.3177 S.3        1 <1>        0.000
      4 C1         -1.6676   -0.9373   -1.2743 C.2        1 <1>        0.000
      5 S4         -2.3192   -2.2900   -2.0296 S.2        1 <1>        0.000
      6 O1         -0.3124   -0.7050   -1.3535 O.3        1 <1>        0.000
      7 S5          1.4320    1.7536    1.3584 S.3        1 <1>        0.000
      8 C3          2.1563    0.5742    0.3112 C.2        1 <1>        0.000
      9 S6          2.6343    0.9645   -1.2756 S.2        1 <1>        0.000
     10 O2          2.2931   -0.7024    0.7564 O.3        1 <1>        0.000
     11 H          -0.0983    0.0994   -0.8752 H.spc      1 <1>        0.000
     12 H           1.9815   -0.7592    1.6627 H.spc      1 <1>        0.000
@<TRIPOS>BOND
     1    1    2 1  
     2    1    7 1  
     3    2    3 1  
     4    3    4 1  
     5    4    5 2  
     6    4    6 1  
     7    7    8 1  
     8    8    9 2  
     9    8   10 1  
    10    6   11 1  
    11   10   12 1  
# Name:          frag3-234-3/31924
# Creation time: Sat Jun  5 12:52:28 2010


@<TRIPOS>MOLECULE
frag3-234-3/31924
   12    11     1     1     1
SMALL
USER_CHARGES


@<TRIPOS>ATOM
      1 S1         -1.8978    0.7144    1.0541 S.3        1 <1>        0.000
      2 S2         -0.2644    1.7987    0.8502 S.3        1 <1>        0.000
      3 S3          1.1458    0.5976    1.5723 S.3        1 <1>        0.000
      4 C1          2.2406    0.5454    0.2558 C.2        1 <1>        0.000
      5 S4          2.8734    1.9706   -0.4355 S.2        1 <1>        0.000
      6 O1          2.5772   -0.6552   -0.2771 O.3        1 <1>        0.000
      7 S5         -2.4695    0.5112   -0.8161 S.3        1 <1>        0.000
      8 C3         -1.6212   -0.9102   -1.3175 C.2        1 <1>        0.000
      9 S6         -2.2849   -2.0990   -2.2976 S.2        1 <1>        0.000
     10 O2         -0.3477   -1.0831   -0.8186 O.3        1 <1>        0.000
     11 H           2.1456   -1.3558    0.2173 H.spc      1 <1>        0.000
     12 H          -0.1104   -0.3245   -0.2803 H.spc      1 <1>        0.000
@<TRIPOS>BOND
     1    1    2 1  
     2    1    7 1  
     3    2    3 1  
     4    3    4 1  
     5    4    5 2  
     6    4    6 1  
     7    7    8 1  
     8    8    9 2  
     9    8   10 1  
    10    6   11 1  
    11   10   12 1  
# Name:          frag3-234-3/31924
# Creation time: Sat Jun  5 12:52:28 2010


@<TRIPOS>MOLECULE
frag3-234-3/31924
   12    11     1     1     1
SMALL
USER_CHARGES


@<TRIPOS>ATOM
      1 S1          0.4670    0.2360   -0.3847 S.3        1 <1>        0.000
      2 S2         -1.3432    0.7455    0.2720 S.3        1 <1>        0.000
      3 S3         -2.4056    0.3574   -1.3654 S.3        1 <1>        0.000
      4 C1         -2.7002   -1.3508   -1.1144 C.2        1 <1>        0.000
      5 S4         -2.5424   -2.5038   -2.3437 S.2        1 <1>        0.000
      6 O1         -3.0526   -1.7325    0.1504 O.3        1 <1>        0.000
      7 S5          1.4403    1.9395   -0.0627 S.3        1 <1>        0.000
      8 C3          2.9058    1.3479    0.6629 C.2        1 <1>        0.000
      9 S6          4.1921    2.3560    1.0906 S.2        1 <1>        0.000
     10 O2          2.9904   -0.0049    0.8649 O.3        1 <1>        0.000
     11 H          -3.0958   -0.9585    0.7167 H.spc      1 <1>        0.000
     12 H           2.1787   -0.4230    0.5683 H.spc      1 <1>        0.000
@<TRIPOS>BOND
     1    1    2 1  
     2    1    7 1  
     3    2    3 1  
     4    3    4 1  
     5    4    5 2  
     6    4    6 1  
     7    7    8 1  
     8    8    9 2  
     9    8   10 1  
    10    6   11 1  
    11   10   12 1  
# Name:          frag3-234-3/31924
# Creation time: Sat Jun  5 12:52:28 2010


@<TRIPOS>MOLECULE
frag3-234-3/31924
   12    11     1     1     1
SMALL
USER_CHARGES


@<TRIPOS>ATOM
      1 S1         -0.9846    1.0471   -1.9566 S.3        1 <1>        0.000
      2 S2          0.6859    1.8605   -1.3749 S.3        1 <1>        0.000
      3 S3          1.8871    0.3144   -1.0451 S.3        1 <1>        0.000
      4 C1          2.2981    0.5101    0.5927 C.2        1 <1>        0.000
      5 S4          1.1974    0.4302    1.8761 S.2        1 <1>        0.000
      6 O1          3.5898    0.8520    0.8626 O.3        1 <1>        0.000
      7 S5         -1.9865    0.7525   -0.2650 S.3        1 <1>        0.000
      8 C3         -2.2305   -0.9310   -0.2680 C.2        1 <1>        0.000
      9 S6         -0.9858   -2.0793   -0.3395 S.2        1 <1>        0.000
     10 O2         -3.5194   -1.3661   -0.3123 O.3        1 <1>        0.000
     11 H           4.0955    0.8571    0.0466 H.spc      1 <1>        0.000
     12 H          -4.1122   -0.6126   -0.2632 H.spc      1 <1>        0.000
@<TRIPOS>BOND
     1    1    2 1  
     2    1    7 1  
     3    2    3 1  
     4    3    4 1  
     5    4    5 2  
     6    4    6 1  
     7    7    8 1  
     8    8    9 2  
     9    8   10 1  
    10    6   11 1  
    11   10   12 1  
# Name:          frag3-234-3/31924
# Creation time: Sat Jun  5 12:52:28 2010


@<TRIPOS>MOLECULE
frag3-234-3/31924
   12    11     1     1     1
SMALL
USER_CHARGES


@<TRIPOS>ATOM
      1 S1         -0.2379   -0.2677   -0.9529 S.3        1 <1>        0.000
      2 S2          0.5826   -0.2085    0.8498 S.3        1 <1>        0.000
      3 S3          1.1195    1.7117    0.9025 S.3        1 <1>        0.000
      4 C1          2.8430    1.5629    0.6629 C.2        1 <1>        0.000
      5 S4          3.7590    2.6609   -0.2162 S.2        1 <1>        0.000
      6 O1          3.4298    0.4579    1.2325 O.3        1 <1>        0.000
      7 S5         -2.1303    0.1912   -0.4585 S.3        1 <1>        0.000
      8 C3         -2.9389   -1.1842   -1.1341 C.2        1 <1>        0.000
      9 S6         -2.9062   -1.4885   -2.8144 S.2        1 <1>        0.000
     10 O2         -3.5690   -2.0453   -0.3016 O.3        1 <1>        0.000
     11 H           2.7624   -0.0556    1.6935 H.spc      1 <1>        0.000
     12 H          -3.4936   -1.7285    0.6015 H.spc      1 <1>        0.000
@<TRIPOS>BOND
     1    1    2 1  
     2    1    7 1  
     3    2    3 1  
     4    3    4 1  
     5    4    5 2  
     6    4    6 1  
     7    7    8 1  
     8    8    9 2  
     9    8   10 1  
    10    6   11 1  
    11   10   12 1  
# Name:          frag3-234-3/31924
# Creation time: Sat Jun  5 12:52:28 2010


@<TRIPOS>MOLECULE
frag3-234-3/31924
   12    11     1     1     1
SMALL
USER_CHARGES


@<TRIPOS>ATOM
      1 S1          0.1374    1.6356   -0.0485 S.3        1 <1>        0.000
      2 S2         -0.9675    0.1113    0.5756 S.3        1 <1>        0.000
      3 S3         -2.5394    0.3024   -0.6227 S.3        1 <1>        0.000
      4 C1         -2.5852   -1.2547   -1.3714 C.2        1 <1>        0.000
      5 S4         -3.8030   -2.3825   -1.0342 S.2        1 <1>        0.000
      6 O1         -1.5598   -1.5867   -2.2122 O.3        1 <1>        0.000
      7 S5          1.7796    0.6797   -0.6317 S.3        1 <1>        0.000
      8 C3          2.8445    1.0995    0.6876 C.2        1 <1>        0.000
      9 S6          3.8286    2.4726    0.6281 S.2        1 <1>        0.000
     10 O2          2.8164    0.3132    1.7993 O.3        1 <1>        0.000
     11 H          -0.9610   -0.8409   -2.2949 H.spc      1 <1>        0.000
     12 H           2.2082   -0.4161    1.6587 H.spc      1 <1>        0.000
@<TRIPOS>BOND
     1    1    2 1  
     2    1    7 1  
     3    2    3 1  
     4    3    4 1  
     5    4    5 2  
     6    4    6 1  
     7    7    8 1  
     8    8    9 2  
     9    8   10 1  
    10    6   11 1  
    11   10   12 1  
# Name:          frag3-234-3/31924
# Creation time: Sat Jun  5 12:52:28 2010


@<TRIPOS>MOLECULE
frag3-234-3/31924
   12    11     1     1     1
SMALL
USER_CHARGES


@<TRIPOS>ATOM
      1 S1         -0.1846   -0.4372   -0.4040 S.3        1 <1>        0.000
      2 S2          0.1571    0.6216    1.2380 S.3        1 <1>        0.000
      3 S3          1.1593    2.1365    0.4256 S.3        1 <1>        0.000
      4 C1          2.7654    1.4603    0.4109 C.2        1 <1>        0.000
      5 S4          4.1469    2.3657    0.7429 S.2        1 <1>        0.000
      6 O1          2.8755    0.1129    0.1605 O.3        1 <1>        0.000
      7 S5         -2.0019    0.2583   -0.8837 S.3        1 <1>        0.000
      8 C3         -2.8167   -1.2370   -1.1670 C.2        1 <1>        0.000
      9 S6         -2.2555   -2.3414   -2.3432 S.2        1 <1>        0.000
     10 O2         -3.8938   -1.5491   -0.4101 O.3        1 <1>        0.000
     11 H           2.0039   -0.2522   -0.0088 H.spc      1 <1>        0.000
     12 H          -4.0771   -0.8279    0.1965 H.spc      1 <1>        0.000
@<TRIPOS>BOND
     1    1    2 1  
     2    1    7 1  
     3    2    3 1  
     4    3    4 1  
     5    4    5 2  
     6    4    6 1  
     7    7    8 1  
     8    8    9 2  
     9    8   10 1  
    10    6   11 1  
    11   10   12 1  
# Name:          frag3-234-3/31924
# Creation time: Sat Jun  5 12:52:28 2010


@<TRIPOS>MOLECULE
frag3-234-3/31924
   12    11     1     1     1
SMALL
USER_CHARGES


@<TRIPOS>ATOM
      1 S1         -1.0832   -0.5480    0.8900 S.3        1 <1>        0.000
      2 S2          0.8273   -0.5055    0.3765 S.3        1 <1>        0.000
      3 S3          1.4076    1.1534    1.3263 S.3        1 <1>        0.000
      4 C1          2.8818    1.5097    0.5006 C.2        1 <1>        0.000
      5 S4          3.0856    2.8900   -0.4594 S.2        1 <1>        0.000
      6 O1          3.8903    0.5941    0.6114 O.3        1 <1>        0.000
      7 S5         -1.8958    0.3558   -0.6929 S.3        1 <1>        0.000
      8 C3         -2.8231   -0.9591   -1.3519 C.2        1 <1>        0.000
      9 S6         -2.5487   -1.6119   -2.8887 S.2        1 <1>        0.000
     10 O2         -3.7902   -1.4881   -0.5418 O.3        1 <1>        0.000
     11 H           3.6105   -0.1203    1.1884 H.spc      1 <1>        0.000
     12 H          -3.8127   -1.0032    0.2864 H.spc      1 <1>        0.000
@<TRIPOS>BOND
     1    1    2 1  
     2    1    7 1  
     3    2    3 1  
     4    3    4 1  
     5    4    5 2  
     6    4    6 1  
     7    7    8 1  
     8    8    9 2  
     9    8   10 1  
    10    6   11 1  
    11   10   12 1  
# Name:          frag3-234-3/31924
# Creation time: Sat Jun  5 12:52:28 2010


@<TRIPOS>MOLECULE
frag3-234-3/31924
   12    11     1     1     1
SMALL
USER_CHARGES


@<TRIPOS>ATOM
      1 S1         -1.7621    0.8111    0.9599 S.3        1 <1>        0.000
      2 S2          0.0085   -0.0380    1.2705 S.3        1 <1>        0.000
      3 S3          0.9488    0.3940   -0.4260 S.3        1 <1>        0.000
      4 C1          2.3724    1.1565    0.1589 C.2        1 <1>        0.000
      5 S4          3.8810    0.9879   -0.5659 S.2        1 <1>        0.000
      6 O1          2.2505    1.8925    1.3160 O.3        1 <1>        0.000
      7 S5         -2.7340   -0.7836    0.2522 S.3        1 <1>        0.000
      8 C3         -1.8890   -1.0137   -1.2582 C.2        1 <1>        0.000
      9 S6         -2.2738   -0.1181   -2.6467 S.2        1 <1>        0.000
     10 O2         -0.8507   -1.8981   -1.2906 O.3        1 <1>        0.000
     11 H           1.3333    1.8916    1.5994 H.spc      1 <1>        0.000
     12 H          -0.7646   -2.3203   -0.4328 H.spc      1 <1>        0.000
@<TRIPOS>BOND
     1    1    2 1  
     2    1    7 1  
     3    2    3 1  
     4    3    4 1  
     5    4    5 2  
     6    4    6 1  
     7    7    8 1  
     8    8    9 2  
     9    8   10 1  
    10    6   11 1  
    11   10   12 1  
# Name:          frag3-234-3/31924
# Creation time: Sat Jun  5 12:52:28 2010


@<TRIPOS>MOLECULE
frag3-234-3/31924
   12    11     1     1     1
SMALL
USER_CHARGES


@<TRIPOS>ATOM
      1 S1         -0.7520    1.1479   -0.8263 S.3        1 <1>        0.000
      2 S2          0.0050    0.3026    0.8140 S.3        1 <1>        0.000
      3 S3          1.7403   -0.3667    0.1506 S.3        1 <1>        0.000
      4 C1          2.6891    1.0629    0.3871 C.2        1 <1>        0.000
      5 S4          3.0628    1.6416    1.9412 S.2        1 <1>        0.000
      6 O1          3.0885    1.7754   -0.7010 O.3        1 <1>        0.000
      7 S5         -2.6433    0.6053   -0.6560 S.3        1 <1>        0.000
      8 C3         -2.4964   -1.1008   -0.9512 C.2        1 <1>        0.000
      9 S6         -2.0975   -1.7167   -2.4827 S.2        1 <1>        0.000
     10 O2         -2.6450   -1.9611    0.0943 O.3        1 <1>        0.000
     11 H           2.8053    1.3238   -1.4994 H.spc      1 <1>        0.000
     12 H          -2.8682   -1.4657    0.8857 H.spc      1 <1>        0.000
@<TRIPOS>BOND
     1    1    2 1  
     2    1    7 1  
     3    2    3 1  
     4    3    4 1  
     5    4    5 2  
     6    4    6 1  
     7    7    8 1  
     8    8    9 2  
     9    8   10 1  
    10    6   11 1  
    11   10   12 1  
# Name:          frag3-234-3/31924
# Creation time: Sat Jun  5 12:52:28 2010


@<TRIPOS>MOLECULE
frag3-234-3/31924
   12    11     1     1     1
SMALL
USER_CHARGES


@<TRIPOS>ATOM
      1 S1          0.1597   -0.2008    1.7566 S.3        1 <1>        0.000
      2 S2          0.1465   -1.6571    0.3982 S.3        1 <1>        0.000
      3 S3         -1.7983   -1.7482    0.0219 S.3        1 <1>        0.000
      4 C1         -1.9867   -0.4827   -1.1317 C.2        1 <1>        0.000
      5 S4         -1.3314   -0.5794   -2.6910 S.2        1 <1>        0.000
      6 O1         -2.6111    0.6675   -0.7552 O.3        1 <1>        0.000
      7 S5          0.2475    1.3983    0.6076 S.3        1 <1>        0.000
      8 C3          1.8845    1.3208    0.0199 C.2        1 <1>        0.000
      9 S6          2.7348    2.5857   -0.6236 S.2        1 <1>        0.000
     10 O2          2.5061    0.0863    0.1673 O.3        1 <1>        0.000
     11 H          -2.9294    0.5773    0.1460 H.spc      1 <1>        0.000
     12 H           1.8868   -0.5387    0.5512 H.spc      1 <1>        0.000
@<TRIPOS>BOND
     1    1    2 1  
     2    1    7 1  
     3    2    3 1  
     4    3    4 1  
     5    4    5 2  
     6    4    6 1  
     7    7    8 1  
     8    8    9 2  
     9    8   10 1  
    10    6   11 1  
    11   10   12 1  
# Name:          frag3-234-3/31924
# Creation time: Sat Jun  5 12:52:28 2010


@<TRIPOS>MOLECULE
frag3-234-3/31924
   12    11     1     1     1
SMALL
USER_CHARGES


@<TRIPOS>ATOM
      1 S1         -0.5722   -0.9323    1.0998 S.3        1 <1>        0.000
      2 S2          0.7174    0.2063    2.0700 S.3        1 <1>        0.000
      3 S3          2.3443   -0.1056    0.9428 S.3        1 <1>        0.000
      4 C1          2.1698    1.1864   -0.2052 C.2        1 <1>        0.000
      5 S4          2.3425    2.8156    0.2626 S.2        1 <1>        0.000
      6 O1          1.8384    0.8850   -1.4865 O.3        1 <1>        0.000
      7 S5         -1.2338    0.3183   -0.3034 S.3        1 <1>        0.000
      8 C3         -2.2813   -0.6880   -1.2169 C.2        1 <1>        0.000
      9 S6         -2.0715   -1.0000   -2.8619 S.2        1 <1>        0.000
     10 O2         -3.3020   -1.2954   -0.5312 O.3        1 <1>        0.000
     11 H           1.7812   -0.0682   -1.5853 H.spc      1 <1>        0.000
     12 H          -3.2821   -1.0132    0.3862 H.spc      1 <1>        0.000
@<TRIPOS>BOND
     1    1    2 1  
     2    1    7 1  
     3    2    3 1  
     4    3    4 1  
     5    4    5 2  
     6    4    6 1  
     7    7    8 1  
     8    8    9 2  
     9    8   10 1  
    10    6   11 1  
    11   10   12 1  
# Name:          frag3-234-3/31924
# Creation time: Sat Jun  5 12:52:28 2010


@<TRIPOS>MOLECULE
frag3-234-3/31924
   12    11     1     1     1
SMALL
USER_CHARGES


@<TRIPOS>ATOM
      1 S1         -0.0781    1.6906    0.9531 S.3        1 <1>        0.000
      2 S2         -0.9323   -0.0691    1.0859 S.3        1 <1>        0.000
      3 S3         -2.5210    0.1686   -0.1071 S.3        1 <1>        0.000
      4 C1         -2.3631   -1.1604   -1.1621 C.2        1 <1>        0.000
      5 S4         -0.8826   -1.6231   -1.8674 S.2        1 <1>        0.000
      6 O1         -3.4591   -1.9252   -1.3854 O.3        1 <1>        0.000
      7 S5          1.0653    1.4567   -0.6405 S.3        1 <1>        0.000
      8 C3          2.5773    1.0237    0.0850 C.2        1 <1>        0.000
      9 S6          4.0068    1.8285   -0.2036 S.2        1 <1>        0.000
     10 O2          2.5384    0.0002    1.0121 O.3        1 <1>        0.000
     11 H          -4.2124   -1.5440   -0.9284 H.spc      1 <1>        0.000
     12 H           1.6477   -0.3550    1.0577 H.spc      1 <1>        0.000
@<TRIPOS>BOND
     1    1    2 1  
     2    1    7 1  
     3    2    3 1  
     4    3    4 1  
     5    4    5 2  
     6    4    6 1  
     7    7    8 1  
     8    8    9 2  
     9    8   10 1  
    10    6   11 1  
    11   10   12 1  
# Name:          frag3-234-3/31924
# Creation time: Sat Jun  5 12:52:28 2010


@<TRIPOS>MOLECULE
frag3-234-3/31924
   12    11     1     1     1
SMALL
USER_CHARGES


@<TRIPOS>ATOM
      1 S1          0.4430    0.8290   -1.3304 S.3        1 <1>        0.000
      2 S2         -1.2195    1.2740   -0.3099 S.3        1 <1>        0.000
      3 S3         -2.5663    0.2943   -1.3835 S.3        1 <1>        0.000
      4 C1         -2.3510   -1.3094   -0.7178 C.2        1 <1>        0.000
      5 S4         -1.7166   -2.6028   -1.6122 S.2        1 <1>        0.000
      6 O1         -2.6854   -1.4790    0.5943 O.3        1 <1>        0.000
      7 S5          1.7169    2.0857   -0.4902 S.3        1 <1>        0.000
      8 C3          2.5013    1.0325    0.6600 C.2        1 <1>        0.000
      9 S6          3.8242    1.5087    1.5930 S.2        1 <1>        0.000
     10 O2          2.0050   -0.2426    0.7667 O.3        1 <1>        0.000
     11 H          -3.0263   -0.6533    0.9458 H.spc      1 <1>        0.000
     12 H           1.2589   -0.3452    0.1714 H.spc      1 <1>        0.000
@<TRIPOS>BOND
     1    1    2 1  
     2    1    7 1  
     3    2    3 1  
     4    3    4 1  
     5    4    5 2  
     6    4    6 1  
     7    7    8 1  
     8    8    9 2  
     9    8   10 1  
    10    6   11 1  
    11   10   12 1  
# Name:          frag3-234-3/31924
# Creation time: Sat Jun  5 12:52:28 2010


@<TRIPOS>MOLECULE
frag3-234-3/31924
   12    11     1     1     1
SMALL
USER_CHARGES


@<TRIPOS>ATOM
      1 S1         -0.9830    0.4018    0.6705 S.3        1 <1>        0.000
      2 S2          0.6017   -0.3131   -0.3020 S.3        1 <1>        0.000
      3 S3          2.0189   -0.1046    1.0638 S.3        1 <1>        0.000
      4 C1          2.8221    1.2886    0.4256 C.2        1 <1>        0.000
      5 S4          2.2231    2.8692    0.5831 S.2        1 <1>        0.000
      6 O1          3.9566    1.0675   -0.2988 O.3        1 <1>        0.000
      7 S5         -2.2144   -1.1446    0.5317 S.3        1 <1>        0.000
      8 C3         -2.7326   -0.9389   -1.1300 C.2        1 <1>        0.000
      9 S6         -1.9094   -1.5847   -2.4533 S.2        1 <1>        0.000
     10 O2         -3.8314   -0.1506   -1.3206 O.3        1 <1>        0.000
     11 H           4.1617    0.1297   -0.2918 H.spc      1 <1>        0.000
     12 H          -4.1743    0.1297   -0.4689 H.spc      1 <1>        0.000
@<TRIPOS>BOND
     1    1    2 1  
     2    1    7 1  
     3    2    3 1  
     4    3    4 1  
     5    4    5 2  
     6    4    6 1  
     7    7    8 1  
     8    8    9 2  
     9    8   10 1  
    10    6   11 1  
    11   10   12 1  
# Name:          frag3-234-3/31924
# Creation time: Sat Jun  5 12:52:28 2010


@<TRIPOS>MOLECULE
frag3-234-3/31924
   12    11     1     1     1
SMALL
USER_CHARGES


@<TRIPOS>ATOM
      1 S1         -0.4791    0.7660   -1.6824 S.3        1 <1>        0.000
      2 S2         -0.2590    1.8606   -0.0230 S.3        1 <1>        0.000
      3 S3          1.6597    2.3035   -0.1415 S.3        1 <1>        0.000
      4 C1          2.3518    0.8747    0.5813 C.2        1 <1>        0.000
      5 S4          3.4827    0.9465    1.8336 S.2        1 <1>        0.000
      6 O1          1.9053   -0.3409    0.1305 O.3        1 <1>        0.000
      7 S5         -2.3776    0.2356   -1.5074 S.3        1 <1>        0.000
      8 C3         -2.1884   -1.2709   -0.6521 C.2        1 <1>        0.000
      9 S6         -2.0332   -2.7484   -1.4756 S.2        1 <1>        0.000
     10 O2         -2.1107   -1.2363    0.7066 O.3        1 <1>        0.000
     11 H           1.2716   -0.2052   -0.5777 H.spc      1 <1>        0.000
     12 H          -2.2180   -0.3316    1.0092 H.spc      1 <1>        0.000
@<TRIPOS>BOND
     1    1    2 1  
     2    1    7 1  
     3    2    3 1  
     4    3    4 1  
     5    4    5 2  
     6    4    6 1  
     7    7    8 1  
     8    8    9 2  
     9    8   10 1  
    10    6   11 1  
    11   10   12 1  
# Name:          frag3-234-3/31924
# Creation time: Sat Jun  5 12:52:28 2010


@<TRIPOS>MOLECULE
frag3-234-3/31924
   12    11     1     1     1
SMALL
USER_CHARGES


@<TRIPOS>ATOM
      1 S1         -1.0230   -1.5755    0.9926 S.3        1 <1>        0.000
      2 S2          0.6386   -0.7657    1.6428 S.3        1 <1>        0.000
      3 S3          1.7129   -0.5470   -0.0222 S.3        1 <1>        0.000
      4 C1          2.1252    1.1190    0.0363 C.2        1 <1>        0.000
      5 S4          1.0229    2.3722   -0.1759 S.2        1 <1>        0.000
      6 O1          3.4215    1.4008    0.3611 O.3        1 <1>        0.000
      7 S5         -2.0389    0.0301    0.4005 S.3        1 <1>        0.000
      8 C3         -1.9537   -0.1001   -1.3080 C.2        1 <1>        0.000
      9 S6         -2.9644   -1.1398   -2.1831 S.2        1 <1>        0.000
     10 O2         -0.9895    0.5965   -1.9740 O.3        1 <1>        0.000
     11 H           3.9146    0.5814    0.4449 H.spc      1 <1>        0.000
     12 H          -0.5003    1.1390   -1.3511 H.spc      1 <1>        0.000
@<TRIPOS>BOND
     1    1    2 1  
     2    1    7 1  
     3    2    3 1  
     4    3    4 1  
     5    4    5 2  
     6    4    6 1  
     7    7    8 1  
     8    8    9 2  
     9    8   10 1  
    10    6   11 1  
    11   10   12 1  
# Name:          frag3-234-3/31924
# Creation time: Sat Jun  5 12:52:28 2010


@<TRIPOS>MOLECULE
frag3-234-3/31924
   12    11     1     1     1
SMALL
USER_CHARGES


@<TRIPOS>ATOM
      1 S1         -1.0154    1.2368   -0.9311 S.3        1 <1>        0.000
      2 S2          0.8345    0.7439   -1.4841 S.3        1 <1>        0.000
      3 S3          1.8955    2.0442   -0.4334 S.3        1 <1>        0.000
      4 C1          2.5499    0.9930    0.7917 C.2        1 <1>        0.000
      5 S4          2.4061    1.3005    2.4495 S.2        1 <1>        0.000
      6 O1          3.1804   -0.1388    0.3522 O.3        1 <1>        0.000
      7 S5         -2.0707   -0.0886   -1.9569 S.3        1 <1>        0.000
      8 C3         -2.5122   -1.1948   -0.6835 C.2        1 <1>        0.000
      9 S6         -2.2211   -2.8598   -0.7597 S.2        1 <1>        0.000
     10 O2         -3.0953   -0.6460    0.4253 O.3        1 <1>        0.000
     11 H           3.1728   -0.1558   -0.6076 H.spc      1 <1>        0.000
     12 H          -3.1860    0.3017    0.3019 H.spc      1 <1>        0.000
@<TRIPOS>BOND
     1    1    2 1  
     2    1    7 1  
     3    2    3 1  
     4    3    4 1  
     5    4    5 2  
     6    4    6 1  
     7    7    8 1  
     8    8    9 2  
     9    8   10 1  
    10    6   11 1  
    11   10   12 1  
# Name:          frag3-234-3/31924
# Creation time: Sat Jun  5 12:52:28 2010


@<TRIPOS>MOLECULE
frag3-234-3/31924
   12    11     1     1     1
SMALL
USER_CHARGES


@<TRIPOS>ATOM
      1 S1          0.3075   -0.2976    0.6776 S.3        1 <1>        0.000
      2 S2         -1.5593    0.0662    1.2506 S.3        1 <1>        0.000
      3 S3         -2.3421    0.5930   -0.5119 S.3        1 <1>        0.000
      4 C1         -2.3852   -0.9822   -1.2721 C.2        1 <1>        0.000
      5 S4         -1.3532   -1.4295   -2.5405 S.2        1 <1>        0.000
      6 O1         -3.2744   -1.8844   -0.7626 O.3        1 <1>        0.000
      7 S5          1.0625    1.5466    0.7672 S.3        1 <1>        0.000
      8 C3          2.6871    1.2892    0.2487 C.2        1 <1>        0.000
      9 S6          3.5280    2.3702   -0.7369 S.2        1 <1>        0.000
     10 O2          3.2808    0.1188    0.6499 O.3        1 <1>        0.000
     11 H          -3.7775   -1.4723   -0.0564 H.spc      1 <1>        0.000
     12 H           2.6700   -0.3760    1.2010 H.spc      1 <1>        0.000
@<TRIPOS>BOND
     1    1    2 1  
     2    1    7 1  
     3    2    3 1  
     4    3    4 1  
     5    4    5 2  
     6    4    6 1  
     7    7    8 1  
     8    8    9 2  
     9    8   10 1  
    10    6   11 1  
    11   10   12 1  
# Name:          frag3-234-3/31924
# Creation time: Sat Jun  5 12:52:28 2010


@<TRIPOS>MOLECULE
frag3-234-3/31924
   12    11     1     1     1
SMALL
USER_CHARGES


@<TRIPOS>ATOM
      1 S1         -0.7601    0.5935   -0.0323 S.3        1 <1>        0.000
      2 S2          0.5420    1.8442   -0.8489 S.3        1 <1>        0.000
      3 S3          2.1754    0.6924   -0.8268 S.3        1 <1>        0.000
      4 C1          2.7673    1.0897    0.7667 C.2        1 <1>        0.000
      5 S4          2.5388    0.0853    2.1153 S.2        1 <1>        0.000
      6 O1          3.3942    2.2923    0.9066 O.3        1 <1>        0.000
      7 S5         -1.5175   -0.2409   -1.6760 S.3        1 <1>        0.000
      8 C3         -2.6962   -1.3190   -1.0195 C.2        1 <1>        0.000
      9 S6         -3.7071   -2.2802   -1.9659 S.2        1 <1>        0.000
     10 O2         -2.7853   -1.3668    0.3508 O.3        1 <1>        0.000
     11 H           3.4399    2.7293    0.0530 H.spc      1 <1>        0.000
     12 H          -2.1444   -0.7630    0.7333 H.spc      1 <1>        0.000
@<TRIPOS>BOND
     1    1    2 1  
     2    1    7 1  
     3    2    3 1  
     4    3    4 1  
     5    4    5 2  
     6    4    6 1  
     7    7    8 1  
     8    8    9 2  
     9    8   10 1  
    10    6   11 1  
    11   10   12 1  
# Name:          frag3-234-3/31924
# Creation time: Sat Jun  5 12:52:28 2010


@<TRIPOS>MOLECULE
frag3-234-3/31924
   12    11     1     1     1
SMALL
USER_CHARGES


@<TRIPOS>ATOM
      1 S1         -0.1082    2.3008    0.5506 S.3        1 <1>        0.000
      2 S2         -0.9641    0.5174    0.7372 S.3        1 <1>        0.000
      3 S3         -1.9166    0.4119   -1.0139 S.3        1 <1>        0.000
      4 C1         -2.0769   -1.2907   -1.2330 C.2        1 <1>        0.000
      5 S4         -3.2738   -1.9935   -2.1894 S.2        1 <1>        0.000
      6 O1         -1.1858   -2.0856   -0.5532 O.3        1 <1>        0.000
      7 S5          1.3911    1.8054   -0.6711 S.3        1 <1>        0.000
      8 C3          2.3855    0.8798    0.4329 C.2        1 <1>        0.000
      9 S6          3.4304   -0.3491   -0.0557 S.2        1 <1>        0.000
     10 O2          2.2700    1.1939    1.7656 O.3        1 <1>        0.000
     11 H          -0.5756   -1.5317   -0.0608 H.spc      1 <1>        0.000
     12 H           1.6390    1.9096    1.8710 H.spc      1 <1>        0.000
@<TRIPOS>BOND
     1    1    2 1  
     2    1    7 1  
     3    2    3 1  
     4    3    4 1  
     5    4    5 2  
     6    4    6 1  
     7    7    8 1  
     8    8    9 2  
     9    8   10 1  
    10    6   11 1  
    11   10   12 1  
# Name:          frag3-234-3/31924
# Creation time: Sat Jun  5 12:52:28 2010


@<TRIPOS>MOLECULE
frag3-234-3/31924
   12    11     1     1     1
SMALL
USER_CHARGES


@<TRIPOS>ATOM
      1 S1          0.6446   -0.6687    0.2812 S.3        1 <1>        0.000
      2 S2         -1.1077   -0.1710    1.0747 S.3        1 <1>        0.000
      3 S3         -2.0349    0.6182   -0.4942 S.3        1 <1>        0.000
      4 C1         -2.6178   -0.8516   -1.2262 C.2        1 <1>        0.000
      5 S4         -1.6398   -1.8708   -2.1733 S.2        1 <1>        0.000
      6 O1         -3.9038   -1.2078   -0.9594 O.3        1 <1>        0.000
      7 S5          1.8800    0.3711    1.4175 S.3        1 <1>        0.000
      8 C3          2.6870    1.3863    0.2639 C.2        1 <1>        0.000
      9 S6          2.9846    3.0186    0.4932 S.2        1 <1>        0.000
     10 O2          3.0594    0.7661   -0.9074 O.3        1 <1>        0.000
     11 H          -4.3163   -0.5311   -0.4176 H.spc      1 <1>        0.000
     12 H           2.8147   -0.1614   -0.8689 H.spc      1 <1>        0.000
@<TRIPOS>BOND
     1    1    2 1  
     2    1    7 1  
     3    2    3 1  
     4    3    4 1  
     5    4    5 2  
     6    4    6 1  
     7    7    8 1  
     8    8    9 2  
     9    8   10 1  
    10    6   11 1  
    11   10   12 1  
# Name:          frag3-234-3/31924
# Creation time: Sat Jun  5 12:52:28 2010


@<TRIPOS>MOLECULE
frag3-234-3/31924
   12    11     1     1     1
SMALL
USER_CHARGES


@<TRIPOS>ATOM
      1 S1          0.5888   -0.3141    0.2347 S.3        1 <1>        0.000
      2 S2         -1.0501    0.8057    0.0424 S.3        1 <1>        0.000
      3 S3         -2.4455   -0.5570    0.3585 S.3        1 <1>        0.000
      4 C1         -2.7100   -1.1409   -1.2638 C.2        1 <1>        0.000
      5 S4         -3.8561   -2.3159   -1.6495 S.2        1 <1>        0.000
      6 O1         -1.9390   -0.5810   -2.2537 O.3        1 <1>        0.000
      7 S5          1.9224    0.7941   -0.7202 S.3        1 <1>        0.000
      8 C3          2.8881    1.3454    0.6183 C.2        1 <1>        0.000
      9 S6          3.0482    2.9761    1.0405 S.2        1 <1>        0.000
     10 O2          3.5046    0.3781    1.3628 O.3        1 <1>        0.000
     11 H          -1.3429    0.0645   -1.8669 H.spc      1 <1>        0.000
     12 H           3.3115   -0.4843    0.9879 H.spc      1 <1>        0.000
@<TRIPOS>BOND
     1    1    2 1  
     2    1    7 1  
     3    2    3 1  
     4    3    4 1  
     5    4    5 2  
     6    4    6 1  
     7    7    8 1  
     8    8    9 2  
     9    8   10 1  
    10    6   11 1  
    11   10   12 1  
# Name:          frag3-234-3/31924
# Creation time: Sat Jun  5 12:52:28 2010


@<TRIPOS>MOLECULE
frag3-234-3/31924
   12    11     1     1     1
SMALL
USER_CHARGES


@<TRIPOS>ATOM
      1 S1          0.9223    1.2030   -1.2759 S.3        1 <1>        0.000
      2 S2         -0.9164    1.2096   -0.5480 S.3        1 <1>        0.000
      3 S3         -1.8446    0.1290   -1.9242 S.3        1 <1>        0.000
      4 C1         -2.5580   -1.1487   -0.9981 C.2        1 <1>        0.000
      5 S4         -3.8979   -2.0186   -1.4916 S.2        1 <1>        0.000
      6 O1         -1.9835   -1.3925    0.2326 O.3        1 <1>        0.000
      7 S5          1.7896   -0.1916   -0.1397 S.3        1 <1>        0.000
      8 C3          2.6284    0.8449    0.9693 C.2        1 <1>        0.000
      9 S6          1.8302    1.9891    1.9491 S.2        1 <1>        0.000
     10 O2          3.9818    0.7661    0.9964 O.3        1 <1>        0.000
     11 H          -1.2306   -0.8094    0.3542 H.spc      1 <1>        0.000
     12 H           4.2733    0.0782    0.3936 H.spc      1 <1>        0.000
@<TRIPOS>BOND
     1    1    2 1  
     2    1    7 1  
     3    2    3 1  
     4    3    4 1  
     5    4    5 2  
     6    4    6 1  
     7    7    8 1  
     8    8    9 2  
     9    8   10 1  
    10    6   11 1  
    11   10   12 1  
# Name:          frag3-234-3/31924
# Creation time: Sat Jun  5 12:52:28 2010


@<TRIPOS>MOLECULE
frag3-234-3/31924
   12    11     1     1     1
SMALL
USER_CHARGES


@<TRIPOS>ATOM
      1 S1          0.6814   -0.1538   -0.3321 S.3        1 <1>        0.000
      2 S2         -0.8486   -0.5692    0.8446 S.3        1 <1>        0.000
      3 S3         -2.3232    0.2976   -0.1933 S.3        1 <1>        0.000
      4 C1         -2.7840   -1.0424   -1.1881 C.2        1 <1>        0.000
      5 S4         -1.9332   -1.5260   -2.5737 S.2        1 <1>        0.000
      6 O1         -3.8572   -1.7763   -0.7700 O.3        1 <1>        0.000
      7 S5          1.0976    1.7038    0.2908 S.3        1 <1>        0.000
      8 C3          2.7952    1.5577    0.5617 C.2        1 <1>        0.000
      9 S6          3.8812    1.3254   -0.7156 S.2        1 <1>        0.000
     10 O2          3.2423    1.5737    1.8457 O.3        1 <1>        0.000
     11 H          -4.2281   -1.3771    0.0204 H.spc      1 <1>        0.000
     12 H           2.5014    1.7151    2.4396 H.spc      1 <1>        0.000
@<TRIPOS>BOND
     1    1    2 1  
     2    1    7 1  
     3    2    3 1  
     4    3    4 1  
     5    4    5 2  
     6    4    6 1  
     7    7    8 1  
     8    8    9 2  
     9    8   10 1  
    10    6   11 1  
    11   10   12 1  
# Name:          frag3-234-3/31924
# Creation time: Sat Jun  5 12:52:28 2010


@<TRIPOS>MOLECULE
frag3-234-3/31924
   12    11     1     1     1
SMALL
USER_CHARGES


@<TRIPOS>ATOM
      1 S1         -1.3218    0.1832    0.8318 S.3        1 <1>        0.000
      2 S2          0.5367   -0.1905    1.3717 S.3        1 <1>        0.000
      3 S3          1.5250    0.3095   -0.2821 S.3        1 <1>        0.000
      4 C1          2.6985    1.4040    0.3584 C.2        1 <1>        0.000
      5 S4          3.0732    2.8937   -0.3355 S.2        1 <1>        0.000
      6 O1          3.3237    1.0109    1.5175 O.3        1 <1>        0.000
      7 S5         -1.7972   -1.5912    0.0209 S.3        1 <1>        0.000
      8 C3         -2.4451   -1.0843   -1.4974 C.2        1 <1>        0.000
      9 S6         -3.8351   -0.0970   -1.5810 S.2        1 <1>        0.000
     10 O2         -1.8062   -1.4479   -2.6344 O.3        1 <1>        0.000
     11 H           2.9994    0.1454    1.7770 H.spc      1 <1>        0.000
     12 H          -1.0509   -1.9978   -2.4138 H.spc      1 <1>        0.000
@<TRIPOS>BOND
     1    1    2 1  
     2    1    7 1  
     3    2    3 1  
     4    3    4 1  
     5    4    5 2  
     6    4    6 1  
     7    7    8 1  
     8    8    9 2  
     9    8   10 1  
    10    6   11 1  
    11   10   12 1  
# Name:          frag3-234-3/31924
# Creation time: Sat Jun  5 12:52:28 2010


@<TRIPOS>MOLECULE
frag3-234-3/31924
   12    11     1     1     1
SMALL
USER_CHARGES


@<TRIPOS>ATOM
      1 S1          0.1024    2.1823   -0.3004 S.3        1 <1>        0.000
      2 S2         -1.1976    0.9640    0.5064 S.3        1 <1>        0.000
      3 S3         -2.2854    0.4485   -1.0868 S.3        1 <1>        0.000
      4 C1         -2.1176   -1.2406   -1.1089 C.2        1 <1>        0.000
      5 S4         -2.3963   -2.1919    0.2737 S.2        1 <1>        0.000
      6 O1         -1.6958   -1.8547   -2.2412 O.3        1 <1>        0.000
      7 S5          1.4697    0.9097   -0.9755 S.3        1 <1>        0.000
      8 C3          2.4073    0.7091    0.4678 C.2        1 <1>        0.000
      9 S6          3.4333    1.9042    1.0491 S.2        1 <1>        0.000
     10 O2          2.2317   -0.4403    1.1858 O.3        1 <1>        0.000
     11 H          -1.5806   -1.2008   -2.9346 H.spc      1 <1>        0.000
     12 H           1.6201   -1.0162    0.7212 H.spc      1 <1>        0.000
@<TRIPOS>BOND
     1    1    2 1  
     2    1    7 1  
     3    2    3 1  
     4    3    4 1  
     5    4    5 2  
     6    4    6 1  
     7    7    8 1  
     8    8    9 2  
     9    8   10 1  
    10    6   11 1  
    11   10   12 1  
# Name:          frag3-234-3/31924
# Creation time: Sat Jun  5 12:52:28 2010


@<TRIPOS>MOLECULE
frag3-234-3/31924
   12    11     1     1     1
SMALL
USER_CHARGES


@<TRIPOS>ATOM
      1 S1         -0.0880    1.4445    1.0064 S.3        1 <1>        0.000
      2 S2         -1.2259   -0.1758    0.9883 S.3        1 <1>        0.000
      3 S3         -2.4076    0.2756   -0.5599 S.3        1 <1>        0.000
      4 C1         -2.3330   -1.1866   -1.4872 C.2        1 <1>        0.000
      5 S4         -3.6626   -1.8041   -2.3271 S.2        1 <1>        0.000
      6 O1         -1.1437   -1.8683   -1.4822 O.3        1 <1>        0.000
      7 S5          1.2392    0.9524   -0.4024 S.3        1 <1>        0.000
      8 C3          2.7336    1.1536    0.4721 C.2        1 <1>        0.000
      9 S6          4.1189    1.7956   -0.2349 S.2        1 <1>        0.000
     10 O2          2.7207    0.8034    1.7968 O.3        1 <1>        0.000
     11 H          -0.4996   -1.3821   -0.9622 H.spc      1 <1>        0.000
     12 H           1.8552    0.4576    2.0268 H.spc      1 <1>        0.000
@<TRIPOS>BOND
     1    1    2 1  
     2    1    7 1  
     3    2    3 1  
     4    3    4 1  
     5    4    5 2  
     6    4    6 1  
     7    7    8 1  
     8    8    9 2  
     9    8   10 1  
    10    6   11 1  
    11   10   12 1  
# Name:          frag3-234-3/31924
# Creation time: Sat Jun  5 12:52:28 2010


@<TRIPOS>MOLECULE
frag3-234-3/31924
   12    11     1     1     1
SMALL
USER_CHARGES


@<TRIPOS>ATOM
      1 S1          0.7295   -1.1004    0.9455 S.3        1 <1>        0.000
      2 S2         -0.9834   -0.1335    1.3019 S.3        1 <1>        0.000
      3 S3         -2.2497   -1.2200    0.2532 S.3        1 <1>        0.000
      4 C1         -2.1209   -0.4587   -1.3187 C.2        1 <1>        0.000
      5 S4         -2.4604   -1.2407   -2.7628 S.2        1 <1>        0.000
      6 O1         -1.7092    0.8534   -1.3140 O.3        1 <1>        0.000
      7 S5          2.0526    0.2336    1.5700 S.3        1 <1>        0.000
      8 C3          2.2394    1.1761    0.1143 C.2        1 <1>        0.000
      9 S6          1.3095    2.5564   -0.2219 S.2        1 <1>        0.000
     10 O2          3.1441    0.7242   -0.7975 O.3        1 <1>        0.000
     11 H          -1.5609    1.1378   -0.4092 H.spc      1 <1>        0.000
     12 H           3.5807   -0.0582   -0.4528 H.spc      1 <1>        0.000
@<TRIPOS>BOND
     1    1    2 1  
     2    1    7 1  
     3    2    3 1  
     4    3    4 1  
     5    4    5 2  
     6    4    6 1  
     7    7    8 1  
     8    8    9 2  
     9    8   10 1  
    10    6   11 1  
    11   10   12 1  
# Name:          frag3-234-3/31924
# Creation time: Sat Jun  5 12:52:28 2010


@<TRIPOS>MOLECULE
frag3-234-3/31924
   12    11     1     1     1
SMALL
USER_CHARGES


@<TRIPOS>ATOM
      1 S1          0.4834   -0.4987    0.5841 S.3        1 <1>        0.000
      2 S2         -1.2069    0.5535    0.5512 S.3        1 <1>        0.000
      3 S3         -1.6375    0.5026   -1.3716 S.3        1 <1>        0.000
      4 C1         -2.4791   -1.0201   -1.4577 C.2        1 <1>        0.000
      5 S4         -3.8585   -1.2588   -2.3927 S.2        1 <1>        0.000
      6 O1         -1.9979   -2.0463   -0.6759 O.3        1 <1>        0.000
      7 S5          1.6069    0.6240    1.7687 S.3        1 <1>        0.000
      8 C3          2.7341    1.2862    0.6215 C.2        1 <1>        0.000
      9 S6          2.3995    2.6402   -0.3295 S.2        1 <1>        0.000
     10 O2          3.9075    0.6076    0.4719 O.3        1 <1>        0.000
     11 H          -1.2127   -1.7505   -0.2094 H.spc      1 <1>        0.000
     12 H           3.9309   -0.1285    1.0877 H.spc      1 <1>        0.000
@<TRIPOS>BOND
     1    1    2 1  
     2    1    7 1  
     3    2    3 1  
     4    3    4 1  
     5    4    5 2  
     6    4    6 1  
     7    7    8 1  
     8    8    9 2  
     9    8   10 1  
    10    6   11 1  
    11   10   12 1  
# Name:          frag3-234-3/31924
# Creation time: Sat Jun  5 12:52:28 2010


@<TRIPOS>MOLECULE
frag3-234-3/31924
   12    11     1     1     1
SMALL
USER_CHARGES


@<TRIPOS>ATOM
      1 S1          0.5954   -0.0970   -0.4633 S.3        1 <1>        0.000
      2 S2         -0.9766    0.0449    0.7509 S.3        1 <1>        0.000
      3 S3         -2.3964    0.4544   -0.5974 S.3        1 <1>        0.000
      4 C1         -2.7540   -1.1834   -1.1057 C.2        1 <1>        0.000
      5 S4         -1.7952   -2.0362   -2.2095 S.2        1 <1>        0.000
      6 O1         -3.8300   -1.7780   -0.5223 O.3        1 <1>        0.000
      7 S5          1.3018    1.7516   -0.3027 S.3        1 <1>        0.000
      8 C3          2.8026    1.4624    0.5343 C.2        1 <1>        0.000
      9 S6          4.1697    2.4078    0.3219 S.2        1 <1>        0.000
     10 O2          2.8343    0.3638    1.3638 O.3        1 <1>        0.000
     11 H          -4.2558   -1.1550    0.0711 H.spc      1 <1>        0.000
     12 H           1.9719   -0.0578    1.3677 H.spc      1 <1>        0.000
@<TRIPOS>BOND
     1    1    2 1  
     2    1    7 1  
     3    2    3 1  
     4    3    4 1  
     5    4    5 2  
     6    4    6 1  
     7    7    8 1  
     8    8    9 2  
     9    8   10 1  
    10    6   11 1  
    11   10   12 1  
# Name:          frag3-234-3/31924
# Creation time: Sat Jun  5 12:52:28 2010


@<TRIPOS>MOLECULE
frag3-234-3/31924
   12    11     1     1     1
SMALL
USER_CHARGES


@<TRIPOS>ATOM
      1 S1         -1.5780    1.5796    0.0659 S.3        1 <1>        0.000
      2 S2         -0.3276    1.3872    1.6004 S.3        1 <1>        0.000
      3 S3          1.3684    1.9902    0.8243 S.3        1 <1>        0.000
      4 C1          1.9086    0.5851   -0.0303 C.2        1 <1>        0.000
      5 S4          2.9985    0.5875   -1.3013 S.2        1 <1>        0.000
      6 O1          1.3724   -0.6155    0.3912 O.3        1 <1>        0.000
      7 S5         -2.4864   -0.1775    0.0727 S.3        1 <1>        0.000
      8 C3         -1.4140   -1.0980   -0.9220 C.2        1 <1>        0.000
      9 S6         -1.2644   -0.8046   -2.5889 S.2        1 <1>        0.000
     10 O2         -0.6259   -2.0436   -0.3420 O.3        1 <1>        0.000
     11 H           0.7696   -0.4567    1.1213 H.spc      1 <1>        0.000
     12 H          -0.8250   -2.0932    0.5958 H.spc      1 <1>        0.000
@<TRIPOS>BOND
     1    1    2 1  
     2    1    7 1  
     3    2    3 1  
     4    3    4 1  
     5    4    5 2  
     6    4    6 1  
     7    7    8 1  
     8    8    9 2  
     9    8   10 1  
    10    6   11 1  
    11   10   12 1  
# Name:          frag3-234-3/31924
# Creation time: Sat Jun  5 12:52:28 2010


@<TRIPOS>MOLECULE
frag3-234-3/31924
   12    11     1     1     1
SMALL
USER_CHARGES


@<TRIPOS>ATOM
      1 S1          0.5497    0.3446   -1.0541 S.3        1 <1>        0.000
      2 S2         -0.8374    0.4710    0.3838 S.3        1 <1>        0.000
      3 S3         -2.4903    0.4448   -0.7156 S.3        1 <1>        0.000
      4 C1         -2.6533   -1.2806   -0.9078 C.2        1 <1>        0.000
      5 S4         -1.7526   -2.1777   -2.0375 S.2        1 <1>        0.000
      6 O1         -3.5032   -1.9199   -0.0594 O.3        1 <1>        0.000
      7 S5          1.5960    1.9681   -0.6437 S.3        1 <1>        0.000
      8 C3          2.6574    1.3462    0.6065 C.2        1 <1>        0.000
      9 S6          4.2909    1.7148    0.6839 S.2        1 <1>        0.000
     10 O2          2.0944    0.4789    1.5138 O.3        1 <1>        0.000
     11 H          -3.9310   -1.2754    0.5091 H.spc      1 <1>        0.000
     12 H           1.1582    0.3827    1.3243 H.spc      1 <1>        0.000
@<TRIPOS>BOND
     1    1    2 1  
     2    1    7 1  
     3    2    3 1  
     4    3    4 1  
     5    4    5 2  
     6    4    6 1  
     7    7    8 1  
     8    8    9 2  
     9    8   10 1  
    10    6   11 1  
    11   10   12 1  
# Name:          frag3-234-3/31924
# Creation time: Sat Jun  5 12:52:28 2010


@<TRIPOS>MOLECULE
frag3-234-3/31924
   12    11     1     1     1
SMALL
USER_CHARGES


@<TRIPOS>ATOM
      1 S1          0.9765   -0.7593    0.5341 S.3        1 <1>        0.000
      2 S2         -0.8173    0.0801    0.3788 S.3        1 <1>        0.000
      3 S3         -1.2254   -0.2356   -1.5305 S.3        1 <1>        0.000
      4 C1         -2.7688   -1.0158   -1.4096 C.2        1 <1>        0.000
      5 S4         -4.0058   -0.7766   -2.5338 S.2        1 <1>        0.000
      6 O1         -2.9784   -1.8178   -0.3166 O.3        1 <1>        0.000
      7 S5          1.8640    0.5131    1.7755 S.3        1 <1>        0.000
      8 C3          2.7642    1.4805    0.6424 C.2        1 <1>        0.000
      9 S6          2.1543    2.9097   -0.0417 S.2        1 <1>        0.000
     10 O2          3.9882    1.0121    0.2714 O.3        1 <1>        0.000
     11 H          -2.1803   -1.8457    0.2162 H.spc      1 <1>        0.000
     12 H           4.1780    0.2018    0.7499 H.spc      1 <1>        0.000
@<TRIPOS>BOND
     1    1    2 1  
     2    1    7 1  
     3    2    3 1  
     4    3    4 1  
     5    4    5 2  
     6    4    6 1  
     7    7    8 1  
     8    8    9 2  
     9    8   10 1  
    10    6   11 1  
    11   10   12 1  
# Name:          frag3-234-3/31924
# Creation time: Sat Jun  5 12:52:28 2010


@<TRIPOS>MOLECULE
frag3-234-3/31924
   12    11     1     1     1
SMALL
USER_CHARGES


@<TRIPOS>ATOM
      1 S1         -0.1122    0.9845    1.0943 S.3        1 <1>        0.000
      2 S2         -1.9221    1.3463    0.3810 S.3        1 <1>        0.000
      3 S3         -2.6701   -0.4912    0.3740 S.3        1 <1>        0.000
      4 C1         -2.0247   -1.1145   -1.1186 C.2        1 <1>        0.000
      5 S4         -1.3816   -2.6627   -1.2934 S.2        1 <1>        0.000
      6 O1         -2.0333   -0.2521   -2.1891 O.3        1 <1>        0.000
      7 S5          1.0163    1.1821   -0.5428 S.3        1 <1>        0.000
      8 C3          2.5741    0.8423    0.1011 C.2        1 <1>        0.000
      9 S6          3.3077    1.8482    1.2648 S.2        1 <1>        0.000
     10 O2          3.1975   -0.2927   -0.3012 O.3        1 <1>        0.000
     11 H          -2.4304    0.5809   -1.9244 H.spc      1 <1>        0.000
     12 H           2.6548   -0.7401   -0.9546 H.spc      1 <1>        0.000
@<TRIPOS>BOND
     1    1    2 1  
     2    1    7 1  
     3    2    3 1  
     4    3    4 1  
     5    4    5 2  
     6    4    6 1  
     7    7    8 1  
     8    8    9 2  
     9    8   10 1  
    10    6   11 1  
    11   10   12 1  
# Name:          frag3-234-3/31924
# Creation time: Sat Jun  5 12:52:28 2010


@<TRIPOS>MOLECULE
frag3-234-3/31924
   12    11     1     1     1
SMALL
USER_CHARGES


@<TRIPOS>ATOM
      1 S1         -0.0611    1.4074    0.8955 S.3        1 <1>        0.000
      2 S2         -1.3616    1.1343   -0.5624 S.3        1 <1>        0.000
      3 S3         -0.8805   -0.7064   -1.1461 S.3        1 <1>        0.000
      4 C1         -2.4145   -1.4961   -1.0337 C.2        1 <1>        0.000
      5 S4         -2.9188   -2.6855   -2.1173 S.2        1 <1>        0.000
      6 O1         -3.2589   -1.0769   -0.0344 O.3        1 <1>        0.000
      7 S5          1.4697    2.1619   -0.1630 S.3        1 <1>        0.000
      8 C3          2.7634    1.1601    0.3914 C.2        1 <1>        0.000
      9 S6          3.2334    1.1501    2.0326 S.2        1 <1>        0.000
     10 O2          3.3804    0.3415   -0.4927 O.3        1 <1>        0.000
     11 H          -2.8221   -0.4017    0.4898 H.spc      1 <1>        0.000
     12 H           3.0006    0.4700   -1.3650 H.spc      1 <1>        0.000
@<TRIPOS>BOND
     1    1    2 1  
     2    1    7 1  
     3    2    3 1  
     4    3    4 1  
     5    4    5 2  
     6    4    6 1  
     7    7    8 1  
     8    8    9 2  
     9    8   10 1  
    10    6   11 1  
    11   10   12 1  
# Name:          frag3-234-3/31924
# Creation time: Sat Jun  5 12:52:28 2010


@<TRIPOS>MOLECULE
frag3-234-3/31924
   12    11     1     1     1
SMALL
USER_CHARGES


@<TRIPOS>ATOM
      1 S1          0.5440    0.1016   -0.2843 S.3        1 <1>        0.000
      2 S2         -1.2561    0.9377   -0.4369 S.3        1 <1>        0.000
      3 S3         -1.9346   -0.0613   -2.0220 S.3        1 <1>        0.000
      4 C1         -2.6086   -1.4494   -1.1974 C.2        1 <1>        0.000
      5 S4         -4.2817   -1.6130   -0.9549 S.2        1 <1>        0.000
      6 O1         -1.7480   -2.3809   -0.7017 O.3        1 <1>        0.000
      7 S5          1.6899    1.7200   -0.3955 S.3        1 <1>        0.000
      8 C3          2.8154    1.4185    0.8931 C.2        1 <1>        0.000
      9 S6          4.1150    2.4386    1.2401 S.2        1 <1>        0.000
     10 O2          2.6163    0.2786    1.6295 O.3        1 <1>        0.000
     11 H          -0.8478   -2.1358   -0.9281 H.spc      1 <1>        0.000
     12 H           1.8398   -0.1811    1.3019 H.spc      1 <1>        0.000
@<TRIPOS>BOND
     1    1    2 1  
     2    1    7 1  
     3    2    3 1  
     4    3    4 1  
     5    4    5 2  
     6    4    6 1  
     7    7    8 1  
     8    8    9 2  
     9    8   10 1  
    10    6   11 1  
    11   10   12 1  
# Name:          frag3-234-3/31924
# Creation time: Sat Jun  5 12:52:28 2010


@<TRIPOS>MOLECULE
frag3-234-3/31924
   12    11     1     1     1
SMALL
USER_CHARGES


@<TRIPOS>ATOM
      1 S1          0.8356   -0.1201   -0.9404 S.3        1 <1>        0.000
      2 S2         -0.7410    0.9116   -0.2555 S.3        1 <1>        0.000
      3 S3         -2.0744    0.4636   -1.6467 S.3        1 <1>        0.000
      4 C1         -2.6564   -1.0824   -1.0519 C.2        1 <1>        0.000
      5 S4         -3.4257   -2.2145   -2.0281 S.2        1 <1>        0.000
      6 O1         -2.4497   -1.3304    0.2816 O.3        1 <1>        0.000
      7 S5          1.8716   -0.3319    0.7334 S.3        1 <1>        0.000
      8 C3          2.6497    1.2362    0.8091 C.2        1 <1>        0.000
      9 S6          2.9006    2.0771    2.2532 S.2        1 <1>        0.000
     10 O2          3.0412    1.7811   -0.3847 O.3        1 <1>        0.000
     11 H          -2.0007   -0.5810    0.6795 H.spc      1 <1>        0.000
     12 H           2.8254    1.1755   -1.0977 H.spc      1 <1>        0.000
@<TRIPOS>BOND
     1    1    2 1  
     2    1    7 1  
     3    2    3 1  
     4    3    4 1  
     5    4    5 2  
     6    4    6 1  
     7    7    8 1  
     8    8    9 2  
     9    8   10 1  
    10    6   11 1  
    11   10   12 1  
# Name:          frag3-234-3/31924
# Creation time: Sat Jun  5 12:52:28 2010


@<TRIPOS>MOLECULE
frag3-234-3/31924
   12    11     1     1     1
SMALL
USER_CHARGES


@<TRIPOS>ATOM
      1 S1          0.6140    1.7647   -1.3472 S.3        1 <1>        0.000
      2 S2         -1.2005    1.0624   -0.9948 S.3        1 <1>        0.000
      3 S3         -0.7962   -0.8463   -0.5686 S.3        1 <1>        0.000
      4 C1         -2.3626   -1.5512   -0.7128 C.2        1 <1>        0.000
      5 S4         -2.7643   -2.6597   -1.9276 S.2        1 <1>        0.000
      6 O1         -3.3113   -1.1383    0.1808 O.3        1 <1>        0.000
      7 S5          1.1478    2.2378    0.5193 S.3        1 <1>        0.000
      8 C3          2.4423    1.1147    0.7985 C.2        1 <1>        0.000
      9 S6          4.0137    1.6226    1.1696 S.2        1 <1>        0.000
     10 O2          2.1687   -0.2162    0.6528 O.3        1 <1>        0.000
     11 H          -2.9193   -0.5152    0.7969 H.spc      1 <1>        0.000
     12 H           1.2383   -0.3296    0.4453 H.spc      1 <1>        0.000
@<TRIPOS>BOND
     1    1    2 1  
     2    1    7 1  
     3    2    3 1  
     4    3    4 1  
     5    4    5 2  
     6    4    6 1  
     7    7    8 1  
     8    8    9 2  
     9    8   10 1  
    10    6   11 1  
    11   10   12 1  
# Name:          frag3-234-3/31924
# Creation time: Sat Jun  5 12:52:28 2010


@<TRIPOS>MOLECULE
frag3-234-3/31924
   12    11     1     1     1
SMALL
USER_CHARGES


@<TRIPOS>ATOM
      1 S1         -0.4886    0.4676   -0.7806 S.3        1 <1>        0.000
      2 S2          0.6151   -0.3927    0.6487 S.3        1 <1>        0.000
      3 S3          2.4293   -0.0347   -0.0531 S.3        1 <1>        0.000
      4 C1          2.6937    1.5704    0.5865 C.2        1 <1>        0.000
      5 S4          4.1820    2.0605    1.2208 S.2        1 <1>        0.000
      6 O1          1.6236    2.4248    0.6022 O.3        1 <1>        0.000
      7 S5         -2.3065    0.0894   -0.0942 S.3        1 <1>        0.000
      8 C3         -2.7526   -1.2519   -1.1150 C.2        1 <1>        0.000
      9 S6         -4.0981   -1.1895   -2.1429 S.2        1 <1>        0.000
     10 O2         -1.9463   -2.3534   -1.1024 O.3        1 <1>        0.000
     11 H           0.8637    1.9914    0.2068 H.spc      1 <1>        0.000
     12 H          -1.2376   -2.2226   -0.4682 H.spc      1 <1>        0.000
@<TRIPOS>BOND
     1    1    2 1  
     2    1    7 1  
     3    2    3 1  
     4    3    4 1  
     5    4    5 2  
     6    4    6 1  
     7    7    8 1  
     8    8    9 2  
     9    8   10 1  
    10    6   11 1  
    11   10   12 1  
# Name:          frag3-234-3/31924
# Creation time: Sat Jun  5 12:52:28 2010


@<TRIPOS>MOLECULE
frag3-234-3/31924
   12    11     1     1     1
SMALL
USER_CHARGES


@<TRIPOS>ATOM
      1 S1         -1.1452    0.9725    0.7989 S.3        1 <1>        0.000
      2 S2          0.1090    2.3234    0.1481 S.3        1 <1>        0.000
      3 S3          1.3114    1.2693   -1.0227 S.3        1 <1>        0.000
      4 C1          2.3780    0.6020    0.1432 C.2        1 <1>        0.000
      5 S4          2.2961   -0.9294    0.8246 S.2        1 <1>        0.000
      6 O1          3.3381    1.4654    0.6139 O.3        1 <1>        0.000
      7 S5         -2.2186    0.5788   -0.8428 S.3        1 <1>        0.000
      8 C3         -2.1264   -1.1070   -0.9637 C.2        1 <1>        0.000
      9 S6         -0.6898   -1.9956   -0.9777 S.2        1 <1>        0.000
     10 O2         -3.3010   -1.7891   -0.9518 O.3        1 <1>        0.000
     11 H           3.2756    2.2994    0.1426 H.spc      1 <1>        0.000
     12 H          -4.0314   -1.1662   -0.9447 H.spc      1 <1>        0.000
@<TRIPOS>BOND
     1    1    2 1  
     2    1    7 1  
     3    2    3 1  
     4    3    4 1  
     5    4    5 2  
     6    4    6 1  
     7    7    8 1  
     8    8    9 2  
     9    8   10 1  
    10    6   11 1  
    11   10   12 1  
# Name:          frag3-234-3/31924
# Creation time: Sat Jun  5 12:52:28 2010


@<TRIPOS>MOLECULE
frag3-234-3/31924
   12    11     1     1     1
SMALL
USER_CHARGES


@<TRIPOS>ATOM
      1 S1          0.3482    0.0345    1.7795 S.3        1 <1>        0.000
      2 S2         -0.8561    0.5746    0.2902 S.3        1 <1>        0.000
      3 S3         -0.6454   -0.9644   -0.9594 S.3        1 <1>        0.000
      4 C1         -2.3052   -1.2566   -1.3367 C.2        1 <1>        0.000
      5 S4         -3.2131   -0.1420   -2.2546 S.2        1 <1>        0.000
      6 O1         -2.8985   -2.3727   -0.8485 O.3        1 <1>        0.000
      7 S5          1.5947    1.5749    1.7682 S.3        1 <1>        0.000
      8 C3          2.4113    1.3314    0.2406 C.2        1 <1>        0.000
      9 S6          2.8151    2.5803   -0.8175 S.2        1 <1>        0.000
     10 O2          2.7006    0.0304   -0.0919 O.3        1 <1>        0.000
     11 H          -2.2535   -2.8886   -0.3592 H.spc      1 <1>        0.000
     12 H           2.4076   -0.5516    0.6131 H.spc      1 <1>        0.000
@<TRIPOS>BOND
     1    1    2 1  
     2    1    7 1  
     3    2    3 1  
     4    3    4 1  
     5    4    5 2  
     6    4    6 1  
     7    7    8 1  
     8    8    9 2  
     9    8   10 1  
    10    6   11 1  
    11   10   12 1  
# Name:          frag3-234-3/31924
# Creation time: Sat Jun  5 12:52:28 2010


@<TRIPOS>MOLECULE
frag3-234-3/31924
   12    11     1     1     1
SMALL
USER_CHARGES


@<TRIPOS>ATOM
      1 S1          0.0876    1.1363   -0.3096 S.3        1 <1>        0.000
      2 S2         -0.4585   -0.5761    0.5458 S.3        1 <1>        0.000
      3 S3         -2.4268   -0.4067    0.4824 S.3        1 <1>        0.000
      4 C1         -2.7205   -0.9952   -1.1225 C.2        1 <1>        0.000
      5 S4         -2.4707   -2.6282   -1.5314 S.2        1 <1>        0.000
      6 O1         -3.1042   -0.1152   -2.0847 O.3        1 <1>        0.000
      7 S5          1.9173    0.6988   -0.9102 S.3        1 <1>        0.000
      8 C3          2.8077    1.1961    0.4933 C.2        1 <1>        0.000
      9 S6          3.0470    2.8382    0.8622 S.2        1 <1>        0.000
     10 O2          3.2728    0.2425    1.3447 O.3        1 <1>        0.000
     11 H          -3.2023    0.7578   -1.6976 H.spc      1 <1>        0.000
     12 H           3.0598   -0.6266    0.9971 H.spc      1 <1>        0.000
@<TRIPOS>BOND
     1    1    2 1  
     2    1    7 1  
     3    2    3 1  
     4    3    4 1  
     5    4    5 2  
     6    4    6 1  
     7    7    8 1  
     8    8    9 2  
     9    8   10 1  
    10    6   11 1  
    11   10   12 1  
# Name:          frag3-234-3/31924
# Creation time: Sat Jun  5 12:52:28 2010


@<TRIPOS>MOLECULE
frag3-234-3/31924
   12    11     1     1     1
SMALL
USER_CHARGES


@<TRIPOS>ATOM
      1 S1          0.3152    0.0766    0.4247 S.3        1 <1>        0.000
      2 S2         -1.2688    1.0795   -0.2314 S.3        1 <1>        0.000
      3 S3         -1.6355    0.0216   -1.8802 S.3        1 <1>        0.000
      4 C1         -2.6121   -1.2667   -1.2075 C.2        1 <1>        0.000
      5 S4         -3.9062   -1.9535   -2.0211 S.2        1 <1>        0.000
      6 O1         -2.2967   -1.6711    0.0701 O.3        1 <1>        0.000
      7 S5          1.7632    1.0008   -0.6080 S.3        1 <1>        0.000
      8 C3          2.9117    1.2570    0.6547 C.2        1 <1>        0.000
      9 S6          2.6582    2.3721    1.9142 S.2        1 <1>        0.000
     10 O2          4.0226    0.4741    0.6546 O.3        1 <1>        0.000
     11 H          -1.5344   -1.1777    0.3817 H.spc      1 <1>        0.000
     12 H           4.0123   -0.0940   -0.1192 H.spc      1 <1>        0.000
@<TRIPOS>BOND
     1    1    2 1  
     2    1    7 1  
     3    2    3 1  
     4    3    4 1  
     5    4    5 2  
     6    4    6 1  
     7    7    8 1  
     8    8    9 2  
     9    8   10 1  
    10    6   11 1  
    11   10   12 1  
# Name:          frag3-234-3/31924
# Creation time: Sat Jun  5 12:52:28 2010


@<TRIPOS>MOLECULE
frag3-234-3/31924
   12    11     1     1     1
SMALL
USER_CHARGES


@<TRIPOS>ATOM
      1 S1         -1.1641    0.0741    0.7714 S.3        1 <1>        0.000
      2 S2          0.6021   -0.0490   -0.1211 S.3        1 <1>        0.000
      3 S3          1.2391    1.8361    0.1318 S.3        1 <1>        0.000
      4 C1          2.8590    1.5147    0.6653 C.2        1 <1>        0.000
      5 S4          3.9799    0.7369   -0.3488 S.2        1 <1>        0.000
      6 O1          3.1993    1.8629    1.9289 O.3        1 <1>        0.000
      7 S5         -2.3033    0.4288   -0.8229 S.3        1 <1>        0.000
      8 C3         -2.7027   -1.2041   -1.2883 C.2        1 <1>        0.000
      9 S6         -2.9992   -1.6820   -2.8761 S.2        1 <1>        0.000
     10 O2         -2.7584   -2.1280   -0.2703 O.3        1 <1>        0.000
     11 H           2.4516    2.2885    2.3547 H.spc      1 <1>        0.000
     12 H          -2.5661   -1.6947    0.5645 H.spc      1 <1>        0.000
@<TRIPOS>BOND
     1    1    2 1  
     2    1    7 1  
     3    2    3 1  
     4    3    4 1  
     5    4    5 2  
     6    4    6 1  
     7    7    8 1  
     8    8    9 2  
     9    8   10 1  
    10    6   11 1  
    11   10   12 1  
# Name:          frag3-234-3/31924
# Creation time: Sat Jun  5 12:52:28 2010


@<TRIPOS>MOLECULE
frag3-234-3/31924
   12    11     1     1     1
SMALL
USER_CHARGES


@<TRIPOS>ATOM
      1 S1          0.7409   -0.5890   -0.0507 S.3        1 <1>        0.000
      2 S2         -0.8052    0.6783    0.0672 S.3        1 <1>        0.000
      3 S3         -1.6531    0.3697   -1.6871 S.3        1 <1>        0.000
      4 C1         -2.6471   -1.0167   -1.3145 C.2        1 <1>        0.000
      5 S4         -4.0211   -1.4280   -2.2011 S.2        1 <1>        0.000
      6 O1         -2.2863   -1.7649   -0.2202 O.3        1 <1>        0.000
      7 S5          1.8128   -0.0001    1.5083 S.3        1 <1>        0.000
      8 C3          2.7267    1.2909    0.7694 C.2        1 <1>        0.000
      9 S6          2.2098    2.9089    0.7729 S.2        1 <1>        0.000
     10 O2          3.8743    0.9413    0.1258 O.3        1 <1>        0.000
     11 H          -1.4878   -1.3988    0.1672 H.spc      1 <1>        0.000
     12 H           4.0186   -0.0030    0.2214 H.spc      1 <1>        0.000
@<TRIPOS>BOND
     1    1    2 1  
     2    1    7 1  
     3    2    3 1  
     4    3    4 1  
     5    4    5 2  
     6    4    6 1  
     7    7    8 1  
     8    8    9 2  
     9    8   10 1  
    10    6   11 1  
    11   10   12 1  
# Name:          frag3-234-3/31924
# Creation time: Sat Jun  5 12:52:28 2010


@<TRIPOS>MOLECULE
frag3-234-3/31924
   12    11     1     1     1
SMALL
USER_CHARGES


@<TRIPOS>ATOM
      1 S1          1.0897   -0.9557    0.5272 S.3        1 <1>        0.000
      2 S2         -0.8372   -0.7716    0.8688 S.3        1 <1>        0.000
      3 S3         -1.4345    0.2969   -0.6858 S.3        1 <1>        0.000
      4 C1         -2.6649   -0.7052   -1.3466 C.2        1 <1>        0.000
      5 S4         -3.0924   -0.7542   -2.9684 S.2        1 <1>        0.000
      6 O1         -3.3222   -1.5200   -0.4454 O.3        1 <1>        0.000
      7 S5          1.8070    0.5370    1.6517 S.3        1 <1>        0.000
      8 C3          2.6170    1.4837    0.4649 C.2        1 <1>        0.000
      9 S6          1.8397    2.0938   -0.9223 S.2        1 <1>        0.000
     10 O2          3.9494    1.6858    0.6260 O.3        1 <1>        0.000
     11 H          -2.9653   -1.3758    0.4341 H.spc      1 <1>        0.000
     12 H           4.2354    1.2848    1.4500 H.spc      1 <1>        0.000
@<TRIPOS>BOND
     1    1    2 1  
     2    1    7 1  
     3    2    3 1  
     4    3    4 1  
     5    4    5 2  
     6    4    6 1  
     7    7    8 1  
     8    8    9 2  
     9    8   10 1  
    10    6   11 1  
    11   10   12 1  
# Name:          frag3-234-3/31924
# Creation time: Sat Jun  5 12:52:28 2010


@<TRIPOS>MOLECULE
frag3-234-3/31924
   12    11     1     1     1
SMALL
USER_CHARGES


@<TRIPOS>ATOM
      1 S1         -1.0884    0.3628    0.1628 S.3        1 <1>        0.000
      2 S2          0.7707    0.3360   -0.5410 S.3        1 <1>        0.000
      3 S3          1.4307    2.0755    0.1852 S.3        1 <1>        0.000
      4 C1          2.8797    1.5208    0.9688 C.2        1 <1>        0.000
      5 S4          4.3257    1.3001    0.0931 S.2        1 <1>        0.000
      6 O1          2.8256    1.2181    2.2891 O.3        1 <1>        0.000
      7 S5         -2.0903    0.1683   -1.5450 S.3        1 <1>        0.000
      8 C3         -2.7702   -1.4226   -1.3253 C.2        1 <1>        0.000
      9 S6         -4.3163   -1.8323   -1.8764 S.2        1 <1>        0.000
     10 O2         -2.0155   -2.3363   -0.6413 O.3        1 <1>        0.000
     11 H           1.9441    1.4011    2.6223 H.spc      1 <1>        0.000
     12 H          -1.1731   -1.9412   -0.4051 H.spc      1 <1>        0.000
@<TRIPOS>BOND
     1    1    2 1  
     2    1    7 1  
     3    2    3 1  
     4    3    4 1  
     5    4    5 2  
     6    4    6 1  
     7    7    8 1  
     8    8    9 2  
     9    8   10 1  
    10    6   11 1  
    11   10   12 1  
# Name:          frag3-234-3/31924
# Creation time: Sat Jun  5 12:52:28 2010


@<TRIPOS>MOLECULE
frag3-234-3/31924
   12    11     1     1     1
SMALL
USER_CHARGES


@<TRIPOS>ATOM
      1 S1         -0.7721   -0.2568    0.6228 S.3        1 <1>        0.000
      2 S2          0.0626    1.5009    0.9758 S.3        1 <1>        0.000
      3 S3          1.4013    1.5470   -0.5161 S.3        1 <1>        0.000
      4 C1          2.8591    1.3198    0.3990 C.2        1 <1>        0.000
      5 S4          3.6567   -0.1719    0.5168 S.2        1 <1>        0.000
      6 O1          3.3294    2.4042    1.0815 O.3        1 <1>        0.000
      7 S5         -1.9129    0.2244   -0.9506 S.3        1 <1>        0.000
      8 C3         -2.6856   -1.2795   -1.2915 C.2        1 <1>        0.000
      9 S6         -2.8100   -1.9212   -2.8492 S.2        1 <1>        0.000
     10 O2         -3.1769   -1.9765   -0.2185 O.3        1 <1>        0.000
     11 H           2.7656    3.1610    0.9053 H.spc      1 <1>        0.000
     12 H          -3.0255   -1.4734    0.5850 H.spc      1 <1>        0.000
@<TRIPOS>BOND
     1    1    2 1  
     2    1    7 1  
     3    2    3 1  
     4    3    4 1  
     5    4    5 2  
     6    4    6 1  
     7    7    8 1  
     8    8    9 2  
     9    8   10 1  
    10    6   11 1  
    11   10   12 1  
# Name:          frag3-234-3/31924
# Creation time: Sat Jun  5 12:52:28 2010


@<TRIPOS>MOLECULE
frag3-234-3/31924
   12    11     1     1     1
SMALL
USER_CHARGES


@<TRIPOS>ATOM
      1 S1          0.9162   -0.2688   -0.8448 S.3        1 <1>        0.000
      2 S2         -0.6290    0.9827   -0.8024 S.3        1 <1>        0.000
      3 S3         -1.8283    0.1425   -2.1254 S.3        1 <1>        0.000
      4 C1         -2.6028   -1.0349   -1.1239 C.2        1 <1>        0.000
      5 S4         -3.5073   -0.5859    0.2475 S.2        1 <1>        0.000
      6 O1         -2.4400   -2.3536   -1.4068 O.3        1 <1>        0.000
      7 S5          1.5353   -0.2521    1.0251 S.3        1 <1>        0.000
      8 C3          2.5743    1.1334    0.9742 C.2        1 <1>        0.000
      9 S6          2.0234    2.7367    0.9929 S.2        1 <1>        0.000
     10 O2          3.9099    0.8905    0.8336 O.3        1 <1>        0.000
     11 H          -1.9116   -2.4461   -2.2030 H.spc      1 <1>        0.000
     12 H           4.0642   -0.0570    0.8414 H.spc      1 <1>        0.000
@<TRIPOS>BOND
     1    1    2 1  
     2    1    7 1  
     3    2    3 1  
     4    3    4 1  
     5    4    5 2  
     6    4    6 1  
     7    7    8 1  
     8    8    9 2  
     9    8   10 1  
    10    6   11 1  
    11   10   12 1  
# Name:          frag3-234-3/31924
# Creation time: Sat Jun  5 12:52:28 2010


@<TRIPOS>MOLECULE
frag3-234-3/31924
   12    11     1     1     1
SMALL
USER_CHARGES


@<TRIPOS>ATOM
      1 S1         -0.2278   -0.9862    0.4267 S.3        1 <1>        0.000
      2 S2         -0.1533    0.9859    0.1228 S.3        1 <1>        0.000
      3 S3          1.2113    1.5012    1.4567 S.3        1 <1>        0.000
      4 C1          2.6309    1.2722    0.4881 C.2        1 <1>        0.000
      5 S4          2.9794    2.2798   -0.8373 S.2        1 <1>        0.000
      6 O1          3.4527    0.2239    0.7628 O.3        1 <1>        0.000
      7 S5         -2.1916   -1.2423    0.4868 S.3        1 <1>        0.000
      8 C3         -2.5436   -0.9217   -1.1905 C.2        1 <1>        0.000
      9 S6         -1.9075   -1.8861   -2.4407 S.2        1 <1>        0.000
     10 O2         -3.2988    0.1637   -1.5055 O.3        1 <1>        0.000
     11 H           3.1249   -0.2448    1.5338 H.spc      1 <1>        0.000
     12 H          -3.5814    0.6005   -0.6987 H.spc      1 <1>        0.000
@<TRIPOS>BOND
     1    1    2 1  
     2    1    7 1  
     3    2    3 1  
     4    3    4 1  
     5    4    5 2  
     6    4    6 1  
     7    7    8 1  
     8    8    9 2  
     9    8   10 1  
    10    6   11 1  
    11   10   12 1  
# Name:          frag3-234-3/31924
# Creation time: Sat Jun  5 12:52:28 2010


@<TRIPOS>MOLECULE
frag3-234-3/31924
   12    11     1     1     1
SMALL
USER_CHARGES


@<TRIPOS>ATOM
      1 S1         -1.3512    1.3877   -0.3112 S.3        1 <1>        0.000
      2 S2          0.3706    1.9687   -1.1263 S.3        1 <1>        0.000
      3 S3          1.4333    2.3448    0.4966 S.3        1 <1>        0.000
      4 C1          2.1576    0.7851    0.7681 C.2        1 <1>        0.000
      5 S4          3.8326    0.5509    0.7447 S.2        1 <1>        0.000
      6 O1          1.3221   -0.2815    0.9475 O.3        1 <1>        0.000
      7 S5         -2.0317    0.1616   -1.7006 S.3        1 <1>        0.000
      8 C3         -1.9010   -1.3744   -0.9047 C.2        1 <1>        0.000
      9 S6         -3.0502   -2.5976   -1.0771 S.2        1 <1>        0.000
     10 O2         -0.8306   -1.5548   -0.0671 O.3        1 <1>        0.000
     11 H           0.4112    0.0214    0.9353 H.spc      1 <1>        0.000
     12 H          -0.2769   -0.7708   -0.0839 H.spc      1 <1>        0.000
@<TRIPOS>BOND
     1    1    2 1  
     2    1    7 1  
     3    2    3 1  
     4    3    4 1  
     5    4    5 2  
     6    4    6 1  
     7    7    8 1  
     8    8    9 2  
     9    8   10 1  
    10    6   11 1  
    11   10   12 1  
# Name:          frag3-234-3/31924
# Creation time: Sat Jun  5 12:52:28 2010


@<TRIPOS>MOLECULE
frag3-234-3/31924
   12    11     1     1     1
SMALL
USER_CHARGES


@<TRIPOS>ATOM
      1 S1         -1.6667   -0.2443    1.4385 S.3        1 <1>        0.000
      2 S2         -0.0650    0.8144    1.7872 S.3        1 <1>        0.000
      3 S3          1.4032   -0.3051    1.0475 S.3        1 <1>        0.000
      4 C1          2.1402    0.7537   -0.0574 C.2        1 <1>        0.000
      5 S4          2.5994    2.3338    0.3767 S.2        1 <1>        0.000
      6 O1          2.3163    0.3584   -1.3417 O.3        1 <1>        0.000
      7 S5         -2.3148    0.5228   -0.2680 S.3        1 <1>        0.000
      8 C3         -1.6528   -0.5657   -1.4311 C.2        1 <1>        0.000
      9 S6         -2.2535   -2.1197   -1.6498 S.2        1 <1>        0.000
     10 O2         -0.5547   -0.1578   -2.1319 O.3        1 <1>        0.000
     11 H           2.0157   -0.5480   -1.4404 H.spc      1 <1>        0.000
     12 H          -0.3424    0.7476   -1.8935 H.spc      1 <1>        0.000
@<TRIPOS>BOND
     1    1    2 1  
     2    1    7 1  
     3    2    3 1  
     4    3    4 1  
     5    4    5 2  
     6    4    6 1  
     7    7    8 1  
     8    8    9 2  
     9    8   10 1  
    10    6   11 1  
    11   10   12 1  
# Name:          frag3-234-3/31924
# Creation time: Sat Jun  5 12:52:28 2010


@<TRIPOS>MOLECULE
frag3-234-3/31924
   12    11     1     1     1
SMALL
USER_CHARGES


@<TRIPOS>ATOM
      1 S1         -0.8676    0.7490   -0.1039 S.3        1 <1>        0.000
      2 S2          0.6982    0.6271   -1.3348 S.3        1 <1>        0.000
      3 S3          1.8192    2.0820   -0.6087 S.3        1 <1>        0.000
      4 C1          2.6622    1.2231    0.6561 C.2        1 <1>        0.000
      5 S4          3.7877    1.9450    1.6802 S.2        1 <1>        0.000
      6 O1          2.3810   -0.1178    0.7818 O.3        1 <1>        0.000
      7 S5         -2.3496    0.3015   -1.3531 S.3        1 <1>        0.000
      8 C3         -2.7006   -1.3110   -0.8036 C.2        1 <1>        0.000
      9 S6         -1.5976   -2.5990   -0.9769 S.2        1 <1>        0.000
     10 O2         -3.8815   -1.5097   -0.1670 O.3        1 <1>        0.000
     11 H           1.7242   -0.3685    0.1281 H.spc      1 <1>        0.000
     12 H          -4.3802   -0.6894   -0.1567 H.spc      1 <1>        0.000
@<TRIPOS>BOND
     1    1    2 1  
     2    1    7 1  
     3    2    3 1  
     4    3    4 1  
     5    4    5 2  
     6    4    6 1  
     7    7    8 1  
     8    8    9 2  
     9    8   10 1  
    10    6   11 1  
    11   10   12 1  
# Name:          frag3-234-3/31924
# Creation time: Sat Jun  5 12:52:28 2010


@<TRIPOS>MOLECULE
frag3-234-3/31924
   12    11     1     1     1
SMALL
USER_CHARGES


@<TRIPOS>ATOM
      1 S1         -1.4723   -0.2454    1.3242 S.3        1 <1>        0.000
      2 S2         -0.2140    1.2070    0.8300 S.3        1 <1>        0.000
      3 S3          1.2231    0.1788   -0.0830 S.3        1 <1>        0.000
      4 C1          2.6275    1.1051    0.3396 C.2        1 <1>        0.000
      5 S4          3.9891    1.2027   -0.6391 S.2        1 <1>        0.000
      6 O1          2.5617    1.8026    1.5203 O.3        1 <1>        0.000
      7 S5         -2.8144   -0.0105   -0.1260 S.3        1 <1>        0.000
      8 C3         -2.1401   -1.0071   -1.3903 C.2        1 <1>        0.000
      9 S6         -2.7382   -1.0460   -2.9645 S.2        1 <1>        0.000
     10 O2         -1.0708   -1.7970   -1.0412 O.3        1 <1>        0.000
     11 H           1.7186    1.6304    1.9459 H.spc      1 <1>        0.000
     12 H          -0.8585   -1.6554   -0.1157 H.spc      1 <1>        0.000
@<TRIPOS>BOND
     1    1    2 1  
     2    1    7 1  
     3    2    3 1  
     4    3    4 1  
     5    4    5 2  
     6    4    6 1  
     7    7    8 1  
     8    8    9 2  
     9    8   10 1  
    10    6   11 1  
    11   10   12 1  
# Name:          frag3-234-3/31924
# Creation time: Sat Jun  5 12:52:28 2010


@<TRIPOS>MOLECULE
frag3-234-3/31924
   12    11     1     1     1
SMALL
USER_CHARGES


@<TRIPOS>ATOM
      1 S1          0.1657   -0.0360    0.8092 S.3        1 <1>        0.000
      2 S2         -1.0958    0.9305   -0.3910 S.3        1 <1>        0.000
      3 S3         -1.1512   -0.3137   -1.9386 S.3        1 <1>        0.000
      4 C1         -2.4096   -1.3796   -1.3738 C.2        1 <1>        0.000
      5 S4         -4.0222   -0.8461   -1.2319 S.2        1 <1>        0.000
      6 O1         -2.0774   -2.6391   -0.9942 O.3        1 <1>        0.000
      7 S5          1.1765    1.4779    1.5742 S.3        1 <1>        0.000
      8 C3          2.6845    1.3785    0.7039 C.2        1 <1>        0.000
      9 S6          3.5314    2.7124    0.1423 S.2        1 <1>        0.000
     10 O2          3.1497    0.1055    0.4699 O.3        1 <1>        0.000
     11 H          -1.1385   -2.7782   -1.1378 H.spc      1 <1>        0.000
     12 H           2.5456   -0.5313    0.8588 H.spc      1 <1>        0.000
@<TRIPOS>BOND
     1    1    2 1  
     2    1    7 1  
     3    2    3 1  
     4    3    4 1  
     5    4    5 2  
     6    4    6 1  
     7    7    8 1  
     8    8    9 2  
     9    8   10 1  
    10    6   11 1  
    11   10   12 1  
# Name:          frag3-234-3/31924
# Creation time: Sat Jun  5 12:52:28 2010


@<TRIPOS>MOLECULE
frag3-234-3/31924
   12    11     1     1     1
SMALL
USER_CHARGES


@<TRIPOS>ATOM
      1 S1         -1.8172    1.3477   -0.1106 S.3        1 <1>        0.000
      2 S2         -0.1476    1.4089    0.9380 S.3        1 <1>        0.000
      3 S3          1.1249    0.4840   -0.2904 S.3        1 <1>        0.000
      4 C1          2.6336    0.8919    0.4230 C.2        1 <1>        0.000
      5 S4          3.7241    1.9785   -0.2765 S.2        1 <1>        0.000
      6 O1          2.9140    0.3301    1.6391 O.3        1 <1>        0.000
      7 S5         -2.4186   -0.5131    0.3427 S.3        1 <1>        0.000
      8 C3         -2.0691   -1.3293   -1.1466 C.2        1 <1>        0.000
      9 S6         -2.9605   -1.0055   -2.5626 S.2        1 <1>        0.000
     10 O2         -1.0319   -2.2027   -1.1862 O.3        1 <1>        0.000
     11 H           2.1985   -0.2582    1.8912 H.spc      1 <1>        0.000
     12 H          -0.6395   -2.2716   -0.3128 H.spc      1 <1>        0.000
@<TRIPOS>BOND
     1    1    2 1  
     2    1    7 1  
     3    2    3 1  
     4    3    4 1  
     5    4    5 2  
     6    4    6 1  
     7    7    8 1  
     8    8    9 2  
     9    8   10 1  
    10    6   11 1  
    11   10   12 1  
# Name:          frag3-234-3/31924
# Creation time: Sat Jun  5 12:52:28 2010


@<TRIPOS>MOLECULE
frag3-234-3/31924
   12    11     1     1     1
SMALL
USER_CHARGES


@<TRIPOS>ATOM
      1 S1          0.0693    0.1722    1.1251 S.3        1 <1>        0.000
      2 S2         -0.8454    1.0549   -0.4158 S.3        1 <1>        0.000
      3 S3         -2.6284    0.2275   -0.2881 S.3        1 <1>        0.000
      4 C1         -2.4050   -1.1465   -1.3334 C.2        1 <1>        0.000
      5 S4         -3.4681   -1.5181   -2.5902 S.2        1 <1>        0.000
      6 O1         -1.2796   -1.9088   -1.1419 O.3        1 <1>        0.000
      7 S5          1.3673    1.5813    1.6416 S.3        1 <1>        0.000
      8 C3          2.7000    1.1137    0.6217 C.2        1 <1>        0.000
      9 S6          2.6571    1.2489   -1.0762 S.2        1 <1>        0.000
     10 O2          3.7843    0.5653    1.2272 O.3        1 <1>        0.000
     11 H          -0.7868   -1.5671   -0.3923 H.spc      1 <1>        0.000
     12 H           3.6515    0.5630    2.1780 H.spc      1 <1>        0.000
@<TRIPOS>BOND
     1    1    2 1  
     2    1    7 1  
     3    2    3 1  
     4    3    4 1  
     5    4    5 2  
     6    4    6 1  
     7    7    8 1  
     8    8    9 2  
     9    8   10 1  
    10    6   11 1  
    11   10   12 1  
# Name:          frag3-234-3/31924
# Creation time: Sat Jun  5 12:52:28 2010


@<TRIPOS>MOLECULE
frag3-234-3/31924
   12    11     1     1     1
SMALL
USER_CHARGES


@<TRIPOS>ATOM
      1 S1          0.3916    0.1585   -0.3116 S.3        1 <1>        0.000
      2 S2         -1.3413    1.1398   -0.1768 S.3        1 <1>        0.000
      3 S3         -2.3006    0.3120   -1.7073 S.3        1 <1>        0.000
      4 C1         -2.6234   -1.2691   -1.0202 C.2        1 <1>        0.000
      5 S4         -2.6189   -2.6921   -1.9314 S.2        1 <1>        0.000
      6 O1         -2.8696   -1.3128    0.3274 O.3        1 <1>        0.000
      7 S5          1.6509    1.6872   -0.4864 S.3        1 <1>        0.000
      8 C3          2.8835    1.2152    0.6535 C.2        1 <1>        0.000
      9 S6          3.2644    2.1219    2.0232 S.2        1 <1>        0.000
     10 O2          3.5150    0.0298    0.3995 O.3        1 <1>        0.000
     11 H          -2.8348   -0.4233    0.6869 H.spc      1 <1>        0.000
     12 H           3.1741   -0.3448   -0.4160 H.spc      1 <1>        0.000
@<TRIPOS>BOND
     1    1    2 1  
     2    1    7 1  
     3    2    3 1  
     4    3    4 1  
     5    4    5 2  
     6    4    6 1  
     7    7    8 1  
     8    8    9 2  
     9    8   10 1  
    10    6   11 1  
    11   10   12 1  
# Name:          frag3-234-3/31924
# Creation time: Sat Jun  5 12:52:28 2010


@<TRIPOS>MOLECULE
frag3-234-3/31924
   12    11     1     1     1
SMALL
USER_CHARGES


@<TRIPOS>ATOM
      1 S1          0.1059    2.0488   -0.6263 S.3        1 <1>        0.000
      2 S2         -1.2721    1.2155   -1.7544 S.3        1 <1>        0.000
      3 S3         -2.5368    0.4760   -0.4258 S.3        1 <1>        0.000
      4 C1         -2.0726   -1.1810   -0.4053 C.2        1 <1>        0.000
      5 S4         -0.7037   -1.7731    0.3930 S.2        1 <1>        0.000
      6 O1         -2.8308   -2.0380   -1.1500 O.3        1 <1>        0.000
      7 S5          1.7316    1.0148   -1.0922 S.3        1 <1>        0.000
      8 C3          2.3290    0.5871    0.4530 C.2        1 <1>        0.000
      9 S6          2.9585    1.7472    1.5243 S.2        1 <1>        0.000
     10 O2          2.2426   -0.7069    0.8536 O.3        1 <1>        0.000
     11 H          -3.5664   -1.5583   -1.5377 H.spc      1 <1>        0.000
     12 H           1.8703   -1.2361    0.1444 H.spc      1 <1>        0.000
@<TRIPOS>BOND
     1    1    2 1  
     2    1    7 1  
     3    2    3 1  
     4    3    4 1  
     5    4    5 2  
     6    4    6 1  
     7    7    8 1  
     8    8    9 2  
     9    8   10 1  
    10    6   11 1  
    11   10   12 1  
# Name:          frag3-234-3/31924
# Creation time: Sat Jun  5 12:52:28 2010


@<TRIPOS>MOLECULE
frag3-234-3/31924
   12    11     1     1     1
SMALL
USER_CHARGES


@<TRIPOS>ATOM
      1 S1          0.3943   -0.2136    0.6063 S.3        1 <1>        0.000
      2 S2         -1.4113    0.6043    0.7924 S.3        1 <1>        0.000
      3 S3         -2.5440   -0.9881    0.4641 S.3        1 <1>        0.000
      4 C1         -2.5211   -1.0480   -1.2810 C.2        1 <1>        0.000
      5 S4         -2.4530   -2.4860   -2.1631 S.2        1 <1>        0.000
      6 O1         -2.5383    0.1593   -1.9327 O.3        1 <1>        0.000
      7 S5          1.3158    1.1253   -0.5310 S.3        1 <1>        0.000
      8 C3          2.8173    1.3057    0.3329 C.2        1 <1>        0.000
      9 S6          3.3173    2.7584    1.0226 S.2        1 <1>        0.000
     10 O2          3.5746    0.1731    0.4596 O.3        1 <1>        0.000
     11 H          -2.5779    0.8693   -1.2877 H.spc      1 <1>        0.000
     12 H           3.1396   -0.5536    0.0075 H.spc      1 <1>        0.000
@<TRIPOS>BOND
     1    1    2 1  
     2    1    7 1  
     3    2    3 1  
     4    3    4 1  
     5    4    5 2  
     6    4    6 1  
     7    7    8 1  
     8    8    9 2  
     9    8   10 1  
    10    6   11 1  
    11   10   12 1  
# Name:          frag3-234-3/31924
# Creation time: Sat Jun  5 12:52:28 2010


@<TRIPOS>MOLECULE
frag3-234-3/31924
   12    11     1     1     1
SMALL
USER_CHARGES


@<TRIPOS>ATOM
      1 S1         -1.4769    0.3941    1.2199 S.3        1 <1>        0.000
      2 S2         -0.0147    1.5054    1.9117 S.3        1 <1>        0.000
      3 S3          1.5459    0.2971    1.6455 S.3        1 <1>        0.000
      4 C1          1.9181    0.5978   -0.0098 C.2        1 <1>        0.000
      5 S4          2.3877    2.1327   -0.5637 S.2        1 <1>        0.000
      6 O1          1.7772   -0.4029   -0.9137 O.3        1 <1>        0.000
      7 S5         -1.4188    0.7465   -0.7325 S.3        1 <1>        0.000
      8 C3         -1.4925   -0.8091   -1.4141 C.2        1 <1>        0.000
      9 S6         -2.9473   -1.5788   -1.7774 S.2        1 <1>        0.000
     10 O2         -0.3271   -1.4924   -1.5959 O.3        1 <1>        0.000
     11 H           1.5102   -1.2062   -0.4610 H.spc      1 <1>        0.000
     12 H           0.4127   -0.9323   -1.3498 H.spc      1 <1>        0.000
@<TRIPOS>BOND
     1    1    2 1  
     2    1    7 1  
     3    2    3 1  
     4    3    4 1  
     5    4    5 2  
     6    4    6 1  
     7    7    8 1  
     8    8    9 2  
     9    8   10 1  
    10    6   11 1  
    11   10   12 1  
# Name:          frag3-234-3/31924
# Creation time: Sat Jun  5 12:52:29 2010


@<TRIPOS>MOLECULE
frag3-234-3/31924
   12    11     1     1     1
SMALL
USER_CHARGES


@<TRIPOS>ATOM
      1 S1         -0.2994    0.3151   -1.7322 S.3        1 <1>        0.000
      2 S2          0.0929    1.0305    0.0804 S.3        1 <1>        0.000
      3 S3          1.6082   -0.1295    0.6361 S.3        1 <1>        0.000
      4 C1          2.8146    1.0844    0.8956 C.2        1 <1>        0.000
      5 S4          2.6870    2.1947    2.1844 S.2        1 <1>        0.000
      6 O1          3.8476    1.1767    0.0232 O.3        1 <1>        0.000
      7 S5         -2.2738    0.4354   -1.7235 S.3        1 <1>        0.000
      8 C3         -2.6952   -1.0966   -1.0095 C.2        1 <1>        0.000
      9 S6         -3.6833   -2.2211   -1.7931 S.2        1 <1>        0.000
     10 O2         -2.1468   -1.3991    0.2087 O.3        1 <1>        0.000
     11 H           3.7714    0.4828   -0.6358 H.spc      1 <1>        0.000
     12 H          -1.6169   -0.6585    0.5126 H.spc      1 <1>        0.000
@<TRIPOS>BOND
     1    1    2 1  
     2    1    7 1  
     3    2    3 1  
     4    3    4 1  
     5    4    5 2  
     6    4    6 1  
     7    7    8 1  
     8    8    9 2  
     9    8   10 1  
    10    6   11 1  
    11   10   12 1  
# Name:          frag3-234-3/31924
# Creation time: Sat Jun  5 12:52:29 2010


@<TRIPOS>MOLECULE
frag3-234-3/31924
   12    11     1     1     1
SMALL
USER_CHARGES


@<TRIPOS>ATOM
      1 S1          0.2229    2.1545   -1.0515 S.3        1 <1>        0.000
      2 S2         -1.2285    1.7682    0.2523 S.3        1 <1>        0.000
      3 S3         -2.3616    0.5765   -0.8509 S.3        1 <1>        0.000
      4 C1         -1.5838   -0.9600   -0.7272 C.2        1 <1>        0.000
      5 S4         -1.7179   -2.2270   -1.8019 S.2        1 <1>        0.000
      6 O1         -0.7751   -1.1205    0.3848 O.3        1 <1>        0.000
      7 S5          1.1441    0.4023   -1.1454 S.3        1 <1>        0.000
      8 C3          1.8719    0.3184    0.4227 C.2        1 <1>        0.000
      9 S6          2.0924   -1.0561    1.3510 S.2        1 <1>        0.000
     10 O2          2.2872    1.5342    0.9360 O.3        1 <1>        0.000
     11 H          -0.7929   -0.3175    0.9106 H.spc      1 <1>        0.000
     12 H           2.0999    2.2292    0.3008 H.spc      1 <1>        0.000
@<TRIPOS>BOND
     1    1    2 1  
     2    1    7 1  
     3    2    3 1  
     4    3    4 1  
     5    4    5 2  
     6    4    6 1  
     7    7    8 1  
     8    8    9 2  
     9    8   10 1  
    10    6   11 1  
    11   10   12 1  
# Name:          frag3-234-3/31924
# Creation time: Sat Jun  5 12:52:29 2010


@<TRIPOS>MOLECULE
frag3-234-3/31924
   12    11     1     1     1
SMALL
USER_CHARGES


@<TRIPOS>ATOM
      1 S1         -0.5731    1.1952   -1.2100 S.3        1 <1>        0.000
      2 S2         -0.2632    1.0394    0.7565 S.3        1 <1>        0.000
      3 S3          1.2517   -0.2428    0.8013 S.3        1 <1>        0.000
      4 C1          2.5665    0.8902    0.6509 C.2        1 <1>        0.000
      5 S4          3.0536    1.8589    1.9464 S.2        1 <1>        0.000
      6 O1          3.1544    1.0292   -0.5696 O.3        1 <1>        0.000
      7 S5         -2.4437    0.5868   -1.3027 S.3        1 <1>        0.000
      8 C3         -2.2792   -1.1335   -1.1145 C.2        1 <1>        0.000
      9 S6         -3.3515   -2.2542   -1.7512 S.2        1 <1>        0.000
     10 O2         -1.1640   -1.5789   -0.4371 O.3        1 <1>        0.000
     11 H           2.7614    0.4065   -1.1856 H.spc      1 <1>        0.000
     12 H          -0.6521   -0.8250   -0.1352 H.spc      1 <1>        0.000
@<TRIPOS>BOND
     1    1    2 1  
     2    1    7 1  
     3    2    3 1  
     4    3    4 1  
     5    4    5 2  
     6    4    6 1  
     7    7    8 1  
     8    8    9 2  
     9    8   10 1  
    10    6   11 1  
    11   10   12 1  
# Name:          frag3-234-3/31924
# Creation time: Sat Jun  5 12:52:29 2010


@<TRIPOS>MOLECULE
frag3-234-3/31924
   12    11     1     1     1
SMALL
USER_CHARGES


@<TRIPOS>ATOM
      1 S1         -0.6636   -0.0454    0.4740 S.3        1 <1>        0.000
      2 S2         -0.0762    1.8376    0.7151 S.3        1 <1>        0.000
      3 S3          1.4561    1.8507   -0.5638 S.3        1 <1>        0.000
      4 C1          2.7094    1.2127    0.4755 C.2        1 <1>        0.000
      5 S4          4.3393    1.6149    0.2911 S.2        1 <1>        0.000
      6 O1          2.3158    0.3820    1.4926 O.3        1 <1>        0.000
      7 S5         -1.9521    0.1939   -1.0311 S.3        1 <1>        0.000
      8 C3         -2.5462   -1.4175   -1.2370 C.2        1 <1>        0.000
      9 S6         -3.0992   -2.0143   -2.7171 S.2        1 <1>        0.000
     10 O2         -2.5316   -2.2243   -0.1292 O.3        1 <1>        0.000
     11 H           1.3646    0.2582    1.4532 H.spc      1 <1>        0.000
     12 H          -2.1906   -1.7307    0.6203 H.spc      1 <1>        0.000
@<TRIPOS>BOND
     1    1    2 1  
     2    1    7 1  
     3    2    3 1  
     4    3    4 1  
     5    4    5 2  
     6    4    6 1  
     7    7    8 1  
     8    8    9 2  
     9    8   10 1  
    10    6   11 1  
    11   10   12 1  
# Name:          frag3-234-3/31924
# Creation time: Sat Jun  5 12:52:29 2010


@<TRIPOS>MOLECULE
frag3-234-3/31924
   12    11     1     1     1
SMALL
USER_CHARGES


@<TRIPOS>ATOM
      1 S1         -1.3804    0.3573    0.7031 S.3        1 <1>        0.000
      2 S2          0.2929    0.7889   -0.2650 S.3        1 <1>        0.000
      3 S3          1.6501    0.1941    1.0869 S.3        1 <1>        0.000
      4 C1          2.9531    1.2420    0.6742 C.2        1 <1>        0.000
      5 S4          2.7991    2.9407    0.7188 S.2        1 <1>        0.000
      6 O1          4.1098    0.6794    0.2477 O.3        1 <1>        0.000
      7 S5         -1.6658   -1.4918    0.0220 S.3        1 <1>        0.000
      8 C3         -2.6175   -1.1569   -1.3995 C.2        1 <1>        0.000
      9 S6         -3.7404   -2.2400   -2.0345 S.2        1 <1>        0.000
     10 O2         -2.4492    0.0768   -1.9836 O.3        1 <1>        0.000
     11 H           4.0317   -0.2767    0.2840 H.spc      1 <1>        0.000
     12 H          -1.7776    0.5676   -1.5043 H.spc      1 <1>        0.000
@<TRIPOS>BOND
     1    1    2 1  
     2    1    7 1  
     3    2    3 1  
     4    3    4 1  
     5    4    5 2  
     6    4    6 1  
     7    7    8 1  
     8    8    9 2  
     9    8   10 1  
    10    6   11 1  
    11   10   12 1  
# Name:          frag3-234-3/31924
# Creation time: Sat Jun  5 12:52:29 2010


@<TRIPOS>MOLECULE
frag3-234-3/31924
   12    11     1     1     1
SMALL
USER_CHARGES


@<TRIPOS>ATOM
      1 S1         -1.3188    0.9086   -0.5389 S.3        1 <1>        0.000
      2 S2          0.2227    0.5547    0.6507 S.3        1 <1>        0.000
      3 S3          1.7011    1.3043   -0.4722 S.3        1 <1>        0.000
      4 C1          2.9752    1.3868    0.6893 C.2        1 <1>        0.000
      5 S4          3.5514    2.8530    1.3141 S.2        1 <1>        0.000
      6 O1          3.4862    0.2016    1.1360 O.3        1 <1>        0.000
      7 S5         -1.2103   -0.7261   -1.6959 S.3        1 <1>        0.000
      8 C3         -2.6747   -1.5214   -1.2019 C.2        1 <1>        0.000
      9 S6         -4.1676   -1.1625   -1.9360 S.2        1 <1>        0.000
     10 O2         -2.6136   -2.4086   -0.1751 O.3        1 <1>        0.000
     11 H           3.0522   -0.5242    0.6817 H.spc      1 <1>        0.000
     12 H          -1.7038   -2.4934    0.1193 H.spc      1 <1>        0.000
@<TRIPOS>BOND
     1    1    2 1  
     2    1    7 1  
     3    2    3 1  
     4    3    4 1  
     5    4    5 2  
     6    4    6 1  
     7    7    8 1  
     8    8    9 2  
     9    8   10 1  
    10    6   11 1  
    11   10   12 1  
# Name:          frag3-234-3/31924
# Creation time: Sat Jun  5 12:52:29 2010


@<TRIPOS>MOLECULE
frag3-234-3/31924
   12    11     1     1     1
SMALL
USER_CHARGES


@<TRIPOS>ATOM
      1 S1         -0.4529   -0.4868    0.5306 S.3        1 <1>        0.000
      2 S2          0.0347    1.1596    1.5287 S.3        1 <1>        0.000
      3 S3          1.0987    2.0839    0.1088 S.3        1 <1>        0.000
      4 C1          2.6435    1.3044    0.3493 C.2        1 <1>        0.000
      5 S4          3.6312    0.7860   -0.9194 S.2        1 <1>        0.000
      6 O1          3.0272    1.0995    1.6498 O.3        1 <1>        0.000
      7 S5         -1.9165    0.2467   -0.6218 S.3        1 <1>        0.000
      8 C3         -2.5392   -1.2003   -1.3483 C.2        1 <1>        0.000
      9 S6         -2.7930   -1.3532   -3.0055 S.2        1 <1>        0.000
     10 O2         -2.7822   -2.2493   -0.5023 O.3        1 <1>        0.000
     11 H           2.3566    1.4520    2.2394 H.spc      1 <1>        0.000
     12 H          -2.5841   -1.9846    0.3990 H.spc      1 <1>        0.000
@<TRIPOS>BOND
     1    1    2 1  
     2    1    7 1  
     3    2    3 1  
     4    3    4 1  
     5    4    5 2  
     6    4    6 1  
     7    7    8 1  
     8    8    9 2  
     9    8   10 1  
    10    6   11 1  
    11   10   12 1  
# Name:          frag3-234-3/31924
# Creation time: Sat Jun  5 12:52:29 2010


@<TRIPOS>MOLECULE
frag3-234-3/31924
   12    11     1     1     1
SMALL
USER_CHARGES


@<TRIPOS>ATOM
      1 S1         -0.5520   -1.2278    0.5623 S.3        1 <1>        0.000
      2 S2          0.3211    0.3014   -0.3510 S.3        1 <1>        0.000
      3 S3          1.1129    1.2528    1.2077 S.3        1 <1>        0.000
      4 C1          2.7358    1.4048    0.6637 C.2        1 <1>        0.000
      5 S4          3.1468    2.4200   -0.6401 S.2        1 <1>        0.000
      6 O1          3.6993    0.6522    1.2549 O.3        1 <1>        0.000
      7 S5         -2.4490   -0.6190    0.4396 S.3        1 <1>        0.000
      8 C3         -2.6594   -0.7967   -1.2835 C.2        1 <1>        0.000
      9 S6         -2.5169   -2.3107   -2.0504 S.2        1 <1>        0.000
     10 O2         -2.8870    0.3133   -2.0330 O.3        1 <1>        0.000
     11 H           3.3109    0.1391    1.9673 H.spc      1 <1>        0.000
     12 H          -2.9417    1.0804   -1.4584 H.spc      1 <1>        0.000
@<TRIPOS>BOND
     1    1    2 1  
     2    1    7 1  
     3    2    3 1  
     4    3    4 1  
     5    4    5 2  
     6    4    6 1  
     7    7    8 1  
     8    8    9 2  
     9    8   10 1  
    10    6   11 1  
    11   10   12 1  
# Name:          frag3-234-3/31924
# Creation time: Sat Jun  5 12:52:29 2010


@<TRIPOS>MOLECULE
frag3-234-3/31924
   12    11     1     1     1
SMALL
USER_CHARGES


@<TRIPOS>ATOM
      1 S1         -1.1015    1.0660    0.1682 S.3        1 <1>        0.000
      2 S2          0.3923    1.3648   -1.1283 S.3        1 <1>        0.000
      3 S3          1.6680    2.3428    0.0372 S.3        1 <1>        0.000
      4 C1          2.4264    0.9733    0.8107 C.2        1 <1>        0.000
      5 S4          3.4918   -0.0454   -0.0459 S.2        1 <1>        0.000
      6 O1          2.1156    0.6994    2.1019 O.3        1 <1>        0.000
      7 S5         -2.5080    0.4245   -1.0574 S.3        1 <1>        0.000
      8 C3         -2.2119   -1.2954   -1.0233 C.2        1 <1>        0.000
      9 S6         -3.2109   -2.4237   -1.7767 S.2        1 <1>        0.000
     10 O2         -1.1102   -1.7162   -0.3163 O.3        1 <1>        0.000
     11 H           1.5088    1.3660    2.4321 H.spc      1 <1>        0.000
     12 H          -0.6537   -0.9535    0.0464 H.spc      1 <1>        0.000
@<TRIPOS>BOND
     1    1    2 1  
     2    1    7 1  
     3    2    3 1  
     4    3    4 1  
     5    4    5 2  
     6    4    6 1  
     7    7    8 1  
     8    8    9 2  
     9    8   10 1  
    10    6   11 1  
    11   10   12 1  
# Name:          frag3-234-3/31924
# Creation time: Sat Jun  5 12:52:29 2010


@<TRIPOS>MOLECULE
frag3-234-3/31924
   12    11     1     1     1
SMALL
USER_CHARGES


@<TRIPOS>ATOM
      1 S1          0.8378   -1.1833    1.3116 S.3        1 <1>        0.000
      2 S2         -1.1377   -1.3650    1.4426 S.3        1 <1>        0.000
      3 S3         -1.5986   -1.7476   -0.4479 S.3        1 <1>        0.000
      4 C1         -1.6307   -0.1349   -1.1286 C.2        1 <1>        0.000
      5 S4         -0.9726    0.2634   -2.6181 S.2        1 <1>        0.000
      6 O1         -2.2210    0.8264   -0.3427 O.3        1 <1>        0.000
      7 S5          1.0546    0.7870    1.4090 S.3        1 <1>        0.000
      8 C3          1.7132    1.1674   -0.1562 C.2        1 <1>        0.000
      9 S6          1.2851    2.5179   -1.0507 S.2        1 <1>        0.000
     10 O2          2.6215    0.2592   -0.6490 O.3        1 <1>        0.000
     11 H          -2.5405    0.4235    0.4680 H.spc      1 <1>        0.000
     12 H           2.7469   -0.4455   -0.0093 H.spc      1 <1>        0.000
@<TRIPOS>BOND
     1    1    2 1  
     2    1    7 1  
     3    2    3 1  
     4    3    4 1  
     5    4    5 2  
     6    4    6 1  
     7    7    8 1  
     8    8    9 2  
     9    8   10 1  
    10    6   11 1  
    11   10   12 1  
# Name:          frag3-234-3/31924
# Creation time: Sat Jun  5 12:52:29 2010


@<TRIPOS>MOLECULE
frag3-234-3/31924
   12    11     1     1     1
SMALL
USER_CHARGES


@<TRIPOS>ATOM
      1 S1         -0.9877   -0.0816    1.1922 S.3        1 <1>        0.000
      2 S2          0.1125    1.4343    1.8221 S.3        1 <1>        0.000
      3 S3          1.9270    0.6016    1.6663 S.3        1 <1>        0.000
      4 C1          2.2558    0.9163   -0.0145 C.2        1 <1>        0.000
      5 S4          2.5967    2.4899   -0.5700 S.2        1 <1>        0.000
      6 O1          2.1842   -0.1124   -0.8981 O.3        1 <1>        0.000
      7 S5         -1.0749    0.2759   -0.7627 S.3        1 <1>        0.000
      8 C3         -2.0606   -1.0117   -1.3343 C.2        1 <1>        0.000
      9 S6         -2.5240   -1.1984   -2.9403 S.2        1 <1>        0.000
     10 O2         -2.4773   -1.9235   -0.3905 O.3        1 <1>        0.000
     11 H           1.9858   -0.9247   -0.4264 H.spc      1 <1>        0.000
     12 H          -2.1290   -1.6748    0.4688 H.spc      1 <1>        0.000
@<TRIPOS>BOND
     1    1    2 1  
     2    1    7 1  
     3    2    3 1  
     4    3    4 1  
     5    4    5 2  
     6    4    6 1  
     7    7    8 1  
     8    8    9 2  
     9    8   10 1  
    10    6   11 1  
    11   10   12 1  
# Name:          frag3-234-3/31924
# Creation time: Sat Jun  5 12:52:29 2010


@<TRIPOS>MOLECULE
frag3-234-3/31924
   12    11     1     1     1
SMALL
USER_CHARGES


@<TRIPOS>ATOM
      1 S1         -1.7373    0.5072    1.1437 S.3        1 <1>        0.000
      2 S2          0.0640    1.1281    1.6460 S.3        1 <1>        0.000
      3 S3          0.7648    1.7172   -0.1361 S.3        1 <1>        0.000
      4 C1          2.3595    1.0627   -0.0904 C.2        1 <1>        0.000
      5 S4          3.6262    1.8587    0.7184 S.2        1 <1>        0.000
      6 O1          2.5791   -0.1458   -0.6719 O.3        1 <1>        0.000
      7 S5         -1.3038   -1.2706    0.3553 S.3        1 <1>        0.000
      8 C3         -1.9562   -1.1464   -1.2512 C.2        1 <1>        0.000
      9 S6         -1.7853   -2.3289   -2.4228 S.2        1 <1>        0.000
     10 O2         -2.6594    0.0082   -1.5210 O.3        1 <1>        0.000
     11 H           1.7679   -0.4544   -1.0821 H.spc      1 <1>        0.000
     12 H          -2.6577    0.5716   -0.7437 H.spc      1 <1>        0.000
@<TRIPOS>BOND
     1    1    2 1  
     2    1    7 1  
     3    2    3 1  
     4    3    4 1  
     5    4    5 2  
     6    4    6 1  
     7    7    8 1  
     8    8    9 2  
     9    8   10 1  
    10    6   11 1  
    11   10   12 1  
# Name:          frag3-234-3/31924
# Creation time: Sat Jun  5 12:52:29 2010


@<TRIPOS>MOLECULE
frag3-234-3/31924
   12    11     1     1     1
SMALL
USER_CHARGES


@<TRIPOS>ATOM
      1 S1         -1.3552    0.7910    0.6380 S.3        1 <1>        0.000
      2 S2          0.0572    1.2019    1.9535 S.3        1 <1>        0.000
      3 S3          1.2822    2.2738    0.8073 S.3        1 <1>        0.000
      4 C1          2.2306    1.0298    0.0473 C.2        1 <1>        0.000
      5 S4          2.7739    1.0884   -1.5440 S.2        1 <1>        0.000
      6 O1          2.5178   -0.0703    0.8261 O.3        1 <1>        0.000
      7 S5         -0.5672   -0.7889   -0.3165 S.3        1 <1>        0.000
      8 C3         -1.9127   -1.3054   -1.2418 C.2        1 <1>        0.000
      9 S6         -2.6319   -0.3049   -2.4196 S.2        1 <1>        0.000
     10 O2         -2.4431   -2.5250   -0.9803 O.3        1 <1>        0.000
     11 H           2.1402    0.0506    1.7004 H.spc      1 <1>        0.000
     12 H          -1.9252   -2.9583   -0.2979 H.spc      1 <1>        0.000
@<TRIPOS>BOND
     1    1    2 1  
     2    1    7 1  
     3    2    3 1  
     4    3    4 1  
     5    4    5 2  
     6    4    6 1  
     7    7    8 1  
     8    8    9 2  
     9    8   10 1  
    10    6   11 1  
    11   10   12 1  
# Name:          frag3-234-3/31924
# Creation time: Sat Jun  5 12:52:29 2010


@<TRIPOS>MOLECULE
frag3-234-3/31924
   12    11     1     1     1
SMALL
USER_CHARGES


@<TRIPOS>ATOM
      1 S1          0.0621    1.3651    1.4930 S.3        1 <1>        0.000
      2 S2         -1.6179    0.6950    0.7027 S.3        1 <1>        0.000
      3 S3         -1.0392   -1.1103    0.0646 S.3        1 <1>        0.000
      4 C1         -2.2229   -1.4306   -1.1479 C.2        1 <1>        0.000
      5 S4         -1.8661   -1.4420   -2.8035 S.2        1 <1>        0.000
      6 O1         -3.5058   -1.6299   -0.7215 O.3        1 <1>        0.000
      7 S5          1.0189    1.9355   -0.1676 S.3        1 <1>        0.000
      8 C3          2.5555    1.1639    0.0377 C.2        1 <1>        0.000
      9 S6          4.0017    2.0387    0.1304 S.2        1 <1>        0.000
     10 O2          2.5654   -0.1952    0.1821 O.3        1 <1>        0.000
     11 H          -3.5325   -1.5927    0.2374 H.spc      1 <1>        0.000
     12 H           1.6695   -0.5308    0.1029 H.spc      1 <1>        0.000
@<TRIPOS>BOND
     1    1    2 1  
     2    1    7 1  
     3    2    3 1  
     4    3    4 1  
     5    4    5 2  
     6    4    6 1  
     7    7    8 1  
     8    8    9 2  
     9    8   10 1  
    10    6   11 1  
    11   10   12 1  
# Name:          frag3-234-3/31924
# Creation time: Sat Jun  5 12:52:29 2010


@<TRIPOS>MOLECULE
frag3-234-3/31924
   12    11     1     1     1
SMALL
USER_CHARGES


@<TRIPOS>ATOM
      1 S1         -1.3878    0.8147    0.5302 S.3        1 <1>        0.000
      2 S2          0.3649    0.4615    1.3265 S.3        1 <1>        0.000
      3 S3          1.5029    0.1661   -0.2809 S.3        1 <1>        0.000
      4 C1          2.7467    1.3011    0.0175 C.2        1 <1>        0.000
      5 S4          3.8550    1.0986    1.2911 S.2        1 <1>        0.000
      6 O1          2.8086    2.4257   -0.7436 O.3        1 <1>        0.000
      7 S5         -2.1922   -1.0147    0.5446 S.3        1 <1>        0.000
      8 C3         -2.5404   -1.2517   -1.1155 C.2        1 <1>        0.000
      9 S6         -1.3600   -1.2030   -2.3375 S.2        1 <1>        0.000
     10 O2         -3.8460   -1.4078   -1.4623 O.3        1 <1>        0.000
     11 H           2.1238    2.3940   -1.4156 H.spc      1 <1>        0.000
     12 H          -4.3876   -1.4162   -0.6697 H.spc      1 <1>        0.000
@<TRIPOS>BOND
     1    1    2 1  
     2    1    7 1  
     3    2    3 1  
     4    3    4 1  
     5    4    5 2  
     6    4    6 1  
     7    7    8 1  
     8    8    9 2  
     9    8   10 1  
    10    6   11 1  
    11   10   12 1  
# Name:          frag3-234-3/31924
# Creation time: Sat Jun  5 12:52:29 2010


@<TRIPOS>MOLECULE
frag3-234-3/31924
   12    11     1     1     1
SMALL
USER_CHARGES


@<TRIPOS>ATOM
      1 S1         -1.9992    0.9164    1.0533 S.3        1 <1>        0.000
      2 S2         -0.2628    1.8520    1.0007 S.3        1 <1>        0.000
      3 S3          1.0201    0.3767    1.3873 S.3        1 <1>        0.000
      4 C1          2.0815    0.4852    0.0338 C.2        1 <1>        0.000
      5 S4          3.1041    1.8132   -0.1863 S.2        1 <1>        0.000
      6 O1          2.0311   -0.5025   -0.8988 O.3        1 <1>        0.000
      7 S5         -2.3081    0.5707   -0.8648 S.3        1 <1>        0.000
      8 C3         -1.4821   -0.9255   -1.1317 C.2        1 <1>        0.000
      9 S6         -1.1803   -1.6066   -2.6298 S.2        1 <1>        0.000
     10 O2         -1.0527   -1.5891    0.0063 O.3        1 <1>        0.000
     11 H           1.4047   -1.1739   -0.6187 H.spc      1 <1>        0.000
     12 H          -1.2960   -1.0802    0.7831 H.spc      1 <1>        0.000
@<TRIPOS>BOND
     1    1    2 1  
     2    1    7 1  
     3    2    3 1  
     4    3    4 1  
     5    4    5 2  
     6    4    6 1  
     7    7    8 1  
     8    8    9 2  
     9    8   10 1  
    10    6   11 1  
    11   10   12 1  
# Name:          frag3-234-3/31924
# Creation time: Sat Jun  5 12:52:29 2010


@<TRIPOS>MOLECULE
frag3-234-3/31924
   12    11     1     1     1
SMALL
USER_CHARGES


@<TRIPOS>ATOM
      1 S1          0.0560    0.6599    0.7262 S.3        1 <1>        0.000
      2 S2         -1.1867    1.2998   -0.6801 S.3        1 <1>        0.000
      3 S3         -2.7830    0.2193   -0.2451 S.3        1 <1>        0.000
      4 C1         -2.4975   -1.2101   -1.1912 C.2        1 <1>        0.000
      5 S4         -3.7044   -1.9773   -2.0827 S.2        1 <1>        0.000
      6 O1         -1.2084   -1.6847   -1.2377 O.3        1 <1>        0.000
      7 S5          1.6852    0.2189   -0.3277 S.3        1 <1>        0.000
      8 C3          2.8848    0.9915    0.6426 C.2        1 <1>        0.000
      9 S6          2.9004    2.6729    0.9163 S.2        1 <1>        0.000
     10 O2          3.8053    0.2002    1.2495 O.3        1 <1>        0.000
     11 H          -0.6481   -1.1410   -0.6791 H.spc      1 <1>        0.000
     12 H           3.6599   -0.7132    0.9922 H.spc      1 <1>        0.000
@<TRIPOS>BOND
     1    1    2 1  
     2    1    7 1  
     3    2    3 1  
     4    3    4 1  
     5    4    5 2  
     6    4    6 1  
     7    7    8 1  
     8    8    9 2  
     9    8   10 1  
    10    6   11 1  
    11   10   12 1  
# Name:          frag3-234-3/31924
# Creation time: Sat Jun  5 12:52:29 2010


@<TRIPOS>MOLECULE
frag3-234-3/31924
   12    11     1     1     1
SMALL
USER_CHARGES


@<TRIPOS>ATOM
      1 S1          0.7002    0.3125   -0.9891 S.3        1 <1>        0.000
      2 S2         -0.8669    0.8090    0.1421 S.3        1 <1>        0.000
      3 S3         -2.3295    0.6873   -1.1669 S.3        1 <1>        0.000
      4 C1         -2.7337   -0.9989   -1.0546 C.2        1 <1>        0.000
      5 S4         -2.7994   -2.0463   -2.3741 S.2        1 <1>        0.000
      6 O1         -2.9750   -1.4792    0.2102 O.3        1 <1>        0.000
      7 S5          1.9515   -0.4213    0.3641 S.3        1 <1>        0.000
      8 C3          2.8141    1.0353    0.7605 C.2        1 <1>        0.000
      9 S6          2.0443    2.4292    1.3720 S.2        1 <1>        0.000
     10 O2          4.1458    1.0627    0.5059 O.3        1 <1>        0.000
     11 H          -2.8994   -0.7617    0.8435 H.spc      1 <1>        0.000
     12 H           4.4237    0.2077    0.1693 H.spc      1 <1>        0.000
@<TRIPOS>BOND
     1    1    2 1  
     2    1    7 1  
     3    2    3 1  
     4    3    4 1  
     5    4    5 2  
     6    4    6 1  
     7    7    8 1  
     8    8    9 2  
     9    8   10 1  
    10    6   11 1  
    11   10   12 1  
# Name:          frag3-234-3/31924
# Creation time: Sat Jun  5 12:52:29 2010


@<TRIPOS>MOLECULE
frag3-234-3/31924
   12    11     1     1     1
SMALL
USER_CHARGES


@<TRIPOS>ATOM
      1 S1         -0.1071    1.8623   -0.0925 S.3        1 <1>        0.000
      2 S2         -1.6733    0.9994    0.7679 S.3        1 <1>        0.000
      3 S3         -2.6940    0.3872   -0.8033 S.3        1 <1>        0.000
      4 C1         -1.9775   -1.1745   -1.0708 C.2        1 <1>        0.000
      5 S4         -1.3270   -1.6736   -2.5452 S.2        1 <1>        0.000
      6 O1         -1.9262   -2.0111    0.0167 O.3        1 <1>        0.000
      7 S5          1.2929    1.6051    1.2919 S.3        1 <1>        0.000
      8 C3          2.4462    0.6771    0.4004 C.2        1 <1>        0.000
      9 S6          3.2085    1.3107   -0.9885 S.2        1 <1>        0.000
     10 O2          2.7091   -0.5922    0.7935 O.3        1 <1>        0.000
     11 H          -2.3362   -1.5801    0.7702 H.spc      1 <1>        0.000
     12 H           2.2039   -0.7920    1.5850 H.spc      1 <1>        0.000
@<TRIPOS>BOND
     1    1    2 1  
     2    1    7 1  
     3    2    3 1  
     4    3    4 1  
     5    4    5 2  
     6    4    6 1  
     7    7    8 1  
     8    8    9 2  
     9    8   10 1  
    10    6   11 1  
    11   10   12 1  
# Name:          frag3-234-3/31924
# Creation time: Sat Jun  5 12:52:29 2010


@<TRIPOS>MOLECULE
frag3-234-3/31924
   12    11     1     1     1
SMALL
USER_CHARGES


@<TRIPOS>ATOM
      1 S1          0.1413    2.1177   -0.5985 S.3        1 <1>        0.000
      2 S2         -1.4298    1.1250    0.1012 S.3        1 <1>        0.000
      3 S3         -2.0552    0.1823   -1.5246 S.3        1 <1>        0.000
      4 C1         -2.2260   -1.4353   -0.9274 C.2        1 <1>        0.000
      5 S4         -1.5122   -2.7775   -1.6683 S.2        1 <1>        0.000
      6 O1         -2.9582   -1.5895    0.2190 O.3        1 <1>        0.000
      7 S5          1.3283    2.0802    0.9844 S.3        1 <1>        0.000
      8 C3          2.4960    0.8806    0.5060 C.2        1 <1>        0.000
      9 S6          4.0706    0.8408    1.1133 S.2        1 <1>        0.000
     10 O2          2.0967   -0.0338   -0.4350 O.3        1 <1>        0.000
     11 H          -3.2890   -0.7344    0.5035 H.spc      1 <1>        0.000
     12 H           1.1801    0.1293   -0.6694 H.spc      1 <1>        0.000
@<TRIPOS>BOND
     1    1    2 1  
     2    1    7 1  
     3    2    3 1  
     4    3    4 1  
     5    4    5 2  
     6    4    6 1  
     7    7    8 1  
     8    8    9 2  
     9    8   10 1  
    10    6   11 1  
    11   10   12 1  
# Name:          frag3-234-3/31924
# Creation time: Sat Jun  5 12:52:29 2010


@<TRIPOS>MOLECULE
frag3-234-3/31924
   12    11     1     1     1
SMALL
USER_CHARGES


@<TRIPOS>ATOM
      1 S1          0.4485    1.7781   -1.0736 S.3        1 <1>        0.000
      2 S2         -0.7444    0.7282    0.1313 S.3        1 <1>        0.000
      3 S3         -2.2938    0.4204   -1.0664 S.3        1 <1>        0.000
      4 C1         -2.5293   -1.2944   -0.8981 C.2        1 <1>        0.000
      5 S4         -2.8085   -2.3226   -2.1986 S.2        1 <1>        0.000
      6 O1         -2.4531   -1.7855    0.3804 O.3        1 <1>        0.000
      7 S5          2.0926    0.6756   -0.9790 S.3        1 <1>        0.000
      8 C3          2.5867    1.0201    0.6683 C.2        1 <1>        0.000
      9 S6          3.3603   -0.1030    1.6622 S.2        1 <1>        0.000
     10 O2          2.2926    2.2735    1.1437 O.3        1 <1>        0.000
     11 H          -2.2903   -1.0624    0.9906 H.spc      1 <1>        0.000
     12 H           1.8569    2.7815    0.4554 H.spc      1 <1>        0.000
@<TRIPOS>BOND
     1    1    2 1  
     2    1    7 1  
     3    2    3 1  
     4    3    4 1  
     5    4    5 2  
     6    4    6 1  
     7    7    8 1  
     8    8    9 2  
     9    8   10 1  
    10    6   11 1  
    11   10   12 1  
# Name:          frag3-234-3/31924
# Creation time: Sat Jun  5 12:52:29 2010


@<TRIPOS>MOLECULE
frag3-234-3/31924
   12    11     1     1     1
SMALL
USER_CHARGES


@<TRIPOS>ATOM
      1 S1         -0.1045   -0.8353   -0.1999 S.3        1 <1>        0.000
      2 S2          0.7043   -0.2768    1.5091 S.3        1 <1>        0.000
      3 S3          1.0449    1.6520    1.1114 S.3        1 <1>        0.000
      4 C1          2.6132    1.5199    0.3797 C.2        1 <1>        0.000
      5 S4          2.8831    1.5499   -1.2897 S.2        1 <1>        0.000
      6 O1          3.6658    1.3229    1.2327 O.3        1 <1>        0.000
      7 S5         -1.9642   -0.1102    0.0342 S.3        1 <1>        0.000
      8 C3         -2.7818   -0.9220   -1.2323 C.2        1 <1>        0.000
      9 S6         -2.3250   -0.7334   -2.8642 S.2        1 <1>        0.000
     10 O2         -3.7840   -1.7767   -0.9110 O.3        1 <1>        0.000
     11 H           3.3483    1.3327    2.1386 H.spc      1 <1>        0.000
     12 H          -3.9179   -1.7681    0.0396 H.spc      1 <1>        0.000
@<TRIPOS>BOND
     1    1    2 1  
     2    1    7 1  
     3    2    3 1  
     4    3    4 1  
     5    4    5 2  
     6    4    6 1  
     7    7    8 1  
     8    8    9 2  
     9    8   10 1  
    10    6   11 1  
    11   10   12 1  
# Name:          frag3-234-3/31924
# Creation time: Sat Jun  5 12:52:29 2010


@<TRIPOS>MOLECULE
frag3-234-3/31924
   12    11     1     1     1
SMALL
USER_CHARGES


@<TRIPOS>ATOM
      1 S1          0.1499    0.6819    1.8032 S.3        1 <1>        0.000
      2 S2         -1.0903    1.0438    0.3249 S.3        1 <1>        0.000
      3 S3         -2.1567   -0.6302    0.2954 S.3        1 <1>        0.000
      4 C1         -2.2007   -1.0205   -1.3547 C.2        1 <1>        0.000
      5 S4         -3.1107   -0.1321   -2.4719 S.2        1 <1>        0.000
      6 O1         -1.4161   -2.0373   -1.8074 O.3        1 <1>        0.000
      7 S5          1.5605   -0.4045    0.9109 S.3        1 <1>        0.000
      8 C3          2.5068    0.8699    0.2397 C.2        1 <1>        0.000
      9 S6          1.9531    1.9785   -0.9212 S.2        1 <1>        0.000
     10 O2          3.7559    1.0409    0.7511 O.3        1 <1>        0.000
     11 H          -0.9639   -2.4457   -1.0656 H.spc      1 <1>        0.000
     12 H           3.9362    0.3481    1.3908 H.spc      1 <1>        0.000
@<TRIPOS>BOND
     1    1    2 1  
     2    1    7 1  
     3    2    3 1  
     4    3    4 1  
     5    4    5 2  
     6    4    6 1  
     7    7    8 1  
     8    8    9 2  
     9    8   10 1  
    10    6   11 1  
    11   10   12 1  
# Name:          frag3-234-3/31924
# Creation time: Sat Jun  5 12:52:29 2010


@<TRIPOS>MOLECULE
frag3-234-3/31924
   12    11     1     1     1
SMALL
USER_CHARGES


@<TRIPOS>ATOM
      1 S1          0.6124    1.0014   -1.0454 S.3        1 <1>        0.000
      2 S2         -0.4919   -0.2040    0.0661 S.3        1 <1>        0.000
      3 S3         -2.3281    0.2677   -0.5624 S.3        1 <1>        0.000
      4 C1         -2.8848   -1.3004   -1.0028 C.2        1 <1>        0.000
      5 S4         -1.9180   -2.4056   -1.8773 S.2        1 <1>        0.000
      6 O1         -4.1144   -1.6807   -0.5819 O.3        1 <1>        0.000
      7 S5          1.3046    2.2071    0.3723 S.3        1 <1>        0.000
      8 C3          2.7846    1.3833    0.7549 C.2        1 <1>        0.000
      9 S6          4.2598    1.8047    0.0386 S.2        1 <1>        0.000
     10 O2          2.7275    0.3169    1.6078 O.3        1 <1>        0.000
     11 H          -4.5284   -0.9547   -0.1096 H.spc      1 <1>        0.000
     12 H           1.8280    0.2109    1.9260 H.spc      1 <1>        0.000
@<TRIPOS>BOND
     1    1    2 1  
     2    1    7 1  
     3    2    3 1  
     4    3    4 1  
     5    4    5 2  
     6    4    6 1  
     7    7    8 1  
     8    8    9 2  
     9    8   10 1  
    10    6   11 1  
    11   10   12 1  
# Name:          frag3-234-3/31924
# Creation time: Sat Jun  5 12:52:29 2010


@<TRIPOS>MOLECULE
frag3-234-3/31924
   12    11     1     1     1
SMALL
USER_CHARGES


@<TRIPOS>ATOM
      1 S1         -0.9885   -0.0282    0.7776 S.3        1 <1>        0.000
      2 S2          0.8134   -0.6767    1.2485 S.3        1 <1>        0.000
      3 S3          1.6825    1.0161    1.8376 S.3        1 <1>        0.000
      4 C1          2.5844    1.4225    0.4235 C.2        1 <1>        0.000
      5 S4          1.8653    1.8187   -1.0647 S.2        1 <1>        0.000
      6 O1          3.9398    1.3489    0.5086 O.3        1 <1>        0.000
      7 S5         -0.9899   -0.1924   -1.1922 S.3        1 <1>        0.000
      8 C3         -2.5034   -0.9391   -1.4828 C.2        1 <1>        0.000
      9 S6         -3.6682   -0.2984   -2.5161 S.2        1 <1>        0.000
     10 O2         -2.7837   -2.0811   -0.7700 O.3        1 <1>        0.000
     11 H           4.1909    1.1171    1.4057 H.spc      1 <1>        0.000
     12 H          -2.0240   -2.3157   -0.2320 H.spc      1 <1>        0.000
@<TRIPOS>BOND
     1    1    2 1  
     2    1    7 1  
     3    2    3 1  
     4    3    4 1  
     5    4    5 2  
     6    4    6 1  
     7    7    8 1  
     8    8    9 2  
     9    8   10 1  
    10    6   11 1  
    11   10   12 1  
# Name:          frag3-234-3/31924
# Creation time: Sat Jun  5 12:52:29 2010


@<TRIPOS>MOLECULE
frag3-234-3/31924
   12    11     1     1     1
SMALL
USER_CHARGES


@<TRIPOS>ATOM
      1 S1         -0.6059    0.5178   -1.0995 S.3        1 <1>        0.000
      2 S2          0.1643    0.6432    0.7245 S.3        1 <1>        0.000
      3 S3          1.9627   -0.1209    0.4350 S.3        1 <1>        0.000
      4 C1          2.9254    1.3170    0.5436 C.2        1 <1>        0.000
      5 S4          3.8377    1.6840    1.9234 S.2        1 <1>        0.000
      6 O1          2.8839    2.1976   -0.4995 O.3        1 <1>        0.000
      7 S5         -2.5411    0.4058   -0.6705 S.3        1 <1>        0.000
      8 C3         -2.8347   -1.2682   -1.0095 C.2        1 <1>        0.000
      9 S6         -2.7495   -1.8766   -2.6000 S.2        1 <1>        0.000
     10 O2         -3.0912   -2.1092    0.0225 O.3        1 <1>        0.000
     11 H           2.3276    1.8410   -1.1959 H.spc      1 <1>        0.000
     12 H          -3.1053   -1.6116    0.8434 H.spc      1 <1>        0.000
@<TRIPOS>BOND
     1    1    2 1  
     2    1    7 1  
     3    2    3 1  
     4    3    4 1  
     5    4    5 2  
     6    4    6 1  
     7    7    8 1  
     8    8    9 2  
     9    8   10 1  
    10    6   11 1  
    11   10   12 1  
# Name:          frag3-234-3/31924
# Creation time: Sat Jun  5 12:52:29 2010


@<TRIPOS>MOLECULE
frag3-234-3/31924
   12    11     1     1     1
SMALL
USER_CHARGES


@<TRIPOS>ATOM
      1 S1         -1.9447    0.8702    0.7160 S.3        1 <1>        0.000
      2 S2         -0.1732    1.7446    0.7150 S.3        1 <1>        0.000
      3 S3          1.0357    0.1593    0.6247 S.3        1 <1>        0.000
      4 C1          2.5678    0.9020    0.3708 C.2        1 <1>        0.000
      5 S4          3.9779    0.3992    1.1513 S.2        1 <1>        0.000
      6 O1          2.6000    1.9751   -0.4827 O.3        1 <1>        0.000
      7 S5         -2.1414    0.5178   -1.2390 S.3        1 <1>        0.000
      8 C3         -1.9825   -1.2113   -1.3036 C.2        1 <1>        0.000
      9 S6         -2.8149   -2.1674   -2.4171 S.2        1 <1>        0.000
     10 O2         -1.1732   -1.7992   -0.3655 O.3        1 <1>        0.000
     11 H           1.7213    2.1260   -0.8386 H.spc      1 <1>        0.000
     12 H          -0.7776   -1.1196    0.1852 H.spc      1 <1>        0.000
@<TRIPOS>BOND
     1    1    2 1  
     2    1    7 1  
     3    2    3 1  
     4    3    4 1  
     5    4    5 2  
     6    4    6 1  
     7    7    8 1  
     8    8    9 2  
     9    8   10 1  
    10    6   11 1  
    11   10   12 1  
# Name:          frag3-234-3/31924
# Creation time: Sat Jun  5 12:52:29 2010


@<TRIPOS>MOLECULE
frag3-234-3/31924
   12    11     1     1     1
SMALL
USER_CHARGES


@<TRIPOS>ATOM
      1 S1         -0.0613    1.3167    0.2177 S.3        1 <1>        0.000
      2 S2         -1.3185    0.0481    1.0862 S.3        1 <1>        0.000
      3 S3         -2.8197    0.1396   -0.2008 S.3        1 <1>        0.000
      4 C1         -2.3114   -1.0095   -1.4170 C.2        1 <1>        0.000
      5 S4         -3.3767   -2.0098   -2.2353 S.2        1 <1>        0.000
      6 O1         -0.9584   -1.1017   -1.6440 O.3        1 <1>        0.000
      7 S5          1.4653    0.1123   -0.2222 S.3        1 <1>        0.000
      8 C3          2.7481    0.9704    0.5501 C.2        1 <1>        0.000
      9 S6          3.2972    2.4684   -0.0474 S.2        1 <1>        0.000
     10 O2          3.2870    0.4560    1.6826 O.3        1 <1>        0.000
     11 H          -0.4988   -0.4609   -1.0965 H.spc      1 <1>        0.000
     12 H           2.8701   -0.3858    1.8803 H.spc      1 <1>        0.000
@<TRIPOS>BOND
     1    1    2 1  
     2    1    7 1  
     3    2    3 1  
     4    3    4 1  
     5    4    5 2  
     6    4    6 1  
     7    7    8 1  
     8    8    9 2  
     9    8   10 1  
    10    6   11 1  
    11   10   12 1  
# Name:          frag3-234-3/31924
# Creation time: Sat Jun  5 12:52:29 2010


@<TRIPOS>MOLECULE
frag3-234-3/31924
   12    11     1     1     1
SMALL
USER_CHARGES


@<TRIPOS>ATOM
      1 S1         -1.2785    0.3774    0.9553 S.3        1 <1>        0.000
      2 S2          0.5648   -0.0379    1.4388 S.3        1 <1>        0.000
      3 S3          1.5225    0.0610   -0.2993 S.3        1 <1>        0.000
      4 C1          2.7028    1.2423    0.0458 C.2        1 <1>        0.000
      5 S4          2.4725    2.9064   -0.1009 S.2        1 <1>        0.000
      6 O1          3.8852    0.7775    0.5591 O.3        1 <1>        0.000
      7 S5         -1.9246   -1.4098    0.3122 S.3        1 <1>        0.000
      8 C3         -2.5270   -1.0250   -1.2366 C.2        1 <1>        0.000
      9 S6         -1.7142   -0.0026   -2.3306 S.2        1 <1>        0.000
     10 O2         -3.7518   -1.4988   -1.5739 O.3        1 <1>        0.000
     11 H           3.8683   -0.1821    0.5804 H.spc      1 <1>        0.000
     12 H          -4.0839   -2.0564   -0.8665 H.spc      1 <1>        0.000
@<TRIPOS>BOND
     1    1    2 1  
     2    1    7 1  
     3    2    3 1  
     4    3    4 1  
     5    4    5 2  
     6    4    6 1  
     7    7    8 1  
     8    8    9 2  
     9    8   10 1  
    10    6   11 1  
    11   10   12 1  
# Name:          frag3-234-3/31924
# Creation time: Sat Jun  5 12:52:29 2010


@<TRIPOS>MOLECULE
frag3-234-3/31924
   12    11     1     1     1
SMALL
USER_CHARGES


@<TRIPOS>ATOM
      1 S1         -1.0401   -0.2764    1.1579 S.3        1 <1>        0.000
      2 S2          0.7975   -0.1277    1.8624 S.3        1 <1>        0.000
      3 S3          1.1802    1.7775    1.3605 S.3        1 <1>        0.000
      4 C1          2.2143    1.5297   -0.0131 C.2        1 <1>        0.000
      5 S4          3.8371    1.0486    0.1795 S.2        1 <1>        0.000
      6 O1          1.6942    1.6803   -1.2572 O.3        1 <1>        0.000
      7 S5         -0.6821   -0.6150   -0.7740 S.3        1 <1>        0.000
      8 C3         -2.2372   -1.0749   -1.3554 C.2        1 <1>        0.000
      9 S6         -2.5869   -1.3365   -2.9816 S.2        1 <1>        0.000
     10 O2         -3.2254   -1.2153   -0.4090 O.3        1 <1>        0.000
     11 H           0.7763    1.9530   -1.1882 H.spc      1 <1>        0.000
     12 H          -2.8624   -1.0322    0.4607 H.spc      1 <1>        0.000
@<TRIPOS>BOND
     1    1    2 1  
     2    1    7 1  
     3    2    3 1  
     4    3    4 1  
     5    4    5 2  
     6    4    6 1  
     7    7    8 1  
     8    8    9 2  
     9    8   10 1  
    10    6   11 1  
    11   10   12 1  
# Name:          frag3-234-3/31924
# Creation time: Sat Jun  5 12:52:29 2010


@<TRIPOS>MOLECULE
frag3-234-3/31924
   12    11     1     1     1
SMALL
USER_CHARGES


@<TRIPOS>ATOM
      1 S1         -1.0509   -0.3090    1.3825 S.3        1 <1>        0.000
      2 S2          0.2563    1.1019    1.7761 S.3        1 <1>        0.000
      3 S3          1.9710    0.2076    1.3441 S.3        1 <1>        0.000
      4 C1          2.3000    0.8654   -0.2097 C.2        1 <1>        0.000
      5 S4          2.5480    2.5341   -0.4387 S.2        1 <1>        0.000
      6 O1          2.3065    0.0427   -1.2894 O.3        1 <1>        0.000
      7 S5         -2.1517    0.4691   -0.0672 S.3        1 <1>        0.000
      8 C3         -2.1433   -0.7911   -1.2365 C.2        1 <1>        0.000
      9 S6         -0.7850   -1.2239   -2.1332 S.2        1 <1>        0.000
     10 O2         -3.2993   -1.5063   -1.3580 O.3        1 <1>        0.000
     11 H           2.1547   -0.8608   -1.0027 H.spc      1 <1>        0.000
     12 H          -3.9692   -1.1298   -0.7826 H.spc      1 <1>        0.000
@<TRIPOS>BOND
     1    1    2 1  
     2    1    7 1  
     3    2    3 1  
     4    3    4 1  
     5    4    5 2  
     6    4    6 1  
     7    7    8 1  
     8    8    9 2  
     9    8   10 1  
    10    6   11 1  
    11   10   12 1  
# Name:          frag3-234-3/31924
# Creation time: Sat Jun  5 12:52:29 2010


@<TRIPOS>MOLECULE
frag3-234-3/31924
   12    11     1     1     1
SMALL
USER_CHARGES


@<TRIPOS>ATOM
      1 S1          0.1389    0.5281    1.4860 S.3        1 <1>        0.000
      2 S2         -1.7938    0.5488    1.0973 S.3        1 <1>        0.000
      3 S3         -2.0124   -1.2925    0.3701 S.3        1 <1>        0.000
      4 C1         -2.1082   -1.0005   -1.3369 C.2        1 <1>        0.000
      5 S4         -2.2783   -2.2133   -2.4888 S.2        1 <1>        0.000
      6 O1         -2.0577    0.3180   -1.7358 O.3        1 <1>        0.000
      7 S5          0.9126    0.8933   -0.3277 S.3        1 <1>        0.000
      8 C3          2.5732    1.0853    0.0645 C.2        1 <1>        0.000
      9 S6          3.1545    2.4448    0.9065 S.2        1 <1>        0.000
     10 O2          3.4228    0.0785   -0.2651 O.3        1 <1>        0.000
     11 H          -1.9595    0.8810   -0.9644 H.spc      1 <1>        0.000
     12 H           2.9394   -0.6063   -0.7330 H.spc      1 <1>        0.000
@<TRIPOS>BOND
     1    1    2 1  
     2    1    7 1  
     3    2    3 1  
     4    3    4 1  
     5    4    5 2  
     6    4    6 1  
     7    7    8 1  
     8    8    9 2  
     9    8   10 1  
    10    6   11 1  
    11   10   12 1  
# Name:          frag3-234-3/31924
# Creation time: Sat Jun  5 12:52:29 2010


@<TRIPOS>MOLECULE
frag3-234-3/31924
   12    11     1     1     1
SMALL
USER_CHARGES


@<TRIPOS>ATOM
      1 S1         -1.6268   -0.2623    1.3194 S.3        1 <1>        0.000
      2 S2          0.0193    0.8009    1.5287 S.3        1 <1>        0.000
      3 S3          1.2744   -0.1580    0.2985 S.3        1 <1>        0.000
      4 C1          2.5854    0.9456    0.2421 C.2        1 <1>        0.000
      5 S4          2.5835    2.3151   -0.7630 S.2        1 <1>        0.000
      6 O1          3.6278    0.7280    1.0896 O.3        1 <1>        0.000
      7 S5         -2.3205    0.5136   -0.3796 S.3        1 <1>        0.000
      8 C3         -2.0760   -0.7834   -1.5020 C.2        1 <1>        0.000
      9 S6         -3.1098   -1.0950   -2.7940 S.2        1 <1>        0.000
     10 O2         -1.0056   -1.6141   -1.2698 O.3        1 <1>        0.000
     11 H           3.4747   -0.0817    1.5821 H.spc      1 <1>        0.000
     12 H          -0.5197   -1.3014   -0.5032 H.spc      1 <1>        0.000
@<TRIPOS>BOND
     1    1    2 1  
     2    1    7 1  
     3    2    3 1  
     4    3    4 1  
     5    4    5 2  
     6    4    6 1  
     7    7    8 1  
     8    8    9 2  
     9    8   10 1  
    10    6   11 1  
    11   10   12 1  
# Name:          frag3-234-3/31924
# Creation time: Sat Jun  5 12:52:29 2010


@<TRIPOS>MOLECULE
frag3-234-3/31924
   12    11     1     1     1
SMALL
USER_CHARGES


@<TRIPOS>ATOM
      1 S1          0.5344   -0.5921    0.6774 S.3        1 <1>        0.000
      2 S2         -0.2833    0.4492   -0.8066 S.3        1 <1>        0.000
      3 S3         -2.1829    0.4276   -0.2549 S.3        1 <1>        0.000
      4 C1         -2.6871   -0.9853   -1.1048 C.2        1 <1>        0.000
      5 S4         -2.6861   -1.0596   -2.8027 S.2        1 <1>        0.000
      6 O1         -3.0371   -2.0942   -0.3976 O.3        1 <1>        0.000
      7 S5          1.3648    0.8699    1.7236 S.3        1 <1>        0.000
      8 C3          2.6399    1.3179    0.6138 C.2        1 <1>        0.000
      9 S6          2.4604    2.3942   -0.6667 S.2        1 <1>        0.000
     10 O2          3.8285    0.6629    0.7887 O.3        1 <1>        0.000
     11 H          -2.9910   -1.9011    0.5416 H.spc      1 <1>        0.000
     12 H           3.7672    0.0908    1.5571 H.spc      1 <1>        0.000
@<TRIPOS>BOND
     1    1    2 1  
     2    1    7 1  
     3    2    3 1  
     4    3    4 1  
     5    4    5 2  
     6    4    6 1  
     7    7    8 1  
     8    8    9 2  
     9    8   10 1  
    10    6   11 1  
    11   10   12 1  
# Name:          frag3-234-3/31924
# Creation time: Sat Jun  5 12:52:29 2010


@<TRIPOS>MOLECULE
frag3-234-3/31924
   12    11     1     1     1
SMALL
USER_CHARGES


@<TRIPOS>ATOM
      1 S1         -0.7583    0.3336    0.3243 S.3        1 <1>        0.000
      2 S2          0.4641    1.2193   -0.9805 S.3        1 <1>        0.000
      3 S3          2.1575    0.2824   -0.5699 S.3        1 <1>        0.000
      4 C1          2.7039    1.2416    0.7856 C.2        1 <1>        0.000
      5 S4          4.2764    1.8516    0.8887 S.2        1 <1>        0.000
      6 O1          1.7884    1.5312    1.7626 O.3        1 <1>        0.000
      7 S5         -2.4509    0.3582   -0.6957 S.3        1 <1>        0.000
      8 C3         -2.6491   -1.3308   -1.0943 C.2        1 <1>        0.000
      9 S6         -3.6808   -1.8842   -2.2972 S.2        1 <1>        0.000
     10 O2         -1.8995   -2.2124   -0.3534 O.3        1 <1>        0.000
     11 H           0.9523    1.1095    1.5512 H.spc      1 <1>        0.000
     12 H          -1.3715   -1.7253    0.2834 H.spc      1 <1>        0.000
@<TRIPOS>BOND
     1    1    2 1  
     2    1    7 1  
     3    2    3 1  
     4    3    4 1  
     5    4    5 2  
     6    4    6 1  
     7    7    8 1  
     8    8    9 2  
     9    8   10 1  
    10    6   11 1  
    11   10   12 1  
# Name:          frag3-234-3/31924
# Creation time: Sat Jun  5 12:52:29 2010


@<TRIPOS>MOLECULE
frag3-234-3/31924
   12    11     1     1     1
SMALL
USER_CHARGES


@<TRIPOS>ATOM
      1 S1         -0.9977    1.1371   -0.3764 S.3        1 <1>        0.000
      2 S2          0.6926    0.9748   -1.4357 S.3        1 <1>        0.000
      3 S3          1.8567    2.1978   -0.4024 S.3        1 <1>        0.000
      4 C1          2.3771    1.1099    0.8650 C.2        1 <1>        0.000
      5 S4          4.0011    0.9573    1.3139 S.2        1 <1>        0.000
      6 O1          1.4225    0.3329    1.4616 O.3        1 <1>        0.000
      7 S5         -2.2605    0.2215   -1.5902 S.3        1 <1>        0.000
      8 C3         -2.3136   -1.3663   -0.8663 C.2        1 <1>        0.000
      9 S6         -3.3664   -2.5799   -1.3832 S.2        1 <1>        0.000
     10 O2         -1.4604   -1.5946    0.1837 O.3        1 <1>        0.000
     11 H           0.5620    0.5456    1.0929 H.spc      1 <1>        0.000
     12 H          -0.9361   -0.8069    0.3456 H.spc      1 <1>        0.000
@<TRIPOS>BOND
     1    1    2 1  
     2    1    7 1  
     3    2    3 1  
     4    3    4 1  
     5    4    5 2  
     6    4    6 1  
     7    7    8 1  
     8    8    9 2  
     9    8   10 1  
    10    6   11 1  
    11   10   12 1  
# Name:          frag3-234-3/31924
# Creation time: Sat Jun  5 12:52:29 2010


@<TRIPOS>MOLECULE
frag3-234-3/31924
   12    11     1     1     1
SMALL
USER_CHARGES


@<TRIPOS>ATOM
      1 S1          0.3991    0.0254    0.2711 S.3        1 <1>        0.000
      2 S2         -1.1103    0.9970   -0.5951 S.3        1 <1>        0.000
      3 S3         -2.6190   -0.1557   -0.0084 S.3        1 <1>        0.000
      4 C1         -2.6560   -1.2957   -1.3359 C.2        1 <1>        0.000
      5 S4         -3.7175   -2.6082   -1.3908 S.2        1 <1>        0.000
      6 O1         -1.7743   -1.0759   -2.3630 O.3        1 <1>        0.000
      7 S5          1.2420    1.5214    1.2751 S.3        1 <1>        0.000
      8 C3          2.9110    1.3254    0.7980 C.2        1 <1>        0.000
      9 S6          3.8703    2.6051    0.2658 S.2        1 <1>        0.000
     10 O2          3.4064    0.0517    0.8533 O.3        1 <1>        0.000
     11 H          -1.2502   -0.2947   -2.1717 H.spc      1 <1>        0.000
     12 H           2.7249   -0.5417    1.1775 H.spc      1 <1>        0.000
@<TRIPOS>BOND
     1    1    2 1  
     2    1    7 1  
     3    2    3 1  
     4    3    4 1  
     5    4    5 2  
     6    4    6 1  
     7    7    8 1  
     8    8    9 2  
     9    8   10 1  
    10    6   11 1  
    11   10   12 1  
# Name:          frag3-234-3/31924
# Creation time: Sat Jun  5 12:52:29 2010


@<TRIPOS>MOLECULE
frag3-234-3/31924
   12    11     1     1     1
SMALL
USER_CHARGES


@<TRIPOS>ATOM
      1 S1          0.0278    0.4298    0.8601 S.3        1 <1>        0.000
      2 S2         -1.7295    1.0473    0.1667 S.3        1 <1>        0.000
      3 S3         -1.6702    0.2018   -1.6403 S.3        1 <1>        0.000
      4 C1         -2.3194   -1.3732   -1.2500 C.2        1 <1>        0.000
      5 S4         -3.1681   -2.3132   -2.3658 S.2        1 <1>        0.000
      6 O1         -2.1468   -1.8181    0.0365 O.3        1 <1>        0.000
      7 S5          1.1976    1.8839    0.1460 S.3        1 <1>        0.000
      8 C3          2.7798    1.2463    0.4707 C.2        1 <1>        0.000
      9 S6          3.9759    2.1344    1.2565 S.2        1 <1>        0.000
     10 O2          3.0045   -0.0487    0.0895 O.3        1 <1>        0.000
     11 H          -1.6463   -1.1676    0.5344 H.spc      1 <1>        0.000
     12 H           2.2194   -0.3952   -0.3408 H.spc      1 <1>        0.000
@<TRIPOS>BOND
     1    1    2 1  
     2    1    7 1  
     3    2    3 1  
     4    3    4 1  
     5    4    5 2  
     6    4    6 1  
     7    7    8 1  
     8    8    9 2  
     9    8   10 1  
    10    6   11 1  
    11   10   12 1  
# Name:          frag3-234-3/31924
# Creation time: Sat Jun  5 12:52:29 2010


@<TRIPOS>MOLECULE
frag3-234-3/31924
   12    11     1     1     1
SMALL
USER_CHARGES


@<TRIPOS>ATOM
      1 S1         -1.1225    1.0169    0.1149 S.3        1 <1>        0.000
      2 S2          0.3320    1.0716   -1.2554 S.3        1 <1>        0.000
      3 S3          1.6245    2.2516   -0.3565 S.3        1 <1>        0.000
      4 C1          2.5259    1.0830    0.5690 C.2        1 <1>        0.000
      5 S4          4.2000    1.1518    0.7524 S.2        1 <1>        0.000
      6 O1          1.8199    0.0403    1.1203 O.3        1 <1>        0.000
      7 S5         -2.6397    0.3545   -0.9743 S.3        1 <1>        0.000
      8 C3         -2.4048   -1.3594   -0.7682 C.2        1 <1>        0.000
      9 S6         -1.1115   -2.2084   -1.4803 S.2        1 <1>        0.000
     10 O2         -3.2723   -2.0114    0.0482 O.3        1 <1>        0.000
     11 H           0.8861    0.1497    0.9264 H.spc      1 <1>        0.000
     12 H          -3.9371   -1.3952    0.3644 H.spc      1 <1>        0.000
@<TRIPOS>BOND
     1    1    2 1  
     2    1    7 1  
     3    2    3 1  
     4    3    4 1  
     5    4    5 2  
     6    4    6 1  
     7    7    8 1  
     8    8    9 2  
     9    8   10 1  
    10    6   11 1  
    11   10   12 1  
# Name:          frag3-234-3/31924
# Creation time: Sat Jun  5 12:52:29 2010


@<TRIPOS>MOLECULE
frag3-234-3/31924
   12    11     1     1     1
SMALL
USER_CHARGES


@<TRIPOS>ATOM
      1 S1         -0.0954    1.8857    0.0660 S.3        1 <1>        0.000
      2 S2         -0.6027   -0.0039    0.4108 S.3        1 <1>        0.000
      3 S3         -1.0656   -0.5741   -1.4464 S.3        1 <1>        0.000
      4 C1         -2.5197   -1.4783   -1.1733 C.2        1 <1>        0.000
      5 S4         -3.7066   -1.7062   -2.3354 S.2        1 <1>        0.000
      6 O1         -2.6653   -2.0062    0.0894 O.3        1 <1>        0.000
      7 S5          1.6680    1.5493   -0.8216 S.3        1 <1>        0.000
      8 C3          2.6563    1.2617    0.5892 C.2        1 <1>        0.000
      9 S6          4.0468    2.1616    0.9196 S.2        1 <1>        0.000
     10 O2          2.2358    0.3008    1.4717 O.3        1 <1>        0.000
     11 H          -1.8978   -1.7802    0.6199 H.spc      1 <1>        0.000
     12 H           1.4375   -0.1133    1.1357 H.spc      1 <1>        0.000
@<TRIPOS>BOND
     1    1    2 1  
     2    1    7 1  
     3    2    3 1  
     4    3    4 1  
     5    4    5 2  
     6    4    6 1  
     7    7    8 1  
     8    8    9 2  
     9    8   10 1  
    10    6   11 1  
    11   10   12 1  
# Name:          frag3-234-3/31924
# Creation time: Sat Jun  5 12:52:29 2010


@<TRIPOS>MOLECULE
frag3-234-3/31924
   12    11     1     1     1
SMALL
USER_CHARGES


@<TRIPOS>ATOM
      1 S1         -0.0829    2.0812    0.8555 S.3        1 <1>        0.000
      2 S2         -0.8125    0.2401    0.8300 S.3        1 <1>        0.000
      3 S3         -2.0282    0.3483   -0.7486 S.3        1 <1>        0.000
      4 C1         -2.2919   -1.3056   -1.1013 C.2        1 <1>        0.000
      5 S4         -1.4775   -2.1372   -2.3276 S.2        1 <1>        0.000
      6 O1         -3.1666   -1.9777   -0.2920 O.3        1 <1>        0.000
      7 S5          1.2311    1.9203   -0.6355 S.3        1 <1>        0.000
      8 C3          2.4582    0.9659    0.1529 C.2        1 <1>        0.000
      9 S6          4.0409    1.5032    0.3631 S.2        1 <1>        0.000
     10 O2          2.0810   -0.2482    0.6735 O.3        1 <1>        0.000
     11 H          -3.5424   -1.3680    0.3472 H.spc      1 <1>        0.000
     12 H           1.1566   -0.4090    0.4703 H.spc      1 <1>        0.000
@<TRIPOS>BOND
     1    1    2 1  
     2    1    7 1  
     3    2    3 1  
     4    3    4 1  
     5    4    5 2  
     6    4    6 1  
     7    7    8 1  
     8    8    9 2  
     9    8   10 1  
    10    6   11 1  
    11   10   12 1  
# Name:          frag3-234-3/31924
# Creation time: Sat Jun  5 12:52:29 2010


@<TRIPOS>MOLECULE
frag3-234-3/31924
   12    11     1     1     1
SMALL
USER_CHARGES


@<TRIPOS>ATOM
      1 S1          0.2150    0.0519    1.1051 S.3        1 <1>        0.000
      2 S2         -1.7301    0.4596    1.0983 S.3        1 <1>        0.000
      3 S3         -2.4451   -1.2653    0.4263 S.3        1 <1>        0.000
      4 C1         -2.2453   -1.0438   -1.2955 C.2        1 <1>        0.000
      5 S4         -1.6762   -2.2565   -2.3268 S.2        1 <1>        0.000
      6 O1         -2.5538    0.1949   -1.7918 O.3        1 <1>        0.000
      7 S5          0.9430    1.6191    0.1274 S.3        1 <1>        0.000
      8 C3          2.6349    1.2586    0.1145 C.2        1 <1>        0.000
      9 S6          3.8190    2.3922    0.5305 S.2        1 <1>        0.000
     10 O2          2.9902   -0.0202   -0.2180 O.3        1 <1>        0.000
     11 H          -2.8596    0.7578   -1.0768 H.spc      1 <1>        0.000
     12 H           2.2014   -0.5267   -0.4249 H.spc      1 <1>        0.000
@<TRIPOS>BOND
     1    1    2 1  
     2    1    7 1  
     3    2    3 1  
     4    3    4 1  
     5    4    5 2  
     6    4    6 1  
     7    7    8 1  
     8    8    9 2  
     9    8   10 1  
    10    6   11 1  
    11   10   12 1  
# Name:          frag3-234-3/31924
# Creation time: Sat Jun  5 12:52:29 2010


@<TRIPOS>MOLECULE
frag3-234-3/31924
   12    11     1     1     1
SMALL
USER_CHARGES


@<TRIPOS>ATOM
      1 S1         -1.3588    0.2869    0.5017 S.3        1 <1>        0.000
      2 S2          0.5886   -0.0819    0.4526 S.3        1 <1>        0.000
      3 S3          1.2798    1.7889    0.3322 S.3        1 <1>        0.000
      4 C1          2.9569    1.5432    0.6950 C.2        1 <1>        0.000
      5 S4          4.1661    2.6202    0.2071 S.2        1 <1>        0.000
      6 O1          3.2804    0.4070    1.3868 O.3        1 <1>        0.000
      7 S5         -1.7690    0.0923   -1.4438 S.3        1 <1>        0.000
      8 C3         -2.7401   -1.3568   -1.4112 C.2        1 <1>        0.000
      9 S6         -3.8935   -1.7055   -2.5982 S.2        1 <1>        0.000
     10 O2         -2.5588   -2.2041   -0.3522 O.3        1 <1>        0.000
     11 H           2.4802   -0.0858    1.5827 H.spc      1 <1>        0.000
     12 H          -1.8711   -1.8564    0.2203 H.spc      1 <1>        0.000
@<TRIPOS>BOND
     1    1    2 1  
     2    1    7 1  
     3    2    3 1  
     4    3    4 1  
     5    4    5 2  
     6    4    6 1  
     7    7    8 1  
     8    8    9 2  
     9    8   10 1  
    10    6   11 1  
    11   10   12 1  
# Name:          frag3-234-3/31924
# Creation time: Sat Jun  5 12:52:29 2010


@<TRIPOS>MOLECULE
frag3-234-3/31924
   12    11     1     1     1
SMALL
USER_CHARGES


@<TRIPOS>ATOM
      1 S1         -0.2896   -0.1331   -0.7916 S.3        1 <1>        0.000
      2 S2          0.5805   -0.1225    0.9807 S.3        1 <1>        0.000
      3 S3          1.1818    1.7825    1.0709 S.3        1 <1>        0.000
      4 C1          2.8475    1.5580    0.6562 C.2        1 <1>        0.000
      5 S4          3.3582    0.9868   -0.8642 S.2        1 <1>        0.000
      6 O1          3.7687    1.7870    1.6310 O.3        1 <1>        0.000
      7 S5         -2.2003    0.0645   -0.2421 S.3        1 <1>        0.000
      8 C3         -2.9186   -1.1806   -1.2046 C.2        1 <1>        0.000
      9 S6         -3.0246   -1.0473   -2.8900 S.2        1 <1>        0.000
     10 O2         -3.3521   -2.3049   -0.5763 O.3        1 <1>        0.000
     11 H           3.3248    2.1035    2.4212 H.spc      1 <1>        0.000
     12 H          -3.2191   -2.2128    0.3700 H.spc      1 <1>        0.000
@<TRIPOS>BOND
     1    1    2 1  
     2    1    7 1  
     3    2    3 1  
     4    3    4 1  
     5    4    5 2  
     6    4    6 1  
     7    7    8 1  
     8    8    9 2  
     9    8   10 1  
    10    6   11 1  
    11   10   12 1  
# Name:          frag3-234-3/31924
# Creation time: Sat Jun  5 12:52:29 2010


@<TRIPOS>MOLECULE
frag3-234-3/31924
   12    11     1     1     1
SMALL
USER_CHARGES


@<TRIPOS>ATOM
      1 S1         -0.8494    0.0416    0.4574 S.3        1 <1>        0.000
      2 S2          0.1359    1.7540    0.3430 S.3        1 <1>        0.000
      3 S3          1.7247    1.1379   -0.7199 S.3        1 <1>        0.000
      4 C1          2.9179    1.1598    0.5460 C.2        1 <1>        0.000
      5 S4          3.5775    2.6291    1.1072 S.2        1 <1>        0.000
      6 O1          3.2868   -0.0143    1.1135 O.3        1 <1>        0.000
      7 S5         -1.8078    0.0890   -1.2967 S.3        1 <1>        0.000
      8 C3         -2.7435   -1.3623   -1.2209 C.2        1 <1>        0.000
      9 S6         -3.1918   -2.2446   -2.5890 S.2        1 <1>        0.000
     10 O2         -3.0987   -1.7999    0.0294 O.3        1 <1>        0.000
     11 H           2.8248   -0.7364    0.6814 H.spc      1 <1>        0.000
     12 H          -2.7666   -1.1859    0.6884 H.spc      1 <1>        0.000
@<TRIPOS>BOND
     1    1    2 1  
     2    1    7 1  
     3    2    3 1  
     4    3    4 1  
     5    4    5 2  
     6    4    6 1  
     7    7    8 1  
     8    8    9 2  
     9    8   10 1  
    10    6   11 1  
    11   10   12 1  
# Name:          frag3-234-3/31924
# Creation time: Sat Jun  5 12:52:29 2010


@<TRIPOS>MOLECULE
frag3-234-3/31924
   12    11     1     1     1
SMALL
USER_CHARGES


@<TRIPOS>ATOM
      1 S1         -0.2864   -0.6885    0.3888 S.3        1 <1>        0.000
      2 S2         -0.0264    1.1891   -0.2453 S.3        1 <1>        0.000
      3 S3          1.0278    1.9242    1.2674 S.3        1 <1>        0.000
      4 C1          2.6288    1.4320    0.7578 C.2        1 <1>        0.000
      5 S4          3.3681    2.1244   -0.6038 S.2        1 <1>        0.000
      6 O1          3.2466    0.4441    1.4518 O.3        1 <1>        0.000
      7 S5         -0.8353   -1.5716   -1.2861 S.3        1 <1>        0.000
      8 C3         -2.5513   -1.2540   -1.2704 C.2        1 <1>        0.000
      9 S6         -3.4821   -1.0533   -2.6600 S.2        1 <1>        0.000
     10 O2         -3.1381   -1.1559   -0.0302 O.3        1 <1>        0.000
     11 H           2.6893    0.1729    2.1850 H.spc      1 <1>        0.000
     12 H          -2.4738   -1.2949    0.6488 H.spc      1 <1>        0.000
@<TRIPOS>BOND
     1    1    2 1  
     2    1    7 1  
     3    2    3 1  
     4    3    4 1  
     5    4    5 2  
     6    4    6 1  
     7    7    8 1  
     8    8    9 2  
     9    8   10 1  
    10    6   11 1  
    11   10   12 1  
# Name:          frag3-234-3/31924
# Creation time: Sat Jun  5 12:52:29 2010


@<TRIPOS>MOLECULE
frag3-234-3/31924
   12    11     1     1     1
SMALL
USER_CHARGES


@<TRIPOS>ATOM
      1 S1          0.8077    0.8580   -0.9849 S.3        1 <1>        0.000
      2 S2         -1.1048    0.9559   -0.4869 S.3        1 <1>        0.000
      3 S3         -1.9132   -0.0836   -1.9709 S.3        1 <1>        0.000
      4 C1         -2.7899   -1.3057   -1.1086 C.2        1 <1>        0.000
      5 S4         -3.7308   -2.4813   -1.8683 S.2        1 <1>        0.000
      6 O1         -2.7066   -1.2703    0.2619 O.3        1 <1>        0.000
      7 S5          1.5980    0.0907    0.6659 S.3        1 <1>        0.000
      8 C3          2.9011    1.2018    0.9476 C.2        1 <1>        0.000
      9 S6          3.2120    1.9096    2.4501 S.2        1 <1>        0.000
     10 O2          3.6782    1.5153   -0.1361 O.3        1 <1>        0.000
     11 H          -2.1353   -0.5462    0.5280 H.spc      1 <1>        0.000
     12 H           3.3672    1.0287   -0.9030 H.spc      1 <1>        0.000
@<TRIPOS>BOND
     1    1    2 1  
     2    1    7 1  
     3    2    3 1  
     4    3    4 1  
     5    4    5 2  
     6    4    6 1  
     7    7    8 1  
     8    8    9 2  
     9    8   10 1  
    10    6   11 1  
    11   10   12 1  
# Name:          frag3-234-3/31924
# Creation time: Sat Jun  5 12:52:29 2010


@<TRIPOS>MOLECULE
frag3-234-3/31924
   12    11     1     1     1
SMALL
USER_CHARGES


@<TRIPOS>ATOM
      1 S1          0.1208    0.9721    0.7697 S.3        1 <1>        0.000
      2 S2         -0.5661   -0.8304    0.3317 S.3        1 <1>        0.000
      3 S3         -1.3300   -0.4593   -1.4825 S.3        1 <1>        0.000
      4 C1         -2.8329   -1.3130   -1.3837 C.2        1 <1>        0.000
      5 S4         -4.1854   -0.9205   -2.3145 S.2        1 <1>        0.000
      6 O1         -2.8909   -2.3478   -0.4842 O.3        1 <1>        0.000
      7 S5          1.7092    1.0073   -0.4548 S.3        1 <1>        0.000
      8 C3          2.9420    1.5376    0.6425 C.2        1 <1>        0.000
      9 S6          3.8790    2.9178    0.3487 S.2        1 <1>        0.000
     10 O2          3.1059    0.8266    1.7972 O.3        1 <1>        0.000
     11 H          -2.0428   -2.4346   -0.0429 H.spc      1 <1>        0.000
     12 H           2.5006    0.0815    1.8015 H.spc      1 <1>        0.000
@<TRIPOS>BOND
     1    1    2 1  
     2    1    7 1  
     3    2    3 1  
     4    3    4 1  
     5    4    5 2  
     6    4    6 1  
     7    7    8 1  
     8    8    9 2  
     9    8   10 1  
    10    6   11 1  
    11   10   12 1  
# Name:          frag3-234-3/31924
# Creation time: Sat Jun  5 12:52:29 2010


@<TRIPOS>MOLECULE
frag3-234-3/31924
   12    11     1     1     1
SMALL
USER_CHARGES


@<TRIPOS>ATOM
      1 S1         -0.0185    0.1266    1.2568 S.3        1 <1>        0.000
      2 S2         -1.0826    1.1543   -0.0962 S.3        1 <1>        0.000
      3 S3         -2.7067    0.0254   -0.1747 S.3        1 <1>        0.000
      4 C1         -2.2029   -1.1581   -1.3721 C.2        1 <1>        0.000
      5 S4         -3.2966   -2.1135   -2.2216 S.2        1 <1>        0.000
      6 O1         -0.8556   -1.2546   -1.6083 O.3        1 <1>        0.000
      7 S5          1.3688    1.4703    1.6945 S.3        1 <1>        0.000
      8 C3          2.5595    1.0946    0.4670 C.2        1 <1>        0.000
      9 S6          3.4737    2.2742   -0.3263 S.2        1 <1>        0.000
     10 O2          2.7124   -0.2288    0.1510 O.3        1 <1>        0.000
     11 H          -0.3871   -0.6406   -1.0381 H.spc      1 <1>        0.000
     12 H           2.1209   -0.7564    0.6927 H.spc      1 <1>        0.000
@<TRIPOS>BOND
     1    1    2 1  
     2    1    7 1  
     3    2    3 1  
     4    3    4 1  
     5    4    5 2  
     6    4    6 1  
     7    7    8 1  
     8    8    9 2  
     9    8   10 1  
    10    6   11 1  
    11   10   12 1  
# Name:          frag3-234-3/31924
# Creation time: Sat Jun  5 12:52:29 2010


@<TRIPOS>MOLECULE
frag3-234-3/31924
   12    11     1     1     1
SMALL
USER_CHARGES


@<TRIPOS>ATOM
      1 S1          0.3052   -0.2103    0.9324 S.3        1 <1>        0.000
      2 S2         -1.6229    0.2545    1.0427 S.3        1 <1>        0.000
      3 S3         -1.9888    0.5575   -0.8959 S.3        1 <1>        0.000
      4 C1         -2.3416   -1.0797   -1.3944 C.2        1 <1>        0.000
      5 S4         -2.7294   -1.4995   -2.9809 S.2        1 <1>        0.000
      6 O1         -2.3079   -2.0429   -0.4149 O.3        1 <1>        0.000
      7 S5          1.0910    1.6275    0.9170 S.3        1 <1>        0.000
      8 C3          2.7142    1.3117    0.3866 C.2        1 <1>        0.000
      9 S6          3.5198    2.2771   -0.7314 S.2        1 <1>        0.000
     10 O2          3.3121    0.1947    0.9088 O.3        1 <1>        0.000
     11 H          -2.0722   -1.6376    0.4229 H.spc      1 <1>        0.000
     12 H           2.7110   -0.2301    1.5251 H.spc      1 <1>        0.000
@<TRIPOS>BOND
     1    1    2 1  
     2    1    7 1  
     3    2    3 1  
     4    3    4 1  
     5    4    5 2  
     6    4    6 1  
     7    7    8 1  
     8    8    9 2  
     9    8   10 1  
    10    6   11 1  
    11   10   12 1  
# Name:          frag3-234-3/31924
# Creation time: Sat Jun  5 12:52:29 2010


@<TRIPOS>MOLECULE
frag3-234-3/31924
   12    11     1     1     1
SMALL
USER_CHARGES


@<TRIPOS>ATOM
      1 S1          0.2141    1.0931   -0.0702 S.3        1 <1>        0.000
      2 S2         -1.3536    0.2089    0.7446 S.3        1 <1>        0.000
      3 S3         -1.3397   -1.5142   -0.2589 S.3        1 <1>        0.000
      4 C1         -2.7362   -1.2924   -1.2691 C.2        1 <1>        0.000
      5 S4         -2.7845   -1.7140   -2.9028 S.2        1 <1>        0.000
      6 O1         -3.8314   -0.7174   -0.6741 O.3        1 <1>        0.000
      7 S5          1.6519    0.4717    1.1868 S.3        1 <1>        0.000
      8 C3          3.0157    1.2974    0.5282 C.2        1 <1>        0.000
      9 S6          3.1250    2.9998    0.5387 S.2        1 <1>        0.000
     10 O2          3.9904    0.5575   -0.0533 O.3        1 <1>        0.000
     11 H          -3.6372   -0.5422    0.2496 H.spc      1 <1>        0.000
     12 H           3.7751   -0.3744    0.0287 H.spc      1 <1>        0.000
@<TRIPOS>BOND
     1    1    2 1  
     2    1    7 1  
     3    2    3 1  
     4    3    4 1  
     5    4    5 2  
     6    4    6 1  
     7    7    8 1  
     8    8    9 2  
     9    8   10 1  
    10    6   11 1  
    11   10   12 1  
# Name:          frag3-234-3/31924
# Creation time: Sat Jun  5 12:52:29 2010


@<TRIPOS>MOLECULE
frag3-234-3/31924
   12    11     1     1     1
SMALL
USER_CHARGES


@<TRIPOS>ATOM
      1 S1         -0.0660    1.2011    0.2095 S.3        1 <1>        0.000
      2 S2          0.1006   -0.3059   -1.0927 S.3        1 <1>        0.000
      3 S3         -1.5775   -0.0860   -2.1055 S.3        1 <1>        0.000
      4 C1         -2.6473   -1.1568   -1.2285 C.2        1 <1>        0.000
      5 S4         -4.0760   -1.7559   -1.8711 S.2        1 <1>        0.000
      6 O1         -2.2409   -1.5211    0.0342 O.3        1 <1>        0.000
      7 S5          1.1988    0.5945    1.6138 S.3        1 <1>        0.000
      8 C3          2.6838    1.2094    0.9298 C.2        1 <1>        0.000
      9 S6          3.0402    2.8748    0.9440 S.2        1 <1>        0.000
     10 O2          3.5359    0.3362    0.3366 O.3        1 <1>        0.000
     11 H          -1.4088   -1.0881    0.2387 H.spc      1 <1>        0.000
     12 H           3.1874   -0.5546    0.4180 H.spc      1 <1>        0.000
@<TRIPOS>BOND
     1    1    2 1  
     2    1    7 1  
     3    2    3 1  
     4    3    4 1  
     5    4    5 2  
     6    4    6 1  
     7    7    8 1  
     8    8    9 2  
     9    8   10 1  
    10    6   11 1  
    11   10   12 1  
# Name:          frag3-234-3/31924
# Creation time: Sat Jun  5 12:52:29 2010


@<TRIPOS>MOLECULE
frag3-234-3/31924
   12    11     1     1     1
SMALL
USER_CHARGES


@<TRIPOS>ATOM
      1 S1         -0.0499    0.3414    0.6928 S.3        1 <1>        0.000
      2 S2         -1.7852    1.0793    0.0767 S.3        1 <1>        0.000
      3 S3         -1.8043    0.3025   -1.7748 S.3        1 <1>        0.000
      4 C1         -2.1882   -1.3481   -1.3472 C.2        1 <1>        0.000
      5 S4         -3.7131   -1.7634   -0.7077 S.2        1 <1>        0.000
      6 O1         -1.2297   -2.2977   -1.4860 O.3        1 <1>        0.000
      7 S5          1.1950    1.6963   -0.0766 S.3        1 <1>        0.000
      8 C3          2.7078    1.2150    0.5942 C.2        1 <1>        0.000
      9 S6          3.9923    2.2740    0.8542 S.2        1 <1>        0.000
     10 O2          2.8266   -0.1090    0.9443 O.3        1 <1>        0.000
     11 H          -0.4386   -1.9004   -1.8573 H.spc      1 <1>        0.000
     12 H           2.0118   -0.5696    0.7309 H.spc      1 <1>        0.000
@<TRIPOS>BOND
     1    1    2 1  
     2    1    7 1  
     3    2    3 1  
     4    3    4 1  
     5    4    5 2  
     6    4    6 1  
     7    7    8 1  
     8    8    9 2  
     9    8   10 1  
    10    6   11 1  
    11   10   12 1  
# Name:          frag3-234-3/31924
# Creation time: Sat Jun  5 12:52:29 2010


@<TRIPOS>MOLECULE
frag3-234-3/31924
   12    11     1     1     1
SMALL
USER_CHARGES


@<TRIPOS>ATOM
      1 S1         -0.0001    1.5440    1.6062 S.3        1 <1>        0.000
      2 S2         -1.4394    0.3072    1.0673 S.3        1 <1>        0.000
      3 S3         -1.1424    0.2133   -0.9036 S.3        1 <1>        0.000
      4 C1         -2.0431   -1.1860   -1.3396 C.2        1 <1>        0.000
      5 S4         -2.6622   -1.4496   -2.8842 S.2        1 <1>        0.000
      6 O1         -2.2769   -2.1019   -0.3412 O.3        1 <1>        0.000
      7 S5          1.5725    0.3109    1.4445 S.3        1 <1>        0.000
      8 C3          2.3773    0.9890    0.0644 C.2        1 <1>        0.000
      9 S6          3.5938    2.1622    0.2314 S.2        1 <1>        0.000
     10 O2          1.9720    0.6014   -1.1754 O.3        1 <1>        0.000
     11 H          -1.8585   -1.8035    0.4697 H.spc      1 <1>        0.000
     12 H           1.2838   -0.0628   -1.0928 H.spc      1 <1>        0.000
@<TRIPOS>BOND
     1    1    2 1  
     2    1    7 1  
     3    2    3 1  
     4    3    4 1  
     5    4    5 2  
     6    4    6 1  
     7    7    8 1  
     8    8    9 2  
     9    8   10 1  
    10    6   11 1  
    11   10   12 1  
# Name:          frag3-234-3/31924
# Creation time: Sat Jun  5 12:52:29 2010


@<TRIPOS>MOLECULE
frag3-234-3/31924
   12    11     1     1     1
SMALL
USER_CHARGES


@<TRIPOS>ATOM
      1 S1         -1.2441    0.2787    0.6407 S.3        1 <1>        0.000
      2 S2          0.1521    1.5483    0.0504 S.3        1 <1>        0.000
      3 S3          1.7040    0.3264   -0.1727 S.3        1 <1>        0.000
      4 C1          2.9664    1.2705    0.5513 C.2        1 <1>        0.000
      5 S4          4.3631    0.5952    1.2177 S.2        1 <1>        0.000
      6 O1          2.7793    2.6292    0.5716 O.3        1 <1>        0.000
      7 S5         -2.4465    0.3215   -0.9456 S.3        1 <1>        0.000
      8 C3         -2.7028   -1.3701   -1.2348 C.2        1 <1>        0.000
      9 S6         -2.8654   -2.0325   -2.7803 S.2        1 <1>        0.000
     10 O2         -2.7546   -2.1770   -0.1284 O.3        1 <1>        0.000
     11 H           1.9410    2.8419    0.1550 H.spc      1 <1>        0.000
     12 H          -2.6458   -1.6424    0.6615 H.spc      1 <1>        0.000
@<TRIPOS>BOND
     1    1    2 1  
     2    1    7 1  
     3    2    3 1  
     4    3    4 1  
     5    4    5 2  
     6    4    6 1  
     7    7    8 1  
     8    8    9 2  
     9    8   10 1  
    10    6   11 1  
    11   10   12 1  
# Name:          frag3-234-3/31924
# Creation time: Sat Jun  5 12:52:29 2010


@<TRIPOS>MOLECULE
frag3-234-3/31924
   12    11     1     1     1
SMALL
USER_CHARGES


@<TRIPOS>ATOM
      1 S1         -1.0541    0.3359    0.7861 S.3        1 <1>        0.000
      2 S2          0.6736   -0.6229    0.5169 S.3        1 <1>        0.000
      3 S3          1.9078    0.5430    1.5247 S.3        1 <1>        0.000
      4 C1          2.7007    1.3764    0.2092 C.2        1 <1>        0.000
      5 S4          2.8506    3.0486    0.1238 S.2        1 <1>        0.000
      6 O1          3.1805    0.5780   -0.7981 O.3        1 <1>        0.000
      7 S5         -2.3430   -1.1532    0.5196 S.3        1 <1>        0.000
      8 C3         -2.6438   -0.9555   -1.1870 C.2        1 <1>        0.000
      9 S6         -1.4847   -1.3417   -2.3749 S.2        1 <1>        0.000
     10 O2         -3.8359   -0.4183   -1.5504 O.3        1 <1>        0.000
     11 H           3.0102   -0.3422   -0.5842 H.spc      1 <1>        0.000
     12 H          -4.3676   -0.2623   -0.7665 H.spc      1 <1>        0.000
@<TRIPOS>BOND
     1    1    2 1  
     2    1    7 1  
     3    2    3 1  
     4    3    4 1  
     5    4    5 2  
     6    4    6 1  
     7    7    8 1  
     8    8    9 2  
     9    8   10 1  
    10    6   11 1  
    11   10   12 1  
# Name:          frag3-234-3/31924
# Creation time: Sat Jun  5 12:52:29 2010


@<TRIPOS>MOLECULE
frag3-234-3/31924
   12    11     1     1     1
SMALL
USER_CHARGES


@<TRIPOS>ATOM
      1 S1          0.0412    0.6082    0.6782 S.3        1 <1>        0.000
      2 S2         -1.6010    1.2477   -0.2279 S.3        1 <1>        0.000
      3 S3         -1.5865    0.0336   -1.8078 S.3        1 <1>        0.000
      4 C1         -2.4206   -1.3451   -1.1420 C.2        1 <1>        0.000
      5 S4         -3.0646   -2.5826   -2.0850 S.2        1 <1>        0.000
      6 O1         -2.5715   -1.3762    0.2255 O.3        1 <1>        0.000
      7 S5          1.4181    1.6930   -0.2999 S.3        1 <1>        0.000
      8 C3          2.8527    1.1708    0.4965 C.2        1 <1>        0.000
      9 S6          3.1575    1.5377    2.1329 S.2        1 <1>        0.000
     10 O2          3.7261    0.4031   -0.2005 O.3        1 <1>        0.000
     11 H          -2.1501   -0.6043    0.6104 H.spc      1 <1>        0.000
     12 H           3.4075    0.2937   -1.0995 H.spc      1 <1>        0.000
@<TRIPOS>BOND
     1    1    2 1  
     2    1    7 1  
     3    2    3 1  
     4    3    4 1  
     5    4    5 2  
     6    4    6 1  
     7    7    8 1  
     8    8    9 2  
     9    8   10 1  
    10    6   11 1  
    11   10   12 1  
# Name:          frag3-234-3/31924
# Creation time: Sat Jun  5 12:52:29 2010


@<TRIPOS>MOLECULE
frag3-234-3/31924
   12    11     1     1     1
SMALL
USER_CHARGES


@<TRIPOS>ATOM
      1 S1          0.4196    0.7979   -0.7950 S.3        1 <1>        0.000
      2 S2         -0.8872    0.2814    0.6229 S.3        1 <1>        0.000
      3 S3         -2.5770    0.4211   -0.3841 S.3        1 <1>        0.000
      4 C1         -2.6206   -1.1322   -1.1926 C.2        1 <1>        0.000
      5 S4         -3.5233   -1.4408   -2.5704 S.2        1 <1>        0.000
      6 O1         -1.8522   -2.1224   -0.6231 O.3        1 <1>        0.000
      7 S5          2.0448   -0.1482   -0.1539 S.3        1 <1>        0.000
      8 C3          2.7715    1.1438    0.7613 C.2        1 <1>        0.000
      9 S6          3.3105    2.5710   -0.0020 S.2        1 <1>        0.000
     10 O2          2.8655    1.0187    2.1068 O.3        1 <1>        0.000
     11 H          -1.4062   -1.7737    0.1522 H.spc      1 <1>        0.000
     12 H           2.5210    0.1629    2.3723 H.spc      1 <1>        0.000
@<TRIPOS>BOND
     1    1    2 1  
     2    1    7 1  
     3    2    3 1  
     4    3    4 1  
     5    4    5 2  
     6    4    6 1  
     7    7    8 1  
     8    8    9 2  
     9    8   10 1  
    10    6   11 1  
    11   10   12 1  
# Name:          frag3-234-3/31924
# Creation time: Sat Jun  5 12:52:29 2010


@<TRIPOS>MOLECULE
frag3-234-3/31924
   12    11     1     1     1
SMALL
USER_CHARGES


@<TRIPOS>ATOM
      1 S1          0.0255    0.4008    0.7354 S.3        1 <1>        0.000
      2 S2         -1.7550    1.1711    0.3570 S.3        1 <1>        0.000
      3 S3         -2.0458    0.4613   -1.4827 S.3        1 <1>        0.000
      4 C1         -2.3332   -1.2140   -1.0952 C.2        1 <1>        0.000
      5 S4         -1.2387   -2.4605   -1.4217 S.2        1 <1>        0.000
      6 O1         -3.5021   -1.4933   -0.4375 O.3        1 <1>        0.000
      7 S5          1.2092    1.7752   -0.1191 S.3        1 <1>        0.000
      8 C3          2.7562    1.1269    0.2261 C.2        1 <1>        0.000
      9 S6          3.2746    0.8252    1.8219 S.2        1 <1>        0.000
     10 O2          3.5610    0.7977   -0.8141 O.3        1 <1>        0.000
     11 H          -4.0089   -0.6850   -0.3307 H.spc      1 <1>        0.000
     12 H           3.1275    1.0298   -1.6386 H.spc      1 <1>        0.000
@<TRIPOS>BOND
     1    1    2 1  
     2    1    7 1  
     3    2    3 1  
     4    3    4 1  
     5    4    5 2  
     6    4    6 1  
     7    7    8 1  
     8    8    9 2  
     9    8   10 1  
    10    6   11 1  
    11   10   12 1  
# Name:          frag3-234-3/31924
# Creation time: Sat Jun  5 12:52:29 2010


@<TRIPOS>MOLECULE
frag3-234-3/31924
   12    11     1     1     1
SMALL
USER_CHARGES


@<TRIPOS>ATOM
      1 S1          0.1925   -0.0524    1.7148 S.3        1 <1>        0.000
      2 S2         -1.2402    0.8709    0.6776 S.3        1 <1>        0.000
      3 S3         -2.4140   -0.6491    0.2296 S.3        1 <1>        0.000
      4 C1         -2.0325   -0.8872   -1.4573 C.2        1 <1>        0.000
      5 S4         -3.1651   -1.4049   -2.5838 S.2        1 <1>        0.000
      6 O1         -0.7497   -0.5846   -1.8427 O.3        1 <1>        0.000
      7 S5          1.5948    1.3461    1.7451 S.3        1 <1>        0.000
      8 C3          2.4051    0.9909    0.2414 C.2        1 <1>        0.000
      9 S6          1.9879    1.7266   -1.2310 S.2        1 <1>        0.000
     10 O2          3.3729    0.0341    0.2762 O.3        1 <1>        0.000
     11 H          -0.2431   -0.3081   -1.0756 H.spc      1 <1>        0.000
     12 H           3.4837   -0.2747    1.1784 H.spc      1 <1>        0.000
@<TRIPOS>BOND
     1    1    2 1  
     2    1    7 1  
     3    2    3 1  
     4    3    4 1  
     5    4    5 2  
     6    4    6 1  
     7    7    8 1  
     8    8    9 2  
     9    8   10 1  
    10    6   11 1  
    11   10   12 1  
# Name:          frag3-234-3/31924
# Creation time: Sat Jun  5 12:52:29 2010


@<TRIPOS>MOLECULE
frag3-234-3/31924
   12    11     1     1     1
SMALL
USER_CHARGES


@<TRIPOS>ATOM
      1 S1         -0.0482    1.2903    1.3817 S.3        1 <1>        0.000
      2 S2         -1.5639    0.0282    1.4388 S.3        1 <1>        0.000
      3 S3         -2.5311    0.4739   -0.2213 S.3        1 <1>        0.000
      4 C1         -1.9720   -0.7524   -1.3034 C.2        1 <1>        0.000
      5 S4         -1.2915   -0.4592   -2.8124 S.2        1 <1>        0.000
      6 O1         -2.0797   -2.0485   -0.8466 O.3        1 <1>        0.000
      7 S5          1.5245    0.0782    1.3433 S.3        1 <1>        0.000
      8 C3          2.4274    0.7344    0.0253 C.2        1 <1>        0.000
      9 S6          1.9419    0.6015   -1.5837 S.2        1 <1>        0.000
     10 O2          3.5442    1.4440    0.3485 O.3        1 <1>        0.000
     11 H          -2.4858   -2.0473    0.0233 H.spc      1 <1>        0.000
     12 H           3.6747    1.4177    1.2992 H.spc      1 <1>        0.000
@<TRIPOS>BOND
     1    1    2 1  
     2    1    7 1  
     3    2    3 1  
     4    3    4 1  
     5    4    5 2  
     6    4    6 1  
     7    7    8 1  
     8    8    9 2  
     9    8   10 1  
    10    6   11 1  
    11   10   12 1  
# Name:          frag3-234-3/31924
# Creation time: Sat Jun  5 12:52:29 2010


@<TRIPOS>MOLECULE
frag3-234-3/31924
   12    11     1     1     1
SMALL
USER_CHARGES


@<TRIPOS>ATOM
      1 S1         -1.2233    1.2536   -1.1650 S.3        1 <1>        0.000
      2 S2          0.7521    1.2353   -1.3804 S.3        1 <1>        0.000
      3 S3          1.3152    2.2138    0.2460 S.3        1 <1>        0.000
      4 C1          2.3699    1.0498    0.9850 C.2        1 <1>        0.000
      5 S4          3.8288    1.4843    1.7224 S.2        1 <1>        0.000
      6 O1          1.9996   -0.2660    0.9122 O.3        1 <1>        0.000
      7 S5         -1.7097   -0.4030   -2.1343 S.3        1 <1>        0.000
      8 C3         -2.2440   -1.4136   -0.8219 C.2        1 <1>        0.000
      9 S6         -3.5540   -2.4729   -0.9647 S.2        1 <1>        0.000
     10 O2         -1.5831   -1.2909    0.3707 O.3        1 <1>        0.000
     11 H           1.1521   -0.3346    0.4664 H.spc      1 <1>        0.000
     12 H          -0.8719   -0.6529    0.2770 H.spc      1 <1>        0.000
@<TRIPOS>BOND
     1    1    2 1  
     2    1    7 1  
     3    2    3 1  
     4    3    4 1  
     5    4    5 2  
     6    4    6 1  
     7    7    8 1  
     8    8    9 2  
     9    8   10 1  
    10    6   11 1  
    11   10   12 1  
# Name:          frag3-234-3/31924
# Creation time: Sat Jun  5 12:52:29 2010


@<TRIPOS>MOLECULE
frag3-234-3/31924
   12    11     1     1     1
SMALL
USER_CHARGES


@<TRIPOS>ATOM
      1 S1          0.7441   -0.1465    0.8307 S.3        1 <1>        0.000
      2 S2         -1.0283    0.3265    0.0952 S.3        1 <1>        0.000
      3 S3         -1.2392   -1.1468   -1.2439 S.3        1 <1>        0.000
      4 C1         -2.9607   -1.2953   -1.2782 C.2        1 <1>        0.000
      5 S4         -3.8779   -0.8539   -2.6344 S.2        1 <1>        0.000
      6 O1         -3.5798   -1.7328   -0.1433 O.3        1 <1>        0.000
      7 S5          1.9250    0.7613   -0.5132 S.3        1 <1>        0.000
      8 C3          3.0446    1.5439    0.5526 C.2        1 <1>        0.000
      9 S6          2.7741    3.0964    1.1876 S.2        1 <1>        0.000
     10 O2          4.1497    0.8375    0.9169 O.3        1 <1>        0.000
     11 H          -2.9186   -1.9388    0.5215 H.spc      1 <1>        0.000
     12 H           4.1471   -0.0118    0.4694 H.spc      1 <1>        0.000
@<TRIPOS>BOND
     1    1    2 1  
     2    1    7 1  
     3    2    3 1  
     4    3    4 1  
     5    4    5 2  
     6    4    6 1  
     7    7    8 1  
     8    8    9 2  
     9    8   10 1  
    10    6   11 1  
    11   10   12 1  
# Name:          frag3-234-3/31924
# Creation time: Sat Jun  5 12:52:29 2010


@<TRIPOS>MOLECULE
frag3-234-3/31924
   12    11     1     1     1
SMALL
USER_CHARGES


@<TRIPOS>ATOM
      1 S1         -0.9002    0.4041    0.6587 S.3        1 <1>        0.000
      2 S2          0.0625    2.1026    0.4170 S.3        1 <1>        0.000
      3 S3          1.4598    1.5121   -0.8934 S.3        1 <1>        0.000
      4 C1          2.6333    0.9096    0.2287 C.2        1 <1>        0.000
      5 S4          3.4146    1.9373    1.3383 S.2        1 <1>        0.000
      6 O1          2.8929   -0.4236    0.2600 O.3        1 <1>        0.000
      7 S5         -1.9873    0.3527   -1.0255 S.3        1 <1>        0.000
      8 C3         -2.4698   -1.2830   -1.0712 C.2        1 <1>        0.000
      9 S6         -1.3730   -2.5605   -1.3005 S.2        1 <1>        0.000
     10 O2         -3.7812   -1.5609   -0.8422 O.3        1 <1>        0.000
     11 H           2.3800   -0.8644   -0.4213 H.spc      1 <1>        0.000
     12 H          -4.2670   -0.7400   -0.7343 H.spc      1 <1>        0.000
@<TRIPOS>BOND
     1    1    2 1  
     2    1    7 1  
     3    2    3 1  
     4    3    4 1  
     5    4    5 2  
     6    4    6 1  
     7    7    8 1  
     8    8    9 2  
     9    8   10 1  
    10    6   11 1  
    11   10   12 1  
# Name:          frag3-234-3/31924
# Creation time: Sat Jun  5 12:52:29 2010


@<TRIPOS>MOLECULE
frag3-234-3/31924
   12    11     1     1     1
SMALL
USER_CHARGES


@<TRIPOS>ATOM
      1 S1          0.3205   -0.2604    1.5497 S.3        1 <1>        0.000
      2 S2         -1.6450   -0.5160    1.6084 S.3        1 <1>        0.000
      3 S3         -1.8611   -1.7656    0.0707 S.3        1 <1>        0.000
      4 C1         -1.8374   -0.6535   -1.2744 C.2        1 <1>        0.000
      5 S4         -1.2541   -1.0470   -2.8055 S.2        1 <1>        0.000
      6 O1         -2.3136    0.6123   -1.0255 O.3        1 <1>        0.000
      7 S5          0.4805    1.1766    0.1734 S.3        1 <1>        0.000
      8 C3          2.1845    1.2131   -0.1148 C.2        1 <1>        0.000
      9 S6          3.0891    2.6288   -0.0780 S.2        1 <1>        0.000
     10 O2          2.7884    0.0020   -0.3338 O.3        1 <1>        0.000
     11 H          -2.6051    0.6695   -0.1126 H.spc      1 <1>        0.000
     12 H           2.1251   -0.6919   -0.3219 H.spc      1 <1>        0.000
@<TRIPOS>BOND
     1    1    2 1  
     2    1    7 1  
     3    2    3 1  
     4    3    4 1  
     5    4    5 2  
     6    4    6 1  
     7    7    8 1  
     8    8    9 2  
     9    8   10 1  
    10    6   11 1  
    11   10   12 1  
# Name:          frag3-234-3/31924
# Creation time: Sat Jun  5 12:52:29 2010


@<TRIPOS>MOLECULE
frag3-234-3/31924
   12    11     1     1     1
SMALL
USER_CHARGES


@<TRIPOS>ATOM
      1 S1          0.3430   -0.1912    0.4377 S.3        1 <1>        0.000
      2 S2         -1.5390    0.1402    0.9608 S.3        1 <1>        0.000
      3 S3         -2.2889    0.5558   -0.8386 S.3        1 <1>        0.000
      4 C1         -2.3395   -1.0532   -1.5076 C.2        1 <1>        0.000
      5 S4         -3.7702   -1.7856   -2.0161 S.2        1 <1>        0.000
      6 O1         -1.1630   -1.7596   -1.5536 O.3        1 <1>        0.000
      7 S5          1.0406    1.6830    0.4155 S.3        1 <1>        0.000
      8 C3          2.7185    1.3987    0.6313 C.2        1 <1>        0.000
      9 S6          3.6940    0.7820   -0.6185 S.2        1 <1>        0.000
     10 O2          3.2561    1.6204    1.8590 O.3        1 <1>        0.000
     11 H          -0.4465   -1.2069   -1.2330 H.spc      1 <1>        0.000
     12 H           2.5794    1.9661    2.4457 H.spc      1 <1>        0.000
@<TRIPOS>BOND
     1    1    2 1  
     2    1    7 1  
     3    2    3 1  
     4    3    4 1  
     5    4    5 2  
     6    4    6 1  
     7    7    8 1  
     8    8    9 2  
     9    8   10 1  
    10    6   11 1  
    11   10   12 1  
# Name:          frag3-234-3/31924
# Creation time: Sat Jun  5 12:52:29 2010


@<TRIPOS>MOLECULE
frag3-234-3/31924
   12    11     1     1     1
SMALL
USER_CHARGES


@<TRIPOS>ATOM
      1 S1         -1.4755    1.6012    0.2326 S.3        1 <1>        0.000
      2 S2         -0.2422    0.9734    1.6626 S.3        1 <1>        0.000
      3 S3          1.4816    1.7364    1.1177 S.3        1 <1>        0.000
      4 C1          2.0381    0.5548   -0.0120 C.2        1 <1>        0.000
      5 S4          1.9717    0.7160   -1.6865 S.2        1 <1>        0.000
      6 O1          2.5039   -0.6187    0.5277 O.3        1 <1>        0.000
      7 S5         -2.6125    0.0117   -0.0340 S.3        1 <1>        0.000
      8 C3         -1.5611   -0.9662   -1.0008 C.2        1 <1>        0.000
      9 S6         -1.1458   -0.5375   -2.5896 S.2        1 <1>        0.000
     10 O2         -1.0067   -2.0806   -0.4477 O.3        1 <1>        0.000
     11 H           2.4821   -0.5599    1.4856 H.spc      1 <1>        0.000
     12 H          -1.3362   -2.1901    0.4473 H.spc      1 <1>        0.000
@<TRIPOS>BOND
     1    1    2 1  
     2    1    7 1  
     3    2    3 1  
     4    3    4 1  
     5    4    5 2  
     6    4    6 1  
     7    7    8 1  
     8    8    9 2  
     9    8   10 1  
    10    6   11 1  
    11   10   12 1  
# Name:          frag3-234-3/31924
# Creation time: Sat Jun  5 12:52:29 2010


@<TRIPOS>MOLECULE
frag3-234-3/31924
   12    11     1     1     1
SMALL
USER_CHARGES


@<TRIPOS>ATOM
      1 S1         -0.0064    2.2044    0.1385 S.3        1 <1>        0.000
      2 S2         -1.3320    0.8128    0.6311 S.3        1 <1>        0.000
      3 S3         -2.2190    0.4782   -1.0965 S.3        1 <1>        0.000
      4 C1         -1.9709   -1.2191   -1.2981 C.2        1 <1>        0.000
      5 S4         -3.1559   -2.2581   -1.8969 S.2        1 <1>        0.000
      6 O1         -0.7586   -1.7244   -0.8936 O.3        1 <1>        0.000
      7 S5          1.4205    1.8425    1.4716 S.3        1 <1>        0.000
      8 C3          2.3735    0.6972    0.5744 C.2        1 <1>        0.000
      9 S6          3.0966    1.1208   -0.9124 S.2        1 <1>        0.000
     10 O2          2.5039   -0.5639    1.0518 O.3        1 <1>        0.000
     11 H          -0.2021   -1.0069   -0.5819 H.spc      1 <1>        0.000
     12 H           2.0425   -0.6367    1.8905 H.spc      1 <1>        0.000
@<TRIPOS>BOND
     1    1    2 1  
     2    1    7 1  
     3    2    3 1  
     4    3    4 1  
     5    4    5 2  
     6    4    6 1  
     7    7    8 1  
     8    8    9 2  
     9    8   10 1  
    10    6   11 1  
    11   10   12 1  
# Name:          frag3-234-3/31924
# Creation time: Sat Jun  5 12:52:29 2010


@<TRIPOS>MOLECULE
frag3-234-3/31924
   12    11     1     1     1
SMALL
USER_CHARGES


@<TRIPOS>ATOM
      1 S1         -0.1219    1.1393    0.1508 S.3        1 <1>        0.000
      2 S2          0.0557   -0.3535   -1.1746 S.3        1 <1>        0.000
      3 S3         -1.7184   -0.2098   -2.0551 S.3        1 <1>        0.000
      4 C1         -2.6452   -1.2913   -1.0266 C.2        1 <1>        0.000
      5 S4         -3.7657   -2.3842   -1.6482 S.2        1 <1>        0.000
      6 O1         -2.3882   -1.2371    0.3173 O.3        1 <1>        0.000
      7 S5          1.5360    2.1432   -0.2821 S.3        1 <1>        0.000
      8 C3          2.6602    1.3587    0.8187 C.2        1 <1>        0.000
      9 S6          3.8055    2.2214    1.7019 S.2        1 <1>        0.000
     10 O2          2.5337    0.0038    0.9679 O.3        1 <1>        0.000
     11 H          -1.7281   -0.5614    0.4887 H.spc      1 <1>        0.000
     12 H           1.8369   -0.3169    0.3906 H.spc      1 <1>        0.000
@<TRIPOS>BOND
     1    1    2 1  
     2    1    7 1  
     3    2    3 1  
     4    3    4 1  
     5    4    5 2  
     6    4    6 1  
     7    7    8 1  
     8    8    9 2  
     9    8   10 1  
    10    6   11 1  
    11   10   12 1  
# Name:          frag3-234-3/31924
# Creation time: Sat Jun  5 12:52:29 2010


@<TRIPOS>MOLECULE
frag3-234-3/31924
   12    11     1     1     1
SMALL
USER_CHARGES


@<TRIPOS>ATOM
      1 S1         -0.9452    1.1053   -1.3215 S.3        1 <1>        0.000
      2 S2          0.5548    0.0883   -0.5372 S.3        1 <1>        0.000
      3 S3          0.9625    1.1924    1.0836 S.3        1 <1>        0.000
      4 C1          2.6781    1.2316    0.9913 C.2        1 <1>        0.000
      5 S4          3.5147    1.6860   -0.4094 S.2        1 <1>        0.000
      6 O1          3.3635    0.7968    2.0819 O.3        1 <1>        0.000
      7 S5         -2.4303    0.3193   -0.2469 S.3        1 <1>        0.000
      8 C3         -2.5250   -1.2433   -1.0018 C.2        1 <1>        0.000
      9 S6         -3.5241   -1.5509   -2.3289 S.2        1 <1>        0.000
     10 O2         -1.6973   -2.2352   -0.5411 O.3        1 <1>        0.000
     11 H           2.7440    0.5815    2.7829 H.spc      1 <1>        0.000
     12 H          -1.1973   -1.9096    0.2110 H.spc      1 <1>        0.000
@<TRIPOS>BOND
     1    1    2 1  
     2    1    7 1  
     3    2    3 1  
     4    3    4 1  
     5    4    5 2  
     6    4    6 1  
     7    7    8 1  
     8    8    9 2  
     9    8   10 1  
    10    6   11 1  
    11   10   12 1  
# Name:          frag3-234-3/31924
# Creation time: Sat Jun  5 12:52:29 2010


@<TRIPOS>MOLECULE
frag3-234-3/31924
   12    11     1     1     1
SMALL
USER_CHARGES


@<TRIPOS>ATOM
      1 S1         -1.0528    1.1195   -0.1124 S.3        1 <1>        0.000
      2 S2          0.5512    1.8810   -0.9674 S.3        1 <1>        0.000
      3 S3          1.8378    0.3636   -0.7468 S.3        1 <1>        0.000
      4 C1          2.4668    0.7921    0.8192 C.2        1 <1>        0.000
      5 S4          2.9789    2.3739    1.1664 S.2        1 <1>        0.000
      6 O1          2.5053   -0.1595    1.7836 O.3        1 <1>        0.000
      7 S5         -1.9003    0.2373   -1.6843 S.3        1 <1>        0.000
      8 C3         -2.3013   -1.3061   -1.0631 C.2        1 <1>        0.000
      9 S6         -3.7788   -1.6206   -0.2995 S.2        1 <1>        0.000
     10 O2         -1.3552   -2.2907   -1.1256 O.3        1 <1>        0.000
     11 H           2.1843   -0.9901    1.4250 H.spc      1 <1>        0.000
     12 H          -0.5804   -1.9597   -1.5857 H.spc      1 <1>        0.000
@<TRIPOS>BOND
     1    1    2 1  
     2    1    7 1  
     3    2    3 1  
     4    3    4 1  
     5    4    5 2  
     6    4    6 1  
     7    7    8 1  
     8    8    9 2  
     9    8   10 1  
    10    6   11 1  
    11   10   12 1  
# Name:          frag3-234-3/31924
# Creation time: Sat Jun  5 12:52:30 2010


@<TRIPOS>MOLECULE
frag3-234-3/31924
   12    11     1     1     1
SMALL
USER_CHARGES


@<TRIPOS>ATOM
      1 S1         -1.3207   -0.2343    1.2816 S.3        1 <1>        0.000
      2 S2         -0.1359    1.2597    0.7977 S.3        1 <1>        0.000
      3 S3          1.1571    0.3825   -0.4468 S.3        1 <1>        0.000
      4 C1          2.6396    0.9057    0.2534 C.2        1 <1>        0.000
      5 S4          2.9651    2.5503    0.5145 S.2        1 <1>        0.000
      6 O1          3.5352   -0.0335    0.6495 O.3        1 <1>        0.000
      7 S5         -2.7864    0.0778   -0.0346 S.3        1 <1>        0.000
      8 C3         -2.2088   -0.8380   -1.3954 C.2        1 <1>        0.000
      9 S6         -2.2212   -2.5256   -1.4023 S.2        1 <1>        0.000
     10 O2         -1.6724   -0.1542   -2.4474 O.3        1 <1>        0.000
     11 H           3.2007   -0.9060    0.4294 H.spc      1 <1>        0.000
     12 H          -1.7453    0.7892   -2.2850 H.spc      1 <1>        0.000
@<TRIPOS>BOND
     1    1    2 1  
     2    1    7 1  
     3    2    3 1  
     4    3    4 1  
     5    4    5 2  
     6    4    6 1  
     7    7    8 1  
     8    8    9 2  
     9    8   10 1  
    10    6   11 1  
    11   10   12 1  
# Name:          frag3-234-3/31924
# Creation time: Sat Jun  5 12:52:30 2010


@<TRIPOS>MOLECULE
frag3-234-3/31924
   12    11     1     1     1
SMALL
USER_CHARGES


@<TRIPOS>ATOM
      1 S1          0.7321   -0.3175   -0.2181 S.3        1 <1>        0.000
      2 S2         -0.9239   -0.5194    0.8647 S.3        1 <1>        0.000
      3 S3         -2.2421    0.3532   -0.3170 S.3        1 <1>        0.000
      4 C1         -2.6579   -0.9820   -1.3618 C.2        1 <1>        0.000
      5 S4         -3.7598   -0.8642   -2.6296 S.2        1 <1>        0.000
      6 O1         -2.0472   -2.1856   -1.0935 O.3        1 <1>        0.000
      7 S5          2.0588    0.0414    1.2195 S.3        1 <1>        0.000
      8 C3          2.7112    1.5490    0.6747 C.2        1 <1>        0.000
      9 S6          3.6737    1.6395   -0.7306 S.2        1 <1>        0.000
     10 O2          2.4067    2.6760    1.3617 O.3        1 <1>        0.000
     11 H          -1.4532   -2.0823   -0.3464 H.spc      1 <1>        0.000
     12 H           1.8625    2.4502    2.1196 H.spc      1 <1>        0.000
@<TRIPOS>BOND
     1    1    2 1  
     2    1    7 1  
     3    2    3 1  
     4    3    4 1  
     5    4    5 2  
     6    4    6 1  
     7    7    8 1  
     8    8    9 2  
     9    8   10 1  
    10    6   11 1  
    11   10   12 1  
# Name:          frag3-234-3/31924
# Creation time: Sat Jun  5 12:52:30 2010


@<TRIPOS>MOLECULE
frag3-234-3/31924
   12    11     1     1     1
SMALL
USER_CHARGES


@<TRIPOS>ATOM
      1 S1          0.5127   -0.4469    0.1504 S.3        1 <1>        0.000
      2 S2         -0.7210    0.9220   -0.6393 S.3        1 <1>        0.000
      3 S3         -1.4476   -0.1106   -2.1623 S.3        1 <1>        0.000
      4 C1         -2.5290   -1.1887   -1.2917 C.2        1 <1>        0.000
      5 S4         -4.2058   -1.0587   -1.4108 S.2        1 <1>        0.000
      6 O1         -1.9582   -2.1140   -0.4637 O.3        1 <1>        0.000
      7 S5          1.2737    0.5739    1.6597 S.3        1 <1>        0.000
      8 C3          2.6363    1.3272    0.8694 C.2        1 <1>        0.000
      9 S6          2.8763    2.9999    0.8190 S.2        1 <1>        0.000
     10 O2          3.5142    0.4862    0.2394 O.3        1 <1>        0.000
     11 H          -1.0023   -2.0472   -0.5217 H.spc      1 <1>        0.000
     12 H           3.2321   -0.4226    0.3664 H.spc      1 <1>        0.000
@<TRIPOS>BOND
     1    1    2 1  
     2    1    7 1  
     3    2    3 1  
     4    3    4 1  
     5    4    5 2  
     6    4    6 1  
     7    7    8 1  
     8    8    9 2  
     9    8   10 1  
    10    6   11 1  
    11   10   12 1  
# Name:          frag3-234-3/31924
# Creation time: Sat Jun  5 12:52:30 2010


@<TRIPOS>MOLECULE
frag3-234-3/31924
   12    11     1     1     1
SMALL
USER_CHARGES


@<TRIPOS>ATOM
      1 S1         -0.1434    0.8123    1.4058 S.3        1 <1>        0.000
      2 S2         -1.6320   -0.4896    1.5629 S.3        1 <1>        0.000
      3 S3         -2.7368    0.0843    0.0035 S.3        1 <1>        0.000
      4 C1         -1.9002   -0.7247   -1.3090 C.2        1 <1>        0.000
      5 S4         -1.3471    0.0680   -2.6864 S.2        1 <1>        0.000
      6 O1         -1.6808   -2.0673   -1.1383 O.3        1 <1>        0.000
      7 S5          1.0660   -0.1437    0.1388 S.3        1 <1>        0.000
      8 C3          2.3908    0.9524    0.0266 C.2        1 <1>        0.000
      9 S6          3.0492    1.4600   -1.4427 S.2        1 <1>        0.000
     10 O2          2.8860    1.4387    1.2089 O.3        1 <1>        0.000
     11 H          -2.0620   -2.3491   -0.3035 H.spc      1 <1>        0.000
     12 H           2.4022    1.0498    1.9412 H.spc      1 <1>        0.000
@<TRIPOS>BOND
     1    1    2 1  
     2    1    7 1  
     3    2    3 1  
     4    3    4 1  
     5    4    5 2  
     6    4    6 1  
     7    7    8 1  
     8    8    9 2  
     9    8   10 1  
    10    6   11 1  
    11   10   12 1  
# Name:          frag3-234-3/31924
# Creation time: Sat Jun  5 12:52:30 2010


@<TRIPOS>MOLECULE
frag3-234-3/31924
   12    11     1     1     1
SMALL
USER_CHARGES


@<TRIPOS>ATOM
      1 S1          0.0487    1.6021    1.6939 S.3        1 <1>        0.000
      2 S2         -1.4658    0.9158    0.6313 S.3        1 <1>        0.000
      3 S3         -0.9195   -0.9642    0.2804 S.3        1 <1>        0.000
      4 C1         -1.9293   -1.3936   -1.0302 C.2        1 <1>        0.000
      5 S4         -1.3762   -1.6195   -2.6092 S.2        1 <1>        0.000
      6 O1         -3.2693   -1.4935   -0.7592 O.3        1 <1>        0.000
      7 S5          1.1697    2.3649    0.2416 S.3        1 <1>        0.000
      8 C3          2.2029    1.0270   -0.1479 C.2        1 <1>        0.000
      9 S6          3.8816    1.0989   -0.0107 S.2        1 <1>        0.000
     10 O2          1.6088   -0.1476   -0.5202 O.3        1 <1>        0.000
     11 H          -3.4177   -1.3396    0.1767 H.spc      1 <1>        0.000
     12 H           0.6569   -0.0272   -0.5526 H.spc      1 <1>        0.000
@<TRIPOS>BOND
     1    1    2 1  
     2    1    7 1  
     3    2    3 1  
     4    3    4 1  
     5    4    5 2  
     6    4    6 1  
     7    7    8 1  
     8    8    9 2  
     9    8   10 1  
    10    6   11 1  
    11   10   12 1  
# Name:          frag3-234-3/31924
# Creation time: Sat Jun  5 12:52:30 2010


@<TRIPOS>MOLECULE
frag3-234-3/31924
   12    11     1     1     1
SMALL
USER_CHARGES


@<TRIPOS>ATOM
      1 S1         -1.8767    1.5810   -0.4660 S.3        1 <1>        0.000
      2 S2         -0.4802    1.3524    0.9284 S.3        1 <1>        0.000
      3 S3          1.1279    2.0326    0.0228 S.3        1 <1>        0.000
      4 C1          2.2419    0.7313    0.1898 C.2        1 <1>        0.000
      5 S4          3.8709    0.8267   -0.2047 S.2        1 <1>        0.000
      6 O1          1.7352   -0.4426    0.7109 O.3        1 <1>        0.000
      7 S5         -2.8660   -0.1252   -0.2680 S.3        1 <1>        0.000
      8 C3         -1.6359   -1.2375   -0.8115 C.2        1 <1>        0.000
      9 S6         -1.1414   -1.2963   -2.4382 S.2        1 <1>        0.000
     10 O2         -1.0243   -2.0320    0.1064 O.3        1 <1>        0.000
     11 H           0.7966   -0.3365    0.8821 H.spc      1 <1>        0.000
     12 H          -1.4156   -1.8811    0.9700 H.spc      1 <1>        0.000
@<TRIPOS>BOND
     1    1    2 1  
     2    1    7 1  
     3    2    3 1  
     4    3    4 1  
     5    4    5 2  
     6    4    6 1  
     7    7    8 1  
     8    8    9 2  
     9    8   10 1  
    10    6   11 1  
    11   10   12 1  
# Name:          frag3-234-3/31924
# Creation time: Sat Jun  5 12:52:30 2010


@<TRIPOS>MOLECULE
frag3-234-3/31924
   12    11     1     1     1
SMALL
USER_CHARGES


@<TRIPOS>ATOM
      1 S1          0.6848   -0.4800    0.1336 S.3        1 <1>        0.000
      2 S2         -1.0323   -0.8585    1.0298 S.3        1 <1>        0.000
      3 S3         -2.2550    0.3225   -0.0303 S.3        1 <1>        0.000
      4 C1         -2.7124   -0.8089   -1.2618 C.2        1 <1>        0.000
      5 S4         -1.6208   -1.4306   -2.4110 S.2        1 <1>        0.000
      6 O1         -3.9958   -1.2566   -1.2489 O.3        1 <1>        0.000
      7 S5          1.2312    1.1856    1.0886 S.3        1 <1>        0.000
      8 C3          2.7820    1.4681    0.4233 C.2        1 <1>        0.000
      9 S6          3.0251    2.3934   -0.9750 S.2        1 <1>        0.000
     10 O2          3.8449    0.8554    1.0216 O.3        1 <1>        0.000
     11 H          -4.4810   -0.8137   -0.5489 H.spc      1 <1>        0.000
     12 H           3.5418    0.3747    1.7953 H.spc      1 <1>        0.000
@<TRIPOS>BOND
     1    1    2 1  
     2    1    7 1  
     3    2    3 1  
     4    3    4 1  
     5    4    5 2  
     6    4    6 1  
     7    7    8 1  
     8    8    9 2  
     9    8   10 1  
    10    6   11 1  
    11   10   12 1  
# Name:          frag3-234-3/31924
# Creation time: Sat Jun  5 12:52:30 2010


@<TRIPOS>MOLECULE
frag3-234-3/31924
   12    11     1     1     1
SMALL
USER_CHARGES


@<TRIPOS>ATOM
      1 S1         -1.1792    0.3295    0.5461 S.3        1 <1>        0.000
      2 S2          0.3908    0.9277   -0.5136 S.3        1 <1>        0.000
      3 S3          1.3621    1.9979    0.8588 S.3        1 <1>        0.000
      4 C1          2.9270    1.2592    0.7356 C.2        1 <1>        0.000
      5 S4          3.8855    1.4575   -0.6637 S.2        1 <1>        0.000
      6 O1          3.3614    0.4793    1.7531 O.3        1 <1>        0.000
      7 S5         -2.5896    0.3790   -0.8481 S.3        1 <1>        0.000
      8 C3         -2.7235   -1.3229   -1.2038 C.2        1 <1>        0.000
      9 S6         -2.4354   -1.9766   -2.7380 S.2        1 <1>        0.000
     10 O2         -3.0475   -2.1403   -0.1563 O.3        1 <1>        0.000
     11 H           2.7068    0.4774    2.4553 H.spc      1 <1>        0.000
     12 H          -3.1764   -1.6103    0.6337 H.spc      1 <1>        0.000
@<TRIPOS>BOND
     1    1    2 1  
     2    1    7 1  
     3    2    3 1  
     4    3    4 1  
     5    4    5 2  
     6    4    6 1  
     7    7    8 1  
     8    8    9 2  
     9    8   10 1  
    10    6   11 1  
    11   10   12 1  
# Name:          frag3-234-3/31924
# Creation time: Sat Jun  5 12:52:30 2010


@<TRIPOS>MOLECULE
frag3-234-3/31924
   12    11     1     1     1
SMALL
USER_CHARGES


@<TRIPOS>ATOM
      1 S1         -1.0877    0.8041    0.4993 S.3        1 <1>        0.000
      2 S2          0.1649    1.3818   -0.9402 S.3        1 <1>        0.000
      3 S3          1.5206    2.3443    0.1126 S.3        1 <1>        0.000
      4 C1          2.5587    1.0168    0.5268 C.2        1 <1>        0.000
      5 S4          3.7513    0.4468   -0.5364 S.2        1 <1>        0.000
      6 O1          2.3567    0.3781    1.7154 O.3        1 <1>        0.000
      7 S5         -2.7104    0.3624   -0.5388 S.3        1 <1>        0.000
      8 C3         -2.3728   -1.3019   -0.8968 C.2        1 <1>        0.000
      9 S6         -1.0563   -1.8055   -1.8520 S.2        1 <1>        0.000
     10 O2         -3.1733   -2.2364   -0.3199 O.3        1 <1>        0.000
     11 H           1.6538    0.8186    2.1987 H.spc      1 <1>        0.000
     12 H          -3.8644   -1.7982    0.1821 H.spc      1 <1>        0.000
@<TRIPOS>BOND
     1    1    2 1  
     2    1    7 1  
     3    2    3 1  
     4    3    4 1  
     5    4    5 2  
     6    4    6 1  
     7    7    8 1  
     8    8    9 2  
     9    8   10 1  
    10    6   11 1  
    11   10   12 1  
# Name:          frag3-234-3/31924
# Creation time: Sat Jun  5 12:52:30 2010


@<TRIPOS>MOLECULE
frag3-234-3/31924
   12    11     1     1     1
SMALL
USER_CHARGES


@<TRIPOS>ATOM
      1 S1          0.4312    0.0372    0.5997 S.3        1 <1>        0.000
      2 S2         -1.4800    0.5135    0.6051 S.3        1 <1>        0.000
      3 S3         -1.9121    0.3183   -1.3380 S.3        1 <1>        0.000
      4 C1         -2.6884   -1.2295   -1.2892 C.2        1 <1>        0.000
      5 S4         -1.8531   -2.6786   -0.9775 S.2        1 <1>        0.000
      6 O1         -4.0394   -1.2515   -1.4451 O.3        1 <1>        0.000
      7 S5          1.2559    1.8467    0.3627 S.3        1 <1>        0.000
      8 C3          2.9222    1.4435    0.3499 C.2        1 <1>        0.000
      9 S6          3.7036    0.7797    1.7100 S.2        1 <1>        0.000
     10 O2          3.6116    1.6109   -0.8075 O.3        1 <1>        0.000
     11 H          -4.3555   -0.3608   -1.6134 H.spc      1 <1>        0.000
     12 H           3.0326    1.9928   -1.4712 H.spc      1 <1>        0.000
@<TRIPOS>BOND
     1    1    2 1  
     2    1    7 1  
     3    2    3 1  
     4    3    4 1  
     5    4    5 2  
     6    4    6 1  
     7    7    8 1  
     8    8    9 2  
     9    8   10 1  
    10    6   11 1  
    11   10   12 1  
# Name:          frag3-234-3/31924
# Creation time: Sat Jun  5 12:52:30 2010


@<TRIPOS>MOLECULE
frag3-234-3/31924
   12    11     1     1     1
SMALL
USER_CHARGES


@<TRIPOS>ATOM
      1 S1         -1.8186    0.8417    0.7347 S.3        1 <1>        0.000
      2 S2         -0.0074    1.2372    1.3748 S.3        1 <1>        0.000
      3 S3          0.9554    1.6288   -0.3103 S.3        1 <1>        0.000
      4 C1          2.5456    1.0808    0.0130 C.2        1 <1>        0.000
      5 S4          3.9235    1.7072   -0.7147 S.2        1 <1>        0.000
      6 O1          2.6702    0.0919    0.9668 O.3        1 <1>        0.000
      7 S5         -1.7621   -1.1504    0.5698 S.3        1 <1>        0.000
      8 C3         -2.1217   -1.3521   -1.1015 C.2        1 <1>        0.000
      9 S6         -1.2107   -0.6178   -2.3394 S.2        1 <1>        0.000
     10 O2         -3.2226   -2.0770   -1.4234 O.3        1 <1>        0.000
     11 H           1.7989   -0.1572    1.2836 H.spc      1 <1>        0.000
     12 H          -3.6225   -2.4224   -0.6219 H.spc      1 <1>        0.000
@<TRIPOS>BOND
     1    1    2 1  
     2    1    7 1  
     3    2    3 1  
     4    3    4 1  
     5    4    5 2  
     6    4    6 1  
     7    7    8 1  
     8    8    9 2  
     9    8   10 1  
    10    6   11 1  
    11   10   12 1  
# Name:          frag3-234-3/31924
# Creation time: Sat Jun  5 12:52:30 2010


@<TRIPOS>MOLECULE
frag3-234-3/31924
   12    11     1     1     1
SMALL
USER_CHARGES


@<TRIPOS>ATOM
      1 S1         -1.2492    0.6082    0.4807 S.3        1 <1>        0.000
      2 S2          0.3109    0.0977    1.6041 S.3        1 <1>        0.000
      3 S3          1.3892    1.7578    1.5150 S.3        1 <1>        0.000
      4 C1          2.6326    1.2624    0.3979 C.2        1 <1>        0.000
      5 S4          3.0835    2.1813   -0.9501 S.2        1 <1>        0.000
      6 O1          3.2290    0.0561    0.6424 O.3        1 <1>        0.000
      7 S5         -2.0833   -1.1652    0.1838 S.3        1 <1>        0.000
      8 C3         -2.3126   -1.1376   -1.5385 C.2        1 <1>        0.000
      9 S6         -3.7915   -1.5380   -2.2601 S.2        1 <1>        0.000
     10 O2         -1.2570   -0.7324   -2.3052 O.3        1 <1>        0.000
     11 H           2.8575   -0.3274    1.4402 H.spc      1 <1>        0.000
     12 H          -0.5042   -0.5471   -1.7390 H.spc      1 <1>        0.000
@<TRIPOS>BOND
     1    1    2 1  
     2    1    7 1  
     3    2    3 1  
     4    3    4 1  
     5    4    5 2  
     6    4    6 1  
     7    7    8 1  
     8    8    9 2  
     9    8   10 1  
    10    6   11 1  
    11   10   12 1  
# Name:          frag3-234-3/31924
# Creation time: Sat Jun  5 12:52:30 2010


@<TRIPOS>MOLECULE
frag3-234-3/31924
   12    11     1     1     1
SMALL
USER_CHARGES


@<TRIPOS>ATOM
      1 S1          0.4298   -0.3884    0.8540 S.3        1 <1>        0.000
      2 S2         -1.4873   -0.0524    1.2011 S.3        1 <1>        0.000
      3 S3         -2.0480    0.6053   -0.5909 S.3        1 <1>        0.000
      4 C1         -2.3773   -0.9129   -1.3968 C.2        1 <1>        0.000
      5 S4         -2.4066   -1.1053   -3.0586 S.2        1 <1>        0.000
      6 O1         -2.6224   -1.9854   -0.5649 O.3        1 <1>        0.000
      7 S5          1.1727    1.4500    1.1717 S.3        1 <1>        0.000
      8 C3          2.6838    1.3308    0.3609 C.2        1 <1>        0.000
      9 S6          2.7937    1.0040   -1.3086 S.2        1 <1>        0.000
     10 O2          3.8133    1.4448    1.1020 O.3        1 <1>        0.000
     11 H          -2.5661   -1.6990    0.3496 H.spc      1 <1>        0.000
     12 H           3.5787    1.6281    2.0147 H.spc      1 <1>        0.000
@<TRIPOS>BOND
     1    1    2 1  
     2    1    7 1  
     3    2    3 1  
     4    3    4 1  
     5    4    5 2  
     6    4    6 1  
     7    7    8 1  
     8    8    9 2  
     9    8   10 1  
    10    6   11 1  
    11   10   12 1  
# Name:          frag3-234-3/31924
# Creation time: Sat Jun  5 12:52:30 2010


@<TRIPOS>MOLECULE
frag3-234-3/31924
   12    11     1     1     1
SMALL
USER_CHARGES


@<TRIPOS>ATOM
      1 S1         -0.1346    0.9185    1.9449 S.3        1 <1>        0.000
      2 S2         -1.7162   -0.2292    1.6515 S.3        1 <1>        0.000
      3 S3         -2.2839    0.3330   -0.1512 S.3        1 <1>        0.000
      4 C1         -1.2407   -0.5634   -1.1977 C.2        1 <1>        0.000
      5 S4         -1.2266   -0.4747   -2.8664 S.2        1 <1>        0.000
      6 O1         -0.3698   -1.4411   -0.5767 O.3        1 <1>        0.000
      7 S5          1.3183   -0.1426    1.1267 S.3        1 <1>        0.000
      8 C3          1.6994    0.7189   -0.3089 C.2        1 <1>        0.000
      9 S6          3.2571    0.9811   -0.8587 S.2        1 <1>        0.000
     10 O2          0.6485    1.2898   -0.9936 O.3        1 <1>        0.000
     11 H          -0.4867   -1.3867    0.3746 H.spc      1 <1>        0.000
     12 H          -0.1773    1.0536   -0.5649 H.spc      1 <1>        0.000
@<TRIPOS>BOND
     1    1    2 1  
     2    1    7 1  
     3    2    3 1  
     4    3    4 1  
     5    4    5 2  
     6    4    6 1  
     7    7    8 1  
     8    8    9 2  
     9    8   10 1  
    10    6   11 1  
    11   10   12 1  
# Name:          frag3-234-3/31924
# Creation time: Sat Jun  5 12:52:30 2010


@<TRIPOS>MOLECULE
frag3-234-3/31924
   12    11     1     1     1
SMALL
USER_CHARGES


@<TRIPOS>ATOM
      1 S1         -1.5837    1.4190   -0.4415 S.3        1 <1>        0.000
      2 S2         -0.2790    1.1460    1.0378 S.3        1 <1>        0.000
      3 S3          1.2774    2.1617    0.3626 S.3        1 <1>        0.000
      4 C1          2.5220    0.9541    0.4167 C.2        1 <1>        0.000
      5 S4          4.1680    1.3301    0.4164 S.2        1 <1>        0.000
      6 O1          2.1143   -0.3534    0.4934 O.3        1 <1>        0.000
      7 S5         -2.7771   -0.1308   -0.1480 S.3        1 <1>        0.000
      8 C3         -1.9981   -1.3358   -1.1438 C.2        1 <1>        0.000
      9 S6         -2.8408   -2.6082   -1.8665 S.2        1 <1>        0.000
     10 O2         -0.6515   -1.1924   -1.3570 O.3        1 <1>        0.000
     11 H           1.1550   -0.3895    0.4820 H.spc      1 <1>        0.000
     12 H          -0.3325   -0.4249   -0.8765 H.spc      1 <1>        0.000
@<TRIPOS>BOND
     1    1    2 1  
     2    1    7 1  
     3    2    3 1  
     4    3    4 1  
     5    4    5 2  
     6    4    6 1  
     7    7    8 1  
     8    8    9 2  
     9    8   10 1  
    10    6   11 1  
    11   10   12 1  
# Name:          frag3-234-3/31924
# Creation time: Sat Jun  5 12:52:30 2010


@<TRIPOS>MOLECULE
frag3-234-3/31924
   12    11     1     1     1
SMALL
USER_CHARGES


@<TRIPOS>ATOM
      1 S1         -0.4548   -0.4908    0.4904 S.3        1 <1>        0.000
      2 S2          0.1142    1.1200    1.4815 S.3        1 <1>        0.000
      3 S3          1.1010    2.0602    0.0311 S.3        1 <1>        0.000
      4 C1          2.6598    1.3025    0.1813 C.2        1 <1>        0.000
      5 S4          4.1115    2.1330   -0.0063 S.2        1 <1>        0.000
      6 O1          2.6773   -0.0314    0.5208 O.3        1 <1>        0.000
      7 S5         -2.1158    0.2037   -0.3974 S.3        1 <1>        0.000
      8 C3         -2.6394   -1.1999   -1.2326 C.2        1 <1>        0.000
      9 S6         -1.6407   -2.0024   -2.3595 S.2        1 <1>        0.000
     10 O2         -3.8616   -1.7045   -0.9392 O.3        1 <1>        0.000
     11 H           1.7760   -0.3551    0.5885 H.spc      1 <1>        0.000
     12 H          -4.2930   -1.1401   -0.2934 H.spc      1 <1>        0.000
@<TRIPOS>BOND
     1    1    2 1  
     2    1    7 1  
     3    2    3 1  
     4    3    4 1  
     5    4    5 2  
     6    4    6 1  
     7    7    8 1  
     8    8    9 2  
     9    8   10 1  
    10    6   11 1  
    11   10   12 1  
# Name:          frag3-234-3/31924
# Creation time: Sat Jun  5 12:52:30 2010


@<TRIPOS>MOLECULE
frag3-234-3/31924
   12    11     1     1     1
SMALL
USER_CHARGES


@<TRIPOS>ATOM
      1 S1          0.7521    0.6052   -1.4130 S.3        1 <1>        0.000
      2 S2         -1.0050    1.2621   -0.7612 S.3        1 <1>        0.000
      3 S3         -2.2661    0.1635   -1.8111 S.3        1 <1>        0.000
      4 C1         -2.5630   -1.1041   -0.6689 C.2        1 <1>        0.000
      5 S4         -1.3956   -2.2614   -0.2329 S.2        1 <1>        0.000
      6 O1         -3.7775   -1.1127   -0.0544 O.3        1 <1>        0.000
      7 S5          2.0012    1.9061   -0.6049 S.3        1 <1>        0.000
      8 C3          2.6206    0.9524    0.6986 C.2        1 <1>        0.000
      9 S6          1.6515    0.3760    1.9736 S.2        1 <1>        0.000
     10 O2          3.9334    0.6033    0.6442 O.3        1 <1>        0.000
     11 H          -4.3190   -0.4035   -0.4085 H.spc      1 <1>        0.000
     12 H           4.3386    1.0055   -0.1276 H.spc      1 <1>        0.000
@<TRIPOS>BOND
     1    1    2 1  
     2    1    7 1  
     3    2    3 1  
     4    3    4 1  
     5    4    5 2  
     6    4    6 1  
     7    7    8 1  
     8    8    9 2  
     9    8   10 1  
    10    6   11 1  
    11   10   12 1  
# Name:          frag3-234-3/31924
# Creation time: Sat Jun  5 12:52:30 2010


@<TRIPOS>MOLECULE
frag3-234-3/31924
   12    11     1     1     1
SMALL
USER_CHARGES


@<TRIPOS>ATOM
      1 S1         -1.0512    0.5469    0.2411 S.3        1 <1>        0.000
      2 S2          0.2772    1.9220   -0.2606 S.3        1 <1>        0.000
      3 S3          1.8429    0.7262   -0.6673 S.3        1 <1>        0.000
      4 C1          2.8016    1.0578    0.7426 C.2        1 <1>        0.000
      5 S4          3.4440    2.6154    1.0221 S.2        1 <1>        0.000
      6 O1          3.0054    0.0684    1.6435 O.3        1 <1>        0.000
      7 S5         -1.5525   -0.1128   -1.5803 S.3        1 <1>        0.000
      8 C3         -2.5848   -1.4419   -1.1999 C.2        1 <1>        0.000
      9 S6         -4.0330   -1.7471   -2.0133 S.2        1 <1>        0.000
     10 O2         -2.1981   -2.2445   -0.1578 O.3        1 <1>        0.000
     11 H           2.5809   -0.7357    1.3355 H.spc      1 <1>        0.000
     12 H          -1.3586   -1.9341    0.1892 H.spc      1 <1>        0.000
@<TRIPOS>BOND
     1    1    2 1  
     2    1    7 1  
     3    2    3 1  
     4    3    4 1  
     5    4    5 2  
     6    4    6 1  
     7    7    8 1  
     8    8    9 2  
     9    8   10 1  
    10    6   11 1  
    11   10   12 1  
# Name:          frag3-234-3/31924
# Creation time: Sat Jun  5 12:52:30 2010


@<TRIPOS>MOLECULE
frag3-234-3/31924
   12    11     1     1     1
SMALL
USER_CHARGES


@<TRIPOS>ATOM
      1 S1         -1.3652    0.8954    0.4024 S.3        1 <1>        0.000
      2 S2          0.3310    1.2008   -0.5495 S.3        1 <1>        0.000
      3 S3          1.5766   -0.0717    0.3213 S.3        1 <1>        0.000
      4 C1          2.9445    0.9367    0.5349 C.2        1 <1>        0.000
      5 S4          2.9417    2.3080    1.5394 S.2        1 <1>        0.000
      6 O1          4.0518    0.6524   -0.2037 O.3        1 <1>        0.000
      7 S5         -2.6069    0.5505   -1.1070 S.3        1 <1>        0.000
      8 C3         -2.6895   -1.1719   -1.0755 C.2        1 <1>        0.000
      9 S6         -1.3496   -2.1802   -1.3573 S.2        1 <1>        0.000
     10 O2         -3.8829   -1.7296   -0.7350 O.3        1 <1>        0.000
     11 H           3.8983   -0.1460   -0.7142 H.spc      1 <1>        0.000
     12 H          -4.5349   -1.0361   -0.6103 H.spc      1 <1>        0.000
@<TRIPOS>BOND
     1    1    2 1  
     2    1    7 1  
     3    2    3 1  
     4    3    4 1  
     5    4    5 2  
     6    4    6 1  
     7    7    8 1  
     8    8    9 2  
     9    8   10 1  
    10    6   11 1  
    11   10   12 1  
# Name:          frag3-234-3/31924
# Creation time: Sat Jun  5 12:52:30 2010


@<TRIPOS>MOLECULE
frag3-234-3/31924
   12    11     1     1     1
SMALL
USER_CHARGES


@<TRIPOS>ATOM
      1 S1          0.0532    1.4963   -0.1561 S.3        1 <1>        0.000
      2 S2         -1.7677    1.1156    0.5153 S.3        1 <1>        0.000
      3 S3         -2.6499    0.5078   -1.1505 S.3        1 <1>        0.000
      4 C1         -2.2889   -1.1938   -1.1167 C.2        1 <1>        0.000
      5 S4         -1.5572   -2.0246   -2.3911 S.2        1 <1>        0.000
      6 O1         -2.6036   -1.8573    0.0424 O.3        1 <1>        0.000
      7 S5          1.1740    0.3319    1.0120 S.3        1 <1>        0.000
      8 C3          2.7495    0.7855    0.4880 C.2        1 <1>        0.000
      9 S6          3.3127    2.3910    0.6122 S.2        1 <1>        0.000
     10 O2          3.5295   -0.1621   -0.0856 O.3        1 <1>        0.000
     11 H          -3.0100   -1.2450    0.6600 H.spc      1 <1>        0.000
     12 H           3.0679   -1.0038   -0.0759 H.spc      1 <1>        0.000
@<TRIPOS>BOND
     1    1    2 1  
     2    1    7 1  
     3    2    3 1  
     4    3    4 1  
     5    4    5 2  
     6    4    6 1  
     7    7    8 1  
     8    8    9 2  
     9    8   10 1  
    10    6   11 1  
    11   10   12 1  
# Name:          frag3-234-3/31924
# Creation time: Sat Jun  5 12:52:30 2010


@<TRIPOS>MOLECULE
frag3-234-3/31924
   12    11     1     1     1
SMALL
USER_CHARGES


@<TRIPOS>ATOM
      1 S1          0.7295   -0.6746    1.4937 S.3        1 <1>        0.000
      2 S2         -1.2453   -0.6981    1.4956 S.3        1 <1>        0.000
      3 S3         -1.6483   -1.8117   -0.0955 S.3        1 <1>        0.000
      4 C1         -2.0463   -0.5911   -1.2519 C.2        1 <1>        0.000
      5 S4         -0.8912    0.3476   -2.0564 S.2        1 <1>        0.000
      6 O1         -3.3715   -0.3480   -1.4586 O.3        1 <1>        0.000
      7 S5          1.1310    1.2461    1.2803 S.3        1 <1>        0.000
      8 C3          2.1576    1.2741   -0.1129 C.2        1 <1>        0.000
      9 S6          1.9710    2.3136   -1.4096 S.2        1 <1>        0.000
     10 O2          3.1651    0.3325   -0.1147 O.3        1 <1>        0.000
     11 H          -3.8935   -0.9599   -0.9344 H.spc      1 <1>        0.000
     12 H           3.1281   -0.1756    0.6990 H.spc      1 <1>        0.000
@<TRIPOS>BOND
     1    1    2 1  
     2    1    7 1  
     3    2    3 1  
     4    3    4 1  
     5    4    5 2  
     6    4    6 1  
     7    7    8 1  
     8    8    9 2  
     9    8   10 1  
    10    6   11 1  
    11   10   12 1  
# Name:          frag3-234-3/31924
# Creation time: Sat Jun  5 12:52:30 2010


@<TRIPOS>MOLECULE
frag3-234-3/31924
   12    11     1     1     1
SMALL
USER_CHARGES


@<TRIPOS>ATOM
      1 S1         -1.4275    1.1339   -0.1086 S.3        1 <1>        0.000
      2 S2          0.3852    1.0331   -0.9364 S.3        1 <1>        0.000
      3 S3          1.4055    2.2011    0.2989 S.3        1 <1>        0.000
      4 C1          2.6678    1.1094    0.7929 C.2        1 <1>        0.000
      5 S4          4.2755    1.6101    0.9744 S.2        1 <1>        0.000
      6 O1          2.3239   -0.1979    0.9930 O.3        1 <1>        0.000
      7 S5         -2.4991    0.2560   -1.5265 S.3        1 <1>        0.000
      8 C3         -2.4026   -1.4118   -1.0008 C.2        1 <1>        0.000
      9 S6         -2.7624   -2.7178   -2.0117 S.2        1 <1>        0.000
     10 O2         -2.0145   -1.6257    0.2948 O.3        1 <1>        0.000
     11 H           1.3808   -0.3051    0.8494 H.spc      1 <1>        0.000
     12 H          -1.8511   -0.7818    0.7222 H.spc      1 <1>        0.000
@<TRIPOS>BOND
     1    1    2 1  
     2    1    7 1  
     3    2    3 1  
     4    3    4 1  
     5    4    5 2  
     6    4    6 1  
     7    7    8 1  
     8    8    9 2  
     9    8   10 1  
    10    6   11 1  
    11   10   12 1  
# Name:          frag3-234-3/31924
# Creation time: Sat Jun  5 12:52:30 2010


@<TRIPOS>MOLECULE
frag3-234-3/31924
   12    11     1     1     1
SMALL
USER_CHARGES


@<TRIPOS>ATOM
      1 S1          0.0733    0.9524   -0.3962 S.3        1 <1>        0.000
      2 S2         -0.9546   -0.1584    0.8949 S.3        1 <1>        0.000
      3 S3         -1.2266   -1.8131   -0.1432 S.3        1 <1>        0.000
      4 C1         -2.5344   -1.2929   -1.1879 C.2        1 <1>        0.000
      5 S4         -2.3556   -1.0032   -2.8353 S.2        1 <1>        0.000
      6 O1         -3.7377   -1.0760   -0.5702 O.3        1 <1>        0.000
      7 S5          1.1455    2.0683    0.8448 S.3        1 <1>        0.000
      8 C3          2.7229    1.4181    0.5624 C.2        1 <1>        0.000
      9 S6          3.4579    1.5134   -0.9741 S.2        1 <1>        0.000
     10 O2          3.3608    0.7818    1.5748 O.3        1 <1>        0.000
     11 H          -3.6608   -1.2910    0.3623 H.spc      1 <1>        0.000
     12 H           2.8179    0.8168    2.3658 H.spc      1 <1>        0.000
@<TRIPOS>BOND
     1    1    2 1  
     2    1    7 1  
     3    2    3 1  
     4    3    4 1  
     5    4    5 2  
     6    4    6 1  
     7    7    8 1  
     8    8    9 2  
     9    8   10 1  
    10    6   11 1  
    11   10   12 1  
# Name:          frag3-234-3/31924
# Creation time: Sat Jun  5 12:52:30 2010


@<TRIPOS>MOLECULE
frag3-234-3/31924
   12    11     1     1     1
SMALL
USER_CHARGES


@<TRIPOS>ATOM
      1 S1         -1.0220   -0.3070    0.5283 S.3        1 <1>        0.000
      2 S2          0.9396   -0.3000    0.2558 S.3        1 <1>        0.000
      3 S3          1.2621    1.6788    0.2584 S.3        1 <1>        0.000
      4 C1          2.9127    1.7187    0.7863 C.2        1 <1>        0.000
      5 S4          4.1732    2.2007   -0.2447 S.2        1 <1>        0.000
      6 O1          3.1810    1.2987    2.0538 O.3        1 <1>        0.000
      7 S5         -1.6132   -0.1072   -1.3731 S.3        1 <1>        0.000
      8 C3         -2.8816   -1.2933   -1.4407 C.2        1 <1>        0.000
      9 S6         -4.2384   -1.1190   -2.4361 S.2        1 <1>        0.000
     10 O2         -2.7618   -2.3800   -0.6181 O.3        1 <1>        0.000
     11 H           2.3597    1.0663    2.4933 H.spc      1 <1>        0.000
     12 H          -1.9385   -2.3197   -0.1280 H.spc      1 <1>        0.000
@<TRIPOS>BOND
     1    1    2 1  
     2    1    7 1  
     3    2    3 1  
     4    3    4 1  
     5    4    5 2  
     6    4    6 1  
     7    7    8 1  
     8    8    9 2  
     9    8   10 1  
    10    6   11 1  
    11   10   12 1  
# Name:          frag3-234-3/31924
# Creation time: Sat Jun  5 12:52:30 2010


@<TRIPOS>MOLECULE
frag3-234-3/31924
   12    11     1     1     1
SMALL
USER_CHARGES


@<TRIPOS>ATOM
      1 S1          0.9737   -0.4347   -0.7332 S.3        1 <1>        0.000
      2 S2         -0.5135    0.9023   -0.6553 S.3        1 <1>        0.000
      3 S3         -1.6953    0.2102   -2.0611 S.3        1 <1>        0.000
      4 C1         -2.5938   -0.9835   -1.1726 C.2        1 <1>        0.000
      5 S4         -4.2782   -0.9850   -1.0914 S.2        1 <1>        0.000
      6 O1         -1.8776   -1.9169   -0.4642 O.3        1 <1>        0.000
      7 S5          1.6806   -0.3405    1.1117 S.3        1 <1>        0.000
      8 C3          2.5552    1.1646    0.9951 C.2        1 <1>        0.000
      9 S6          1.8047    2.6892    1.0638 S.2        1 <1>        0.000
     10 O2          3.8957    1.0847    0.7772 O.3        1 <1>        0.000
     11 H          -0.9394   -1.7817   -0.6163 H.spc      1 <1>        0.000
     12 H           4.1626    0.1626    0.7664 H.spc      1 <1>        0.000
@<TRIPOS>BOND
     1    1    2 1  
     2    1    7 1  
     3    2    3 1  
     4    3    4 1  
     5    4    5 2  
     6    4    6 1  
     7    7    8 1  
     8    8    9 2  
     9    8   10 1  
    10    6   11 1  
    11   10   12 1  
# Name:          frag3-234-3/31924
# Creation time: Sat Jun  5 12:52:30 2010


@<TRIPOS>MOLECULE
frag3-234-3/31924
   12    11     1     1     1
SMALL
USER_CHARGES


@<TRIPOS>ATOM
      1 S1          0.4437   -0.2037    0.5506 S.3        1 <1>        0.000
      2 S2         -1.4538    0.1469    0.9805 S.3        1 <1>        0.000
      3 S3         -2.1630    0.5052   -0.8619 S.3        1 <1>        0.000
      4 C1         -2.6199   -1.1184   -1.2848 C.2        1 <1>        0.000
      5 S4         -1.4845   -2.3704   -1.5056 S.2        1 <1>        0.000
      6 O1         -3.9465   -1.3881   -1.3803 O.3        1 <1>        0.000
      7 S5          1.1368    1.6608    0.4699 S.3        1 <1>        0.000
      8 C3          2.8291    1.4152    0.2907 C.2        1 <1>        0.000
      9 S6          3.9961    2.5181    0.7945 S.2        1 <1>        0.000
     10 O2          3.2137    0.2249   -0.2834 O.3        1 <1>        0.000
     11 H          -4.4472   -0.5827   -1.2312 H.spc      1 <1>        0.000
     12 H           2.4335   -0.2856   -0.5121 H.spc      1 <1>        0.000
@<TRIPOS>BOND
     1    1    2 1  
     2    1    7 1  
     3    2    3 1  
     4    3    4 1  
     5    4    5 2  
     6    4    6 1  
     7    7    8 1  
     8    8    9 2  
     9    8   10 1  
    10    6   11 1  
    11   10   12 1  
# Name:          frag3-234-3/31924
# Creation time: Sat Jun  5 12:52:30 2010


@<TRIPOS>MOLECULE
frag3-234-3/31924
   12    11     1     1     1
SMALL
USER_CHARGES


@<TRIPOS>ATOM
      1 S1          0.4183    0.1722    0.8473 S.3        1 <1>        0.000
      2 S2         -1.4553    0.5914    0.3634 S.3        1 <1>        0.000
      3 S3         -1.4935   -0.1518   -1.4913 S.3        1 <1>        0.000
      4 C1         -2.7155   -1.3769   -1.3126 C.2        1 <1>        0.000
      5 S4         -3.2275   -2.3587   -2.5879 S.2        1 <1>        0.000
      6 O1         -3.2800   -1.5089   -0.0697 O.3        1 <1>        0.000
      7 S5          1.3274    1.7723    0.0542 S.3        1 <1>        0.000
      8 C3          2.9766    1.4575    0.4785 C.2        1 <1>        0.000
      9 S6          3.8738    2.4944    1.4749 S.2        1 <1>        0.000
     10 O2          3.5273    0.2989    0.0132 O.3        1 <1>        0.000
     11 H          -2.8763   -0.8795    0.5324 H.spc      1 <1>        0.000
     12 H           2.8857   -0.1629   -0.5315 H.spc      1 <1>        0.000
@<TRIPOS>BOND
     1    1    2 1  
     2    1    7 1  
     3    2    3 1  
     4    3    4 1  
     5    4    5 2  
     6    4    6 1  
     7    7    8 1  
     8    8    9 2  
     9    8   10 1  
    10    6   11 1  
    11   10   12 1  
# Name:          frag3-234-3/31924
# Creation time: Sat Jun  5 12:52:30 2010


@<TRIPOS>MOLECULE
frag3-234-3/31924
   12    11     1     1     1
SMALL
USER_CHARGES


@<TRIPOS>ATOM
      1 S1         -0.1534    1.8475   -0.4008 S.3        1 <1>        0.000
      2 S2         -2.0931    1.6175   -0.0304 S.3        1 <1>        0.000
      3 S3         -2.5386    0.2901   -1.4484 S.3        1 <1>        0.000
      4 C1         -1.7125   -1.1351   -0.8349 C.2        1 <1>        0.000
      5 S4         -0.7607   -2.1395   -1.7897 S.2        1 <1>        0.000
      6 O1         -1.8586   -1.3784    0.5082 O.3        1 <1>        0.000
      7 S5          0.6295    0.4341    0.7729 S.3        1 <1>        0.000
      8 C3          2.3032    0.5501    0.3854 C.2        1 <1>        0.000
      9 S6          3.4839    0.9393    1.5320 S.2        1 <1>        0.000
     10 O2          2.6519    0.3648   -0.9242 O.3        1 <1>        0.000
     11 H          -2.4314   -0.7108    0.8927 H.spc      1 <1>        0.000
     12 H           1.8680    0.1519   -1.4358 H.spc      1 <1>        0.000
@<TRIPOS>BOND
     1    1    2 1  
     2    1    7 1  
     3    2    3 1  
     4    3    4 1  
     5    4    5 2  
     6    4    6 1  
     7    7    8 1  
     8    8    9 2  
     9    8   10 1  
    10    6   11 1  
    11   10   12 1  
# Name:          frag3-234-3/31924
# Creation time: Sat Jun  5 12:52:30 2010


@<TRIPOS>MOLECULE
frag3-234-3/31924
   12    11     1     1     1
SMALL
USER_CHARGES


@<TRIPOS>ATOM
      1 S1         -0.9098    0.2987    0.2178 S.3        1 <1>        0.000
      2 S2          0.9081   -0.4642    0.3726 S.3        1 <1>        0.000
      3 S3          1.9394    0.9186   -0.6553 S.3        1 <1>        0.000
      4 C1          2.9631    1.5113    0.6218 C.2        1 <1>        0.000
      5 S4          2.4286    2.6222    1.7817 S.2        1 <1>        0.000
      6 O1          4.2213    0.9963    0.6821 O.3        1 <1>        0.000
      7 S5         -1.4034   -0.3946   -1.5882 S.3        1 <1>        0.000
      8 C3         -2.9388   -1.1449   -1.2635 C.2        1 <1>        0.000
      9 S6         -3.9276   -1.7839   -2.4561 S.2        1 <1>        0.000
     10 O2         -3.3292   -1.1690    0.0571 O.3        1 <1>        0.000
     11 H           4.3522    0.3879   -0.0489 H.spc      1 <1>        0.000
     12 H          -2.6476   -0.7643    0.5986 H.spc      1 <1>        0.000
@<TRIPOS>BOND
     1    1    2 1  
     2    1    7 1  
     3    2    3 1  
     4    3    4 1  
     5    4    5 2  
     6    4    6 1  
     7    7    8 1  
     8    8    9 2  
     9    8   10 1  
    10    6   11 1  
    11   10   12 1  
# Name:          frag3-234-3/31924
# Creation time: Sat Jun  5 12:52:30 2010


@<TRIPOS>MOLECULE
frag3-234-3/31924
   12    11     1     1     1
SMALL
USER_CHARGES


@<TRIPOS>ATOM
      1 S1         -0.1583    0.9646    1.2424 S.3        1 <1>        0.000
      2 S2         -1.6422   -0.3315    1.3901 S.3        1 <1>        0.000
      3 S3         -2.7413    0.1877   -0.1620 S.3        1 <1>        0.000
      4 C1         -1.9627   -0.6676   -1.4576 C.2        1 <1>        0.000
      5 S4         -2.6572   -0.9239   -2.9643 S.2        1 <1>        0.000
      6 O1         -0.7145   -1.1895   -1.1888 O.3        1 <1>        0.000
      7 S5          1.4303   -0.2160    1.0250 S.3        1 <1>        0.000
      8 C3          2.5284    0.8456    0.2475 C.2        1 <1>        0.000
      9 S6          2.2061    1.5397   -1.2741 S.2        1 <1>        0.000
     10 O2          3.6629    1.1813    0.9118 O.3        1 <1>        0.000
     11 H          -0.4582   -0.9580   -0.2931 H.spc      1 <1>        0.000
     12 H           3.6956    0.7080    1.7464 H.spc      1 <1>        0.000
@<TRIPOS>BOND
     1    1    2 1  
     2    1    7 1  
     3    2    3 1  
     4    3    4 1  
     5    4    5 2  
     6    4    6 1  
     7    7    8 1  
     8    8    9 2  
     9    8   10 1  
    10    6   11 1  
    11   10   12 1  
# Name:          frag3-234-3/31924
# Creation time: Sat Jun  5 12:52:30 2010


@<TRIPOS>MOLECULE
frag3-234-3/31924
   12    11     1     1     1
SMALL
USER_CHARGES


@<TRIPOS>ATOM
      1 S1          0.2728    0.6062    1.3593 S.3        1 <1>        0.000
      2 S2         -0.7063   -0.9992    0.7971 S.3        1 <1>        0.000
      3 S3         -2.4499   -0.1861    0.2268 S.3        1 <1>        0.000
      4 C1         -2.7111   -1.0053   -1.2612 C.2        1 <1>        0.000
      5 S4         -1.5316   -1.0662   -2.4925 S.2        1 <1>        0.000
      6 O1         -3.8825   -1.6672   -1.4232 O.3        1 <1>        0.000
      7 S5          1.1562    1.1378   -0.3363 S.3        1 <1>        0.000
      8 C3          2.7791    1.3967    0.1761 C.2        1 <1>        0.000
      9 S6          3.8356    2.4699   -0.5706 S.2        1 <1>        0.000
     10 O2          3.1891    0.7037    1.2946 O.3        1 <1>        0.000
     11 H          -4.4335   -1.5346   -0.6483 H.spc      1 <1>        0.000
     12 H           2.4759    0.1373    1.5980 H.spc      1 <1>        0.000
@<TRIPOS>BOND
     1    1    2 1  
     2    1    7 1  
     3    2    3 1  
     4    3    4 1  
     5    4    5 2  
     6    4    6 1  
     7    7    8 1  
     8    8    9 2  
     9    8   10 1  
    10    6   11 1  
    11   10   12 1  
# Name:          frag3-234-3/31924
# Creation time: Sat Jun  5 12:52:30 2010


@<TRIPOS>MOLECULE
frag3-234-3/31924
   12    11     1     1     1
SMALL
USER_CHARGES


@<TRIPOS>ATOM
      1 S1          0.5764   -0.1590   -0.1480 S.3        1 <1>        0.000
      2 S2         -1.1612    0.2917    0.7031 S.3        1 <1>        0.000
      3 S3         -2.2817    0.6425   -0.8797 S.3        1 <1>        0.000
      4 C1         -2.7609   -0.9833   -1.2876 C.2        1 <1>        0.000
      5 S4         -2.7318   -1.6079   -2.8537 S.2        1 <1>        0.000
      6 O1         -3.1510   -1.7812   -0.2392 O.3        1 <1>        0.000
      7 S5          1.8411    0.1334    1.3554 S.3        1 <1>        0.000
      8 C3          2.9426    1.2448    0.6224 C.2        1 <1>        0.000
      9 S6          2.4454    2.7582    0.0145 S.2        1 <1>        0.000
     10 O2          4.2327    0.8512    0.4828 O.3        1 <1>        0.000
     11 H          -3.1118   -1.2772    0.5769 H.spc      1 <1>        0.000
     12 H           4.3454   -0.0173    0.8759 H.spc      1 <1>        0.000
@<TRIPOS>BOND
     1    1    2 1  
     2    1    7 1  
     3    2    3 1  
     4    3    4 1  
     5    4    5 2  
     6    4    6 1  
     7    7    8 1  
     8    8    9 2  
     9    8   10 1  
    10    6   11 1  
    11   10   12 1  
# Name:          frag3-234-3/31924
# Creation time: Sat Jun  5 12:52:30 2010


@<TRIPOS>MOLECULE
frag3-234-3/31924
   12    11     1     1     1
SMALL
USER_CHARGES


@<TRIPOS>ATOM
      1 S1         -1.3041   -0.0113    0.6656 S.3        1 <1>        0.000
      2 S2          0.6625   -0.1842    0.6590 S.3        1 <1>        0.000
      3 S3          1.1763    1.7555    0.5306 S.3        1 <1>        0.000
      4 C1          2.8874    1.6242    0.6965 C.2        1 <1>        0.000
      5 S4          3.8477    0.8873   -0.5062 S.2        1 <1>        0.000
      6 O1          3.4581    2.0769    1.8389 O.3        1 <1>        0.000
      7 S5         -1.6315    0.0998   -1.3034 S.3        1 <1>        0.000
      8 C3         -2.6813   -1.2633   -1.5246 C.2        1 <1>        0.000
      9 S6         -4.2042   -1.1246   -2.2490 S.2        1 <1>        0.000
     10 O2         -2.2592   -2.4698   -1.0375 O.3        1 <1>        0.000
     11 H           2.7823    2.4600    2.4029 H.spc      1 <1>        0.000
     12 H          -1.3806   -2.3727   -0.6630 H.spc      1 <1>        0.000
@<TRIPOS>BOND
     1    1    2 1  
     2    1    7 1  
     3    2    3 1  
     4    3    4 1  
     5    4    5 2  
     6    4    6 1  
     7    7    8 1  
     8    8    9 2  
     9    8   10 1  
    10    6   11 1  
    11   10   12 1  
# Name:          frag3-234-3/31924
# Creation time: Sat Jun  5 12:52:30 2010


@<TRIPOS>MOLECULE
frag3-234-3/31924
   12    11     1     1     1
SMALL
USER_CHARGES


@<TRIPOS>ATOM
      1 S1          0.5008    0.0119    0.4907 S.3        1 <1>        0.000
      2 S2         -1.4285    0.4686    0.5034 S.3        1 <1>        0.000
      3 S3         -1.8702    0.1677   -1.4170 S.3        1 <1>        0.000
      4 C1         -2.7786   -1.3228   -1.2835 C.2        1 <1>        0.000
      5 S4         -2.4186   -2.7036   -2.1807 S.2        1 <1>        0.000
      6 O1         -3.8011   -1.3233   -0.3745 O.3        1 <1>        0.000
      7 S5          1.2870    1.8427    0.5882 S.3        1 <1>        0.000
      8 C3          2.9775    1.4904    0.4584 C.2        1 <1>        0.000
      9 S6          4.1255    2.1055    1.5386 S.2        1 <1>        0.000
     10 O2          3.3578    0.6534   -0.5537 O.3        1 <1>        0.000
     11 H          -3.8603   -0.4591    0.0393 H.spc      1 <1>        0.000
     12 H           2.5862    0.4020   -1.0665 H.spc      1 <1>        0.000
@<TRIPOS>BOND
     1    1    2 1  
     2    1    7 1  
     3    2    3 1  
     4    3    4 1  
     5    4    5 2  
     6    4    6 1  
     7    7    8 1  
     8    8    9 2  
     9    8   10 1  
    10    6   11 1  
    11   10   12 1  
# Name:          frag3-234-3/31924
# Creation time: Sat Jun  5 12:52:30 2010


@<TRIPOS>MOLECULE
frag3-234-3/31924
   12    11     1     1     1
SMALL
USER_CHARGES


@<TRIPOS>ATOM
      1 S1         -1.6156   -0.0999    1.4835 S.3        1 <1>        0.000
      2 S2          0.3447   -0.3999    1.3016 S.3        1 <1>        0.000
      3 S3          1.0087    1.4600    1.1543 S.3        1 <1>        0.000
      4 C1          2.2341    1.2993   -0.0665 C.2        1 <1>        0.000
      5 S4          3.7472    2.0231    0.0636 S.2        1 <1>        0.000
      6 O1          1.9273    0.5045   -1.1399 O.3        1 <1>        0.000
      7 S5         -2.3019   -1.5011    0.2650 S.3        1 <1>        0.000
      8 C3         -1.9318   -0.7889   -1.2898 C.2        1 <1>        0.000
      9 S6         -1.3510   -1.6731   -2.6053 S.2        1 <1>        0.000
     10 O2         -2.1101    0.5664   -1.3964 O.3        1 <1>        0.000
     11 H           1.0288    0.1788   -1.0490 H.spc      1 <1>        0.000
     12 H          -2.4434    0.9106   -0.5645 H.spc      1 <1>        0.000
@<TRIPOS>BOND
     1    1    2 1  
     2    1    7 1  
     3    2    3 1  
     4    3    4 1  
     5    4    5 2  
     6    4    6 1  
     7    7    8 1  
     8    8    9 2  
     9    8   10 1  
    10    6   11 1  
    11   10   12 1  
# Name:          frag3-234-3/31924
# Creation time: Sat Jun  5 12:52:30 2010


@<TRIPOS>MOLECULE
frag3-234-3/31924
   12    11     1     1     1
SMALL
USER_CHARGES


@<TRIPOS>ATOM
      1 S1         -1.6514    1.3804   -0.3132 S.3        1 <1>        0.000
      2 S2          0.1747    1.7530   -0.9842 S.3        1 <1>        0.000
      3 S3          1.1765    2.0020    0.6936 S.3        1 <1>        0.000
      4 C1          2.4530    0.8379    0.5341 C.2        1 <1>        0.000
      5 S4          4.0148    1.1069    1.0800 S.2        1 <1>        0.000
      6 O1          2.1375   -0.3239   -0.1278 O.3        1 <1>        0.000
      7 S5         -2.3165    0.0806   -1.6580 S.3        1 <1>        0.000
      8 C3         -2.1393   -1.3974   -0.7691 C.2        1 <1>        0.000
      9 S6         -0.6253   -1.9933   -0.2651 S.2        1 <1>        0.000
     10 O2         -3.2724   -2.0557   -0.4202 O.3        1 <1>        0.000
     11 H           1.2079   -0.3122   -0.3671 H.spc      1 <1>        0.000
     12 H          -4.0332   -1.5939   -0.7802 H.spc      1 <1>        0.000
@<TRIPOS>BOND
     1    1    2 1  
     2    1    7 1  
     3    2    3 1  
     4    3    4 1  
     5    4    5 2  
     6    4    6 1  
     7    7    8 1  
     8    8    9 2  
     9    8   10 1  
    10    6   11 1  
    11   10   12 1  
# Name:          frag3-234-3/31924
# Creation time: Sat Jun  5 12:52:30 2010


@<TRIPOS>MOLECULE
frag3-234-3/31924
   12    11     1     1     1
SMALL
USER_CHARGES


@<TRIPOS>ATOM
      1 S1         -0.8935    0.4124    0.5949 S.3        1 <1>        0.000
      2 S2          0.7227    0.0085    1.6359 S.3        1 <1>        0.000
      3 S3          2.0371   -0.2523    0.1499 S.3        1 <1>        0.000
      4 C1          2.5459    1.4017   -0.0406 C.2        1 <1>        0.000
      5 S4          3.3090    2.2438    1.2143 S.2        1 <1>        0.000
      6 O1          2.2622    2.0321   -1.2108 O.3        1 <1>        0.000
      7 S5         -1.5488   -1.4354    0.1833 S.3        1 <1>        0.000
      8 C3         -2.5721   -1.1463   -1.1495 C.2        1 <1>        0.000
      9 S6         -2.0139   -0.4672   -2.6068 S.2        1 <1>        0.000
     10 O2         -3.8971   -1.4068   -1.0008 O.3        1 <1>        0.000
     11 H           1.8334    1.4159   -1.8092 H.spc      1 <1>        0.000
     12 H          -4.0522   -1.7848   -0.1321 H.spc      1 <1>        0.000
@<TRIPOS>BOND
     1    1    2 1  
     2    1    7 1  
     3    2    3 1  
     4    3    4 1  
     5    4    5 2  
     6    4    6 1  
     7    7    8 1  
     8    8    9 2  
     9    8   10 1  
    10    6   11 1  
    11   10   12 1  
# Name:          frag3-234-3/31924
# Creation time: Sat Jun  5 12:52:30 2010


@<TRIPOS>MOLECULE
frag3-234-3/31924
   12    11     1     1     1
SMALL
USER_CHARGES


@<TRIPOS>ATOM
      1 S1         -0.0642    1.8227    0.0089 S.3        1 <1>        0.000
      2 S2         -1.9586    1.3473    0.3159 S.3        1 <1>        0.000
      3 S3         -2.3835    0.4848   -1.4190 S.3        1 <1>        0.000
      4 C1         -1.9438   -1.1795   -1.1170 C.2        1 <1>        0.000
      5 S4         -2.0781   -2.4004   -2.2520 S.2        1 <1>        0.000
      6 O1         -1.4843   -1.4566    0.1531 O.3        1 <1>        0.000
      7 S5          0.8860    0.3296    0.9366 S.3        1 <1>        0.000
      8 C3          2.5122    0.6432    0.4820 C.2        1 <1>        0.000
      9 S6          3.3909    1.9504    1.1257 S.2        1 <1>        0.000
     10 O2          3.0749   -0.1512   -0.4640 O.3        1 <1>        0.000
     11 H          -1.4704   -0.6482    0.6706 H.spc      1 <1>        0.000
     12 H           2.4512   -0.8354   -0.7180 H.spc      1 <1>        0.000
@<TRIPOS>BOND
     1    1    2 1  
     2    1    7 1  
     3    2    3 1  
     4    3    4 1  
     5    4    5 2  
     6    4    6 1  
     7    7    8 1  
     8    8    9 2  
     9    8   10 1  
    10    6   11 1  
    11   10   12 1  
# Name:          frag3-234-3/31924
# Creation time: Sat Jun  5 12:52:30 2010


@<TRIPOS>MOLECULE
frag3-234-3/31924
   12    11     1     1     1
SMALL
USER_CHARGES


@<TRIPOS>ATOM
      1 S1          0.6744   -0.5182   -0.0741 S.3        1 <1>        0.000
      2 S2         -0.8101    0.8187    0.0305 S.3        1 <1>        0.000
      3 S3         -2.3305   -0.3535    0.4619 S.3        1 <1>        0.000
      4 C1         -2.7241   -0.9651   -1.1226 C.2        1 <1>        0.000
      5 S4         -3.2101   -2.5503   -1.4246 S.2        1 <1>        0.000
      6 O1         -2.5968   -0.0769   -2.1649 O.3        1 <1>        0.000
      7 S5          2.1117    0.5686   -0.9016 S.3        1 <1>        0.000
      8 C3          2.8090    1.2617    0.5479 C.2        1 <1>        0.000
      9 S6          2.0151    2.4350    1.4785 S.2        1 <1>        0.000
     10 O2          4.0130    0.7703    0.9390 O.3        1 <1>        0.000
     11 H          -2.3143    0.7753   -1.8250 H.spc      1 <1>        0.000
     12 H           4.3149    0.1205    0.3001 H.spc      1 <1>        0.000
@<TRIPOS>BOND
     1    1    2 1  
     2    1    7 1  
     3    2    3 1  
     4    3    4 1  
     5    4    5 2  
     6    4    6 1  
     7    7    8 1  
     8    8    9 2  
     9    8   10 1  
    10    6   11 1  
    11   10   12 1  
# Name:          frag3-234-3/31924
# Creation time: Sat Jun  5 12:52:30 2010


@<TRIPOS>MOLECULE
frag3-234-3/31924
   12    11     1     1     1
SMALL
USER_CHARGES


@<TRIPOS>ATOM
      1 S1          0.3184    1.4578   -1.0280 S.3        1 <1>        0.000
      2 S2         -1.1297    1.0246    0.2791 S.3        1 <1>        0.000
      3 S3         -2.5610    0.4562   -0.9500 S.3        1 <1>        0.000
      4 C1         -2.1630   -1.2392   -1.1245 C.2        1 <1>        0.000
      5 S4         -3.2141   -2.4646   -0.6574 S.2        1 <1>        0.000
      6 O1         -0.9149   -1.5382   -1.6069 O.3        1 <1>        0.000
      7 S5          1.6315    2.3313    0.1752 S.3        1 <1>        0.000
      8 C3          2.4204    0.9066    0.7979 C.2        1 <1>        0.000
      9 S6          3.1576   -0.2242   -0.2479 S.2        1 <1>        0.000
     10 O2          2.4065    0.6800    2.1323 O.3        1 <1>        0.000
     11 H          -0.4534   -0.7247   -1.8233 H.spc      1 <1>        0.000
     12 H           1.9580    1.4047    2.5741 H.spc      1 <1>        0.000
@<TRIPOS>BOND
     1    1    2 1  
     2    1    7 1  
     3    2    3 1  
     4    3    4 1  
     5    4    5 2  
     6    4    6 1  
     7    7    8 1  
     8    8    9 2  
     9    8   10 1  
    10    6   11 1  
    11   10   12 1  
# Name:          frag3-234-3/31924
# Creation time: Sat Jun  5 12:52:30 2010


@<TRIPOS>MOLECULE
frag3-234-3/31924
   12    11     1     1     1
SMALL
USER_CHARGES


@<TRIPOS>ATOM
      1 S1          0.4433    0.8755   -0.6308 S.3        1 <1>        0.000
      2 S2         -1.4538    0.9215   -0.1087 S.3        1 <1>        0.000
      3 S3         -1.7583   -1.0067    0.3382 S.3        1 <1>        0.000
      4 C1         -2.7344   -1.4503   -1.0196 C.2        1 <1>        0.000
      5 S4         -2.1524   -1.4397   -2.6200 S.2        1 <1>        0.000
      6 O1         -4.0379   -1.7497   -0.7793 O.3        1 <1>        0.000
      7 S5          1.3130    1.2350    1.1387 S.3        1 <1>        0.000
      8 C3          2.9662    1.2699    0.6827 C.2        1 <1>        0.000
      9 S6          3.5923    2.4596   -0.3633 S.2        1 <1>        0.000
     10 O2          3.7736    0.2754    1.1322 O.3        1 <1>        0.000
     11 H          -4.2047   -1.7127    0.1654 H.spc      1 <1>        0.000
     12 H           3.2719   -0.3074    1.7069 H.spc      1 <1>        0.000
@<TRIPOS>BOND
     1    1    2 1  
     2    1    7 1  
     3    2    3 1  
     4    3    4 1  
     5    4    5 2  
     6    4    6 1  
     7    7    8 1  
     8    8    9 2  
     9    8   10 1  
    10    6   11 1  
    11   10   12 1  
# Name:          frag3-234-3/31924
# Creation time: Sat Jun  5 12:52:30 2010


@<TRIPOS>MOLECULE
frag3-234-3/31924
   12    11     1     1     1
SMALL
USER_CHARGES


@<TRIPOS>ATOM
      1 S1         -0.1038    1.8300    0.0126 S.3        1 <1>        0.000
      2 S2         -1.9913    1.4100    0.4233 S.3        1 <1>        0.000
      3 S3         -2.5073    0.4923   -1.2677 S.3        1 <1>        0.000
      4 C1         -1.9006   -1.1239   -0.9784 C.2        1 <1>        0.000
      5 S4         -0.8669   -1.9385   -2.0212 S.2        1 <1>        0.000
      6 O1         -2.2925   -1.7001    0.2068 O.3        1 <1>        0.000
      7 S5          0.8115    0.1334    0.5718 S.3        1 <1>        0.000
      8 C3          2.4610    0.5633    0.3120 C.2        1 <1>        0.000
      9 S6          3.1840    1.8671    1.1229 S.2        1 <1>        0.000
     10 O2          3.1576   -0.1431   -0.6121 O.3        1 <1>        0.000
     11 H          -2.8783   -1.1004    0.6746 H.spc      1 <1>        0.000
     12 H           2.6002   -0.8388   -0.9683 H.spc      1 <1>        0.000
@<TRIPOS>BOND
     1    1    2 1  
     2    1    7 1  
     3    2    3 1  
     4    3    4 1  
     5    4    5 2  
     6    4    6 1  
     7    7    8 1  
     8    8    9 2  
     9    8   10 1  
    10    6   11 1  
    11   10   12 1  
# Name:          frag3-234-3/31924
# Creation time: Sat Jun  5 12:52:30 2010


@<TRIPOS>MOLECULE
frag3-234-3/31924
   12    11     1     1     1
SMALL
USER_CHARGES


@<TRIPOS>ATOM
      1 S1         -1.4049    0.4464    0.2577 S.3        1 <1>        0.000
      2 S2          0.5059    0.0011    0.5038 S.3        1 <1>        0.000
      3 S3          1.3209    1.7892    0.1564 S.3        1 <1>        0.000
      4 C1          2.9276    1.5478    0.7485 C.2        1 <1>        0.000
      5 S4          4.2459    2.4714    0.2374 S.2        1 <1>        0.000
      6 O1          3.1054    0.5342    1.6551 O.3        1 <1>        0.000
      7 S5         -1.6097   -0.0685   -1.6731 S.3        1 <1>        0.000
      8 C3         -2.6735   -1.4323   -1.4772 C.2        1 <1>        0.000
      9 S6         -4.2348   -1.2386   -0.8096 S.2        1 <1>        0.000
     10 O2         -2.2313   -2.6604   -1.8291 O.3        1 <1>        0.000
     11 H           2.2606    0.1151    1.8346 H.spc      1 <1>        0.000
     12 H          -1.3422   -2.5895   -2.1841 H.spc      1 <1>        0.000
@<TRIPOS>BOND
     1    1    2 1  
     2    1    7 1  
     3    2    3 1  
     4    3    4 1  
     5    4    5 2  
     6    4    6 1  
     7    7    8 1  
     8    8    9 2  
     9    8   10 1  
    10    6   11 1  
    11   10   12 1  
# Name:          frag3-234-3/31924
# Creation time: Sat Jun  5 12:52:30 2010


@<TRIPOS>MOLECULE
frag3-234-3/31924
   12    11     1     1     1
SMALL
USER_CHARGES


@<TRIPOS>ATOM
      1 S1         -0.5352    0.6789   -0.5761 S.3        1 <1>        0.000
      2 S2          0.6598   -0.6126    0.3647 S.3        1 <1>        0.000
      3 S3          2.4226   -0.1468   -0.3877 S.3        1 <1>        0.000
      4 C1          2.7639    1.2811    0.5445 C.2        1 <1>        0.000
      5 S4          2.0957    2.8058    0.2050 S.2        1 <1>        0.000
      6 O1          3.5629    1.1277    1.6374 O.3        1 <1>        0.000
      7 S5         -2.2911    0.1828    0.1728 S.3        1 <1>        0.000
      8 C3         -2.7740   -1.0136   -0.9872 C.2        1 <1>        0.000
      9 S6         -3.1762   -0.5917   -2.5861 S.2        1 <1>        0.000
     10 O2         -2.7770   -2.3213   -0.6172 O.3        1 <1>        0.000
     11 H           3.8589    0.2160    1.6906 H.spc      1 <1>        0.000
     12 H          -2.5305   -2.3915    0.3079 H.spc      1 <1>        0.000
@<TRIPOS>BOND
     1    1    2 1  
     2    1    7 1  
     3    2    3 1  
     4    3    4 1  
     5    4    5 2  
     6    4    6 1  
     7    7    8 1  
     8    8    9 2  
     9    8   10 1  
    10    6   11 1  
    11   10   12 1  
# Name:          frag3-234-3/31924
# Creation time: Sat Jun  5 12:52:30 2010


@<TRIPOS>MOLECULE
frag3-234-3/31924
   12    11     1     1     1
SMALL
USER_CHARGES


@<TRIPOS>ATOM
      1 S1         -0.5772   -0.1513    0.3483 S.3        1 <1>        0.000
      2 S2         -0.0331    1.7355    0.0320 S.3        1 <1>        0.000
      3 S3          1.2893    1.9529    1.4997 S.3        1 <1>        0.000
      4 C1          2.7033    1.2734    0.7179 C.2        1 <1>        0.000
      5 S4          3.6353    2.1878   -0.3624 S.2        1 <1>        0.000
      6 O1          3.0014   -0.0295    0.9616 O.3        1 <1>        0.000
      7 S5         -0.9598   -0.7600   -1.4929 S.3        1 <1>        0.000
      8 C3         -2.5546   -1.4170   -1.3100 C.2        1 <1>        0.000
      9 S6         -3.6220   -1.6494   -2.5931 S.2        1 <1>        0.000
     10 O2         -2.9311   -1.7520   -0.0309 O.3        1 <1>        0.000
     11 H           2.3738   -0.3873    1.5938 H.spc      1 <1>        0.000
     12 H          -2.2119   -1.5575    0.5745 H.spc      1 <1>        0.000
@<TRIPOS>BOND
     1    1    2 1  
     2    1    7 1  
     3    2    3 1  
     4    3    4 1  
     5    4    5 2  
     6    4    6 1  
     7    7    8 1  
     8    8    9 2  
     9    8   10 1  
    10    6   11 1  
    11   10   12 1  
# Name:          frag3-234-3/31924
# Creation time: Sat Jun  5 12:52:30 2010


@<TRIPOS>MOLECULE
frag3-234-3/31924
   12    11     1     1     1
SMALL
USER_CHARGES


@<TRIPOS>ATOM
      1 S1          0.6467    0.3695   -1.4439 S.3        1 <1>        0.000
      2 S2         -0.8942    1.4341   -0.7378 S.3        1 <1>        0.000
      3 S3         -2.4136    0.4866   -1.5524 S.3        1 <1>        0.000
      4 C1         -2.3777   -0.9941   -0.6120 C.2        1 <1>        0.000
      5 S4         -1.8440   -2.4718   -1.2160 S.2        1 <1>        0.000
      6 O1         -2.7691   -0.8791    0.6947 O.3        1 <1>        0.000
      7 S5          2.1796    1.4903   -0.8967 S.3        1 <1>        0.000
      8 C3          2.4632    0.8347    0.6888 C.2        1 <1>        0.000
      9 S6          1.4038    1.0768    1.9991 S.2        1 <1>        0.000
     10 O2          3.5570    0.0436    0.8461 O.3        1 <1>        0.000
     11 H          -3.0411    0.0252    0.8677 H.spc      1 <1>        0.000
     12 H           4.0473    0.0097    0.0214 H.spc      1 <1>        0.000
@<TRIPOS>BOND
     1    1    2 1  
     2    1    7 1  
     3    2    3 1  
     4    3    4 1  
     5    4    5 2  
     6    4    6 1  
     7    7    8 1  
     8    8    9 2  
     9    8   10 1  
    10    6   11 1  
    11   10   12 1  
# Name:          frag3-234-3/31924
# Creation time: Sat Jun  5 12:52:30 2010


@<TRIPOS>MOLECULE
frag3-234-3/31924
   12    11     1     1     1
SMALL
USER_CHARGES


@<TRIPOS>ATOM
      1 S1         -1.4982    0.9606    0.3239 S.3        1 <1>        0.000
      2 S2          0.2640    1.7239   -0.1068 S.3        1 <1>        0.000
      3 S3          1.4507    0.1253    0.1380 S.3        1 <1>        0.000
      4 C1          2.9229    0.9166    0.5596 C.2        1 <1>        0.000
      5 S4          3.0432    1.9388    1.9208 S.2        1 <1>        0.000
      6 O1          3.9893    0.7531   -0.2601 O.3        1 <1>        0.000
      7 S5         -2.0538    0.3256   -1.4819 S.3        1 <1>        0.000
      8 C3         -2.5830   -1.2879   -1.1556 C.2        1 <1>        0.000
      9 S6         -2.4983   -2.5474   -2.2714 S.2        1 <1>        0.000
     10 O2         -3.0852   -1.5180    0.1036 O.3        1 <1>        0.000
     11 H           3.7558    0.1516   -0.9709 H.spc      1 <1>        0.000
     12 H          -3.0634   -0.7024    0.6095 H.spc      1 <1>        0.000
@<TRIPOS>BOND
     1    1    2 1  
     2    1    7 1  
     3    2    3 1  
     4    3    4 1  
     5    4    5 2  
     6    4    6 1  
     7    7    8 1  
     8    8    9 2  
     9    8   10 1  
    10    6   11 1  
    11   10   12 1  
# Name:          frag3-234-3/31924
# Creation time: Sat Jun  5 12:52:30 2010


@<TRIPOS>MOLECULE
frag3-234-3/31924
   12    11     1     1     1
SMALL
USER_CHARGES


@<TRIPOS>ATOM
      1 S1         -0.6655    1.0054   -1.9883 S.3        1 <1>        0.000
      2 S2          0.0198    1.5432   -0.2127 S.3        1 <1>        0.000
      3 S3          1.1122   -0.0440    0.3046 S.3        1 <1>        0.000
      4 C1          2.5421    0.7395    0.8509 C.2        1 <1>        0.000
      5 S4          2.5589    1.6754    2.2611 S.2        1 <1>        0.000
      6 O1          3.6570    0.6412    0.0801 O.3        1 <1>        0.000
      7 S5         -2.5219    0.5250   -1.4833 S.3        1 <1>        0.000
      8 C3         -2.3010   -1.0631   -0.8160 C.2        1 <1>        0.000
      9 S6         -2.9188   -2.4536   -1.5397 S.2        1 <1>        0.000
     10 O2         -1.5311   -1.1787    0.3132 O.3        1 <1>        0.000
     11 H           3.4742    0.0765   -0.6745 H.spc      1 <1>        0.000
     12 H          -1.2569   -0.3055    0.6029 H.spc      1 <1>        0.000
@<TRIPOS>BOND
     1    1    2 1  
     2    1    7 1  
     3    2    3 1  
     4    3    4 1  
     5    4    5 2  
     6    4    6 1  
     7    7    8 1  
     8    8    9 2  
     9    8   10 1  
    10    6   11 1  
    11   10   12 1  
# Name:          frag3-234-3/31924
# Creation time: Sat Jun  5 12:52:30 2010


@<TRIPOS>MOLECULE
frag3-234-3/31924
   12    11     1     1     1
SMALL
USER_CHARGES


@<TRIPOS>ATOM
      1 S1         -0.1431    1.3081    0.7660 S.3        1 <1>        0.000
      2 S2         -1.7085    0.2655    1.3663 S.3        1 <1>        0.000
      3 S3         -2.8353    0.3433   -0.2700 S.3        1 <1>        0.000
      4 C1         -2.0930   -0.9053   -1.2425 C.2        1 <1>        0.000
      5 S4         -1.1019   -0.5996   -2.5667 S.2        1 <1>        0.000
      6 O1         -2.3255   -2.1920   -0.8322 O.3        1 <1>        0.000
      7 S5          1.1576   -0.1360    0.2941 S.3        1 <1>        0.000
      8 C3          2.6062    0.7701    0.1714 C.2        1 <1>        0.000
      9 S6          2.7781    2.0449   -0.9479 S.2        1 <1>        0.000
     10 O2          3.6169    0.4914    1.0314 O.3        1 <1>        0.000
     11 H          -2.9081   -2.1831   -0.0693 H.spc      1 <1>        0.000
     12 H           3.3652   -0.2472    1.5906 H.spc      1 <1>        0.000
@<TRIPOS>BOND
     1    1    2 1  
     2    1    7 1  
     3    2    3 1  
     4    3    4 1  
     5    4    5 2  
     6    4    6 1  
     7    7    8 1  
     8    8    9 2  
     9    8   10 1  
    10    6   11 1  
    11   10   12 1  
# Name:          frag3-234-3/31924
# Creation time: Sat Jun  5 12:52:30 2010


@<TRIPOS>MOLECULE
frag3-234-3/31924
   12    11     1     1     1
SMALL
USER_CHARGES


@<TRIPOS>ATOM
      1 S1          0.2440    0.7154   -0.2844 S.3        1 <1>        0.000
      2 S2         -1.0984   -0.1610    0.9017 S.3        1 <1>        0.000
      3 S3         -2.7507    0.1597   -0.1427 S.3        1 <1>        0.000
      4 C1         -2.6707   -1.1821   -1.2733 C.2        1 <1>        0.000
      5 S4         -2.9640   -1.0127   -2.9239 S.2        1 <1>        0.000
      6 O1         -2.3263   -2.3957   -0.7425 O.3        1 <1>        0.000
      7 S5          1.9244   -0.0670    0.4238 S.3        1 <1>        0.000
      8 C3          2.8818    1.3701    0.6189 C.2        1 <1>        0.000
      9 S6          4.2042    1.7074   -0.3905 S.2        1 <1>        0.000
     10 O2          2.5074    2.2563    1.5830 O.3        1 <1>        0.000
     11 H          -2.1986   -2.3048    0.2046 H.spc      1 <1>        0.000
     12 H           1.7480    1.9098    2.0571 H.spc      1 <1>        0.000
@<TRIPOS>BOND
     1    1    2 1  
     2    1    7 1  
     3    2    3 1  
     4    3    4 1  
     5    4    5 2  
     6    4    6 1  
     7    7    8 1  
     8    8    9 2  
     9    8   10 1  
    10    6   11 1  
    11   10   12 1  
# Name:          frag3-234-3/31924
# Creation time: Sat Jun  5 12:52:30 2010


@<TRIPOS>MOLECULE
frag3-234-3/31924
   12    11     1     1     1
SMALL
USER_CHARGES


@<TRIPOS>ATOM
      1 S1         -1.3382    1.1253   -0.2901 S.3        1 <1>        0.000
      2 S2          0.2428    0.0599    0.2949 S.3        1 <1>        0.000
      3 S3          1.6885    0.9172   -0.7394 S.3        1 <1>        0.000
      4 C1          2.7790    1.3697    0.5288 C.2        1 <1>        0.000
      5 S4          4.4571    1.3351    0.3507 S.2        1 <1>        0.000
      6 O1          2.2232    1.7205    1.7333 O.3        1 <1>        0.000
      7 S5         -2.7905   -0.1406    0.1992 S.3        1 <1>        0.000
      8 C3         -2.5084   -1.3688   -1.0156 C.2        1 <1>        0.000
      9 S6         -2.7786   -1.0555   -2.6694 S.2        1 <1>        0.000
     10 O2         -2.0234   -2.5724   -0.6224 O.3        1 <1>        0.000
     11 H           1.2662    1.6896    1.6640 H.spc      1 <1>        0.000
     12 H          -1.9311   -2.5823    0.3331 H.spc      1 <1>        0.000
@<TRIPOS>BOND
     1    1    2 1  
     2    1    7 1  
     3    2    3 1  
     4    3    4 1  
     5    4    5 2  
     6    4    6 1  
     7    7    8 1  
     8    8    9 2  
     9    8   10 1  
    10    6   11 1  
    11   10   12 1  
# Name:          frag3-234-3/31924
# Creation time: Sat Jun  5 12:52:30 2010


@<TRIPOS>MOLECULE
frag3-234-3/31924
   12    11     1     1     1
SMALL
USER_CHARGES


@<TRIPOS>ATOM
      1 S1         -1.3206    1.2581   -0.2116 S.3        1 <1>        0.000
      2 S2          0.1366    2.5659   -0.3131 S.3        1 <1>        0.000
      3 S3          1.2018    2.0243    1.2932 S.3        1 <1>        0.000
      4 C1          2.1297    0.7258    0.6292 C.2        1 <1>        0.000
      5 S4          3.0268    0.9105   -0.8105 S.2        1 <1>        0.000
      6 O1          2.1076   -0.4863    1.2379 O.3        1 <1>        0.000
      7 S5         -0.5540   -0.3459   -1.1186 S.3        1 <1>        0.000
      8 C3         -1.8214   -1.4658   -0.9897 C.2        1 <1>        0.000
      9 S6         -3.2697   -1.3182   -1.8574 S.2        1 <1>        0.000
     10 O2         -1.6850   -2.4780   -0.0893 O.3        1 <1>        0.000
     11 H           1.5666   -0.4359    2.0293 H.spc      1 <1>        0.000
     12 H          -0.8168   -2.4282    0.3174 H.spc      1 <1>        0.000
@<TRIPOS>BOND
     1    1    2 1  
     2    1    7 1  
     3    2    3 1  
     4    3    4 1  
     5    4    5 2  
     6    4    6 1  
     7    7    8 1  
     8    8    9 2  
     9    8   10 1  
    10    6   11 1  
    11   10   12 1  
# Name:          frag3-234-3/31924
# Creation time: Sat Jun  5 12:52:30 2010


@<TRIPOS>MOLECULE
frag3-234-3/31924
   12    11     1     1     1
SMALL
USER_CHARGES


@<TRIPOS>ATOM
      1 S1          0.7438   -0.0533   -0.8695 S.3        1 <1>        0.000
      2 S2         -0.7303    0.2956    0.4275 S.3        1 <1>        0.000
      3 S3         -2.2388    0.7107   -0.7676 S.3        1 <1>        0.000
      4 C1         -2.8513   -0.8895   -1.0319 C.2        1 <1>        0.000
      5 S4         -2.1557   -1.9954   -2.1159 S.2        1 <1>        0.000
      6 O1         -3.9105   -1.2771   -0.2652 O.3        1 <1>        0.000
      7 S5          2.2601   -0.4401    0.3348 S.3        1 <1>        0.000
      8 C3          2.8420    1.1733    0.5965 C.2        1 <1>        0.000
      9 S6          1.9297    2.3818    1.3754 S.2        1 <1>        0.000
     10 O2          4.0625    1.4845    0.0859 O.3        1 <1>        0.000
     11 H          -4.1869   -0.5447    0.2905 H.spc      1 <1>        0.000
     12 H           4.4479    0.7034   -0.3177 H.spc      1 <1>        0.000
@<TRIPOS>BOND
     1    1    2 1  
     2    1    7 1  
     3    2    3 1  
     4    3    4 1  
     5    4    5 2  
     6    4    6 1  
     7    7    8 1  
     8    8    9 2  
     9    8   10 1  
    10    6   11 1  
    11   10   12 1  
# Name:          frag3-234-3/31924
# Creation time: Sat Jun  5 12:52:30 2010


@<TRIPOS>MOLECULE
frag3-234-3/31924
   12    11     1     1     1
SMALL
USER_CHARGES


@<TRIPOS>ATOM
      1 S1          0.7552    0.1308   -0.8643 S.3        1 <1>        0.000
      2 S2         -0.9011    0.6833   -1.7866 S.3        1 <1>        0.000
      3 S3         -2.2277    0.3360   -0.3183 S.3        1 <1>        0.000
      4 C1         -2.6060   -1.3149   -0.7079 C.2        1 <1>        0.000
      5 S4         -2.9820   -1.7819   -2.3104 S.2        1 <1>        0.000
      6 O1         -2.5732   -2.2483    0.2700 O.3        1 <1>        0.000
      7 S5          1.2351    1.8429    0.0466 S.3        1 <1>        0.000
      8 C3          2.6259    1.3792    0.9399 C.2        1 <1>        0.000
      9 S6          4.2034    1.6748    0.4002 S.2        1 <1>        0.000
     10 O2          2.4220    0.6885    2.1007 O.3        1 <1>        0.000
     11 H          -2.3491   -1.8288    1.1039 H.spc      1 <1>        0.000
     12 H           1.4792    0.6080    2.2624 H.spc      1 <1>        0.000
@<TRIPOS>BOND
     1    1    2 1  
     2    1    7 1  
     3    2    3 1  
     4    3    4 1  
     5    4    5 2  
     6    4    6 1  
     7    7    8 1  
     8    8    9 2  
     9    8   10 1  
    10    6   11 1  
    11   10   12 1  
# Name:          frag3-234-3/31924
# Creation time: Sat Jun  5 12:52:30 2010


@<TRIPOS>MOLECULE
frag3-234-3/31924
   12    11     1     1     1
SMALL
USER_CHARGES


@<TRIPOS>ATOM
      1 S1          0.7665   -0.6955    0.8325 S.3        1 <1>        0.000
      2 S2         -1.1788   -0.3790    1.0879 S.3        1 <1>        0.000
      3 S3         -1.9328   -1.7790   -0.0902 S.3        1 <1>        0.000
      4 C1         -2.4558   -0.8165   -1.4460 C.2        1 <1>        0.000
      5 S4         -3.1410   -1.4818   -2.8386 S.2        1 <1>        0.000
      6 O1         -2.2982    0.5414   -1.3352 O.3        1 <1>        0.000
      7 S5          1.5242    0.9580    1.6175 S.3        1 <1>        0.000
      8 C3          2.5953    1.4705    0.3488 C.2        1 <1>        0.000
      9 S6          2.7959    3.0894   -0.0952 S.2        1 <1>        0.000
     10 O2          3.2762    0.4831   -0.3113 O.3        1 <1>        0.000
     11 H          -1.8970    0.7478   -0.4878 H.spc      1 <1>        0.000
     12 H           3.0468   -0.3694    0.0659 H.spc      1 <1>        0.000
@<TRIPOS>BOND
     1    1    2 1  
     2    1    7 1  
     3    2    3 1  
     4    3    4 1  
     5    4    5 2  
     6    4    6 1  
     7    7    8 1  
     8    8    9 2  
     9    8   10 1  
    10    6   11 1  
    11   10   12 1  
# Name:          frag3-234-3/31924
# Creation time: Sat Jun  5 12:52:30 2010


@<TRIPOS>MOLECULE
frag3-234-3/31924
   12    11     1     1     1
SMALL
USER_CHARGES


@<TRIPOS>ATOM
      1 S1          0.2590    1.3271   -1.1269 S.3        1 <1>        0.000
      2 S2         -1.1657    1.0707    0.2580 S.3        1 <1>        0.000
      3 S3         -2.6357    0.3778   -0.8672 S.3        1 <1>        0.000
      4 C1         -2.2187   -1.3278   -0.9005 C.2        1 <1>        0.000
      5 S4         -2.2341   -2.2553   -2.3040 S.2        1 <1>        0.000
      6 O1         -1.8461   -1.8759    0.2995 O.3        1 <1>        0.000
      7 S5          1.5931    2.3290   -0.0542 S.3        1 <1>        0.000
      8 C3          2.4450    0.9791    0.6789 C.2        1 <1>        0.000
      9 S6          3.8528    0.3437   -0.0100 S.2        1 <1>        0.000
     10 O2          1.9021    0.4220    1.7965 O.3        1 <1>        0.000
     11 H          -1.8966   -1.2061    0.9854 H.spc      1 <1>        0.000
     12 H           1.1126    0.9088    2.0442 H.spc      1 <1>        0.000
@<TRIPOS>BOND
     1    1    2 1  
     2    1    7 1  
     3    2    3 1  
     4    3    4 1  
     5    4    5 2  
     6    4    6 1  
     7    7    8 1  
     8    8    9 2  
     9    8   10 1  
    10    6   11 1  
    11   10   12 1  
# Name:          frag3-234-3/31924
# Creation time: Sat Jun  5 12:52:30 2010


@<TRIPOS>MOLECULE
frag3-234-3/31924
   12    11     1     1     1
SMALL
USER_CHARGES


@<TRIPOS>ATOM
      1 S1         -0.2900   -0.0374   -0.6924 S.3        1 <1>        0.000
      2 S2          0.3605    1.8237   -0.5172 S.3        1 <1>        0.000
      3 S3          1.1865    1.7302    1.2907 S.3        1 <1>        0.000
      4 C1          2.7635    1.1490    0.8278 C.2        1 <1>        0.000
      5 S4          3.9264    2.1878    0.1462 S.2        1 <1>        0.000
      6 O1          3.0368   -0.1751    0.9687 O.3        1 <1>        0.000
      7 S5         -2.2381    0.2696   -0.9800 S.3        1 <1>        0.000
      8 C3         -2.8153   -1.3505   -1.0180 C.2        1 <1>        0.000
      9 S6         -2.4055   -2.4237   -2.2767 S.2        1 <1>        0.000
     10 O2         -3.5730   -1.7832    0.0209 O.3        1 <1>        0.000
     11 H           2.2823   -0.6159    1.3662 H.spc      1 <1>        0.000
     12 H          -3.7111   -1.0605    0.6376 H.spc      1 <1>        0.000
@<TRIPOS>BOND
     1    1    2 1  
     2    1    7 1  
     3    2    3 1  
     4    3    4 1  
     5    4    5 2  
     6    4    6 1  
     7    7    8 1  
     8    8    9 2  
     9    8   10 1  
    10    6   11 1  
    11   10   12 1  
# Name:          frag3-234-3/31924
# Creation time: Sat Jun  5 12:52:30 2010


@<TRIPOS>MOLECULE
frag3-234-3/31924
   12    11     1     1     1
SMALL
USER_CHARGES


@<TRIPOS>ATOM
      1 S1         -1.0401    1.3995   -0.2669 S.3        1 <1>        0.000
      2 S2         -0.1521    0.8326    1.4232 S.3        1 <1>        0.000
      3 S3          1.5412    1.8381    1.3702 S.3        1 <1>        0.000
      4 C1          2.4567    0.8023    0.3261 C.2        1 <1>        0.000
      5 S4          2.0569    0.5077   -1.3019 S.2        1 <1>        0.000
      6 O1          3.5065    0.1363    0.8769 O.3        1 <1>        0.000
      7 S5         -2.6492    0.2834   -0.2611 S.3        1 <1>        0.000
      8 C3         -2.0892   -1.0987   -1.1363 C.2        1 <1>        0.000
      9 S6         -2.2375   -1.2258   -2.8161 S.2        1 <1>        0.000
     10 O2         -1.4416   -2.0851   -0.4442 O.3        1 <1>        0.000
     11 H           3.6091    0.4045    1.7929 H.spc      1 <1>        0.000
     12 H          -1.4404   -1.8701    0.4914 H.spc      1 <1>        0.000
@<TRIPOS>BOND
     1    1    2 1  
     2    1    7 1  
     3    2    3 1  
     4    3    4 1  
     5    4    5 2  
     6    4    6 1  
     7    7    8 1  
     8    8    9 2  
     9    8   10 1  
    10    6   11 1  
    11   10   12 1  
# Name:          frag3-234-3/31924
# Creation time: Sat Jun  5 12:52:30 2010


@<TRIPOS>MOLECULE
frag3-234-3/31924
   12    11     1     1     1
SMALL
USER_CHARGES


@<TRIPOS>ATOM
      1 S1          0.2613    1.7643   -0.1759 S.3        1 <1>        0.000
      2 S2         -1.3326    0.8213    0.4283 S.3        1 <1>        0.000
      3 S3         -2.2333    0.4115   -1.3103 S.3        1 <1>        0.000
      4 C1         -2.6428   -1.2304   -1.1040 C.2        1 <1>        0.000
      5 S4         -1.5231   -2.4166   -0.6186 S.2        1 <1>        0.000
      6 O1         -3.9432   -1.5820   -1.2729 O.3        1 <1>        0.000
      7 S5          1.5762    0.2880   -0.4465 S.3        1 <1>        0.000
      8 C3          2.9058    0.8936    0.4374 C.2        1 <1>        0.000
      9 S6          2.8173    1.3445    2.0740 S.2        1 <1>        0.000
     10 O2          4.0660    1.0961   -0.2414 O.3        1 <1>        0.000
     11 H          -4.4487   -0.8127   -1.5454 H.spc      1 <1>        0.000
     12 H           3.9627    0.7939   -1.1467 H.spc      1 <1>        0.000
@<TRIPOS>BOND
     1    1    2 1  
     2    1    7 1  
     3    2    3 1  
     4    3    4 1  
     5    4    5 2  
     6    4    6 1  
     7    7    8 1  
     8    8    9 2  
     9    8   10 1  
    10    6   11 1  
    11   10   12 1  
# Name:          frag3-234-3/31924
# Creation time: Sat Jun  5 12:52:30 2010


@<TRIPOS>MOLECULE
frag3-234-3/31924
   12    11     1     1     1
SMALL
USER_CHARGES


@<TRIPOS>ATOM
      1 S1          0.4206    0.2858   -0.4264 S.3        1 <1>        0.000
      2 S2         -1.3346    0.6227    0.4403 S.3        1 <1>        0.000
      3 S3         -2.5450    0.4188   -1.1310 S.3        1 <1>        0.000
      4 C1         -2.7392   -1.3149   -1.0825 C.2        1 <1>        0.000
      5 S4         -1.4813   -2.3942   -1.4816 S.2        1 <1>        0.000
      6 O1         -3.9321   -1.7973   -0.6521 O.3        1 <1>        0.000
      7 S5          1.3802    1.9507    0.0319 S.3        1 <1>        0.000
      8 C3          2.9161    1.3363    0.5395 C.2        1 <1>        0.000
      9 S6          4.2113    2.3149    0.9867 S.2        1 <1>        0.000
     10 O2          3.0557   -0.0324    0.5453 O.3        1 <1>        0.000
     11 H          -4.5258   -1.0649   -0.4714 H.spc      1 <1>        0.000
     12 H           2.2314   -0.4382    0.2669 H.spc      1 <1>        0.000
@<TRIPOS>BOND
     1    1    2 1  
     2    1    7 1  
     3    2    3 1  
     4    3    4 1  
     5    4    5 2  
     6    4    6 1  
     7    7    8 1  
     8    8    9 2  
     9    8   10 1  
    10    6   11 1  
    11   10   12 1  
# Name:          frag3-234-3/31924
# Creation time: Sat Jun  5 12:52:30 2010


@<TRIPOS>MOLECULE
frag3-234-3/31924
   12    11     1     1     1
SMALL
USER_CHARGES


@<TRIPOS>ATOM
      1 S1         -0.7608    0.7880   -1.2656 S.3        1 <1>        0.000
      2 S2         -0.1415    1.0885    0.6061 S.3        1 <1>        0.000
      3 S3          1.4060    2.2757    0.2774 S.3        1 <1>        0.000
      4 C1          2.7292    1.1649    0.5554 C.2        1 <1>        0.000
      5 S4          4.2961    1.6758    0.8844 S.2        1 <1>        0.000
      6 O1          2.4199   -0.1724    0.5217 O.3        1 <1>        0.000
      7 S5         -2.6675    0.3275   -0.9181 S.3        1 <1>        0.000
      8 C3         -2.5235   -1.4127   -0.8867 C.2        1 <1>        0.000
      9 S6         -2.0547   -2.2804   -2.2809 S.2        1 <1>        0.000
     10 O2         -2.7517   -2.0646    0.2764 O.3        1 <1>        0.000
     11 H           1.4872   -0.2790    0.3209 H.spc      1 <1>        0.000
     12 H          -3.0042   -1.4316    0.9525 H.spc      1 <1>        0.000
@<TRIPOS>BOND
     1    1    2 1  
     2    1    7 1  
     3    2    3 1  
     4    3    4 1  
     5    4    5 2  
     6    4    6 1  
     7    7    8 1  
     8    8    9 2  
     9    8   10 1  
    10    6   11 1  
    11   10   12 1  
# Name:          frag3-234-3/31924
# Creation time: Sat Jun  5 12:52:30 2010


@<TRIPOS>MOLECULE
frag3-234-3/31924
   12    11     1     1     1
SMALL
USER_CHARGES


@<TRIPOS>ATOM
      1 S1          0.3605    0.4571   -0.3321 S.3        1 <1>        0.000
      2 S2         -1.1628   -0.0051    0.8471 S.3        1 <1>        0.000
      3 S3         -2.6935    0.3600   -0.3681 S.3        1 <1>        0.000
      4 C1         -2.7377   -1.1673   -1.1995 C.2        1 <1>        0.000
      5 S4         -1.5378   -1.6661   -2.2994 S.2        1 <1>        0.000
      6 O1         -3.7550   -2.0145   -0.8892 O.3        1 <1>        0.000
      7 S5          1.2809    1.8295    0.7623 S.3        1 <1>        0.000
      8 C3          2.9169    1.3349    0.5629 C.2        1 <1>        0.000
      9 S6          3.7523    1.5823   -0.8988 S.2        1 <1>        0.000
     10 O2          3.5277    0.6794    1.5846 O.3        1 <1>        0.000
     11 H          -4.3437   -1.5894   -0.2612 H.spc      1 <1>        0.000
     12 H           2.9273    0.6231    2.3315 H.spc      1 <1>        0.000
@<TRIPOS>BOND
     1    1    2 1  
     2    1    7 1  
     3    2    3 1  
     4    3    4 1  
     5    4    5 2  
     6    4    6 1  
     7    7    8 1  
     8    8    9 2  
     9    8   10 1  
    10    6   11 1  
    11   10   12 1  
# Name:          frag3-234-3/31924
# Creation time: Sat Jun  5 12:52:30 2010


@<TRIPOS>MOLECULE
frag3-234-3/31924
   12    11     1     1     1
SMALL
USER_CHARGES


@<TRIPOS>ATOM
      1 S1          0.1795    0.1385    1.6263 S.3        1 <1>        0.000
      2 S2         -1.4426   -0.9124    1.3200 S.3        1 <1>        0.000
      3 S3         -2.4023    0.3004    0.0385 S.3        1 <1>        0.000
      4 C1         -2.0476   -0.4731   -1.4614 C.2        1 <1>        0.000
      5 S4         -2.5621   -2.0629   -1.7867 S.2        1 <1>        0.000
      6 O1         -1.2953    0.1813   -2.3837 O.3        1 <1>        0.000
      7 S5          1.1090    0.0112   -0.1456 S.3        1 <1>        0.000
      8 C3          2.4453    1.0345    0.0894 C.2        1 <1>        0.000
      9 S6          2.3003    2.7186    0.2416 S.2        1 <1>        0.000
     10 O2          3.6675    0.4543    0.2314 O.3        1 <1>        0.000
     11 H          -1.0853    1.0599   -2.0587 H.spc      1 <1>        0.000
     12 H           3.5847   -0.4954    0.1183 H.spc      1 <1>        0.000
@<TRIPOS>BOND
     1    1    2 1  
     2    1    7 1  
     3    2    3 1  
     4    3    4 1  
     5    4    5 2  
     6    4    6 1  
     7    7    8 1  
     8    8    9 2  
     9    8   10 1  
    10    6   11 1  
    11   10   12 1  
# Name:          frag3-234-3/31924
# Creation time: Sat Jun  5 12:52:30 2010


@<TRIPOS>MOLECULE
frag3-234-3/31924
   12    11     1     1     1
SMALL
USER_CHARGES


@<TRIPOS>ATOM
      1 S1          0.1125    0.6871    1.4397 S.3        1 <1>        0.000
      2 S2         -1.4111   -0.5191    1.1327 S.3        1 <1>        0.000
      3 S3         -2.3110    0.4271   -0.3765 S.3        1 <1>        0.000
      4 C1         -2.3091   -0.7977   -1.5933 C.2        1 <1>        0.000
      5 S4         -3.6963   -1.6951   -1.9693 S.2        1 <1>        0.000
      6 O1         -1.1254   -1.0827   -2.2138 O.3        1 <1>        0.000
      7 S5          1.4756   -0.0711    0.1830 S.3        1 <1>        0.000
      8 C3          2.7487    1.0825    0.3559 C.2        1 <1>        0.000
      9 S6          2.5988    2.6766   -0.1997 S.2        1 <1>        0.000
     10 O2          3.8689    0.6829    1.0112 O.3        1 <1>        0.000
     11 H          -0.4447   -0.4878   -1.8908 H.spc      1 <1>        0.000
     12 H           3.7844   -0.2426    1.2520 H.spc      1 <1>        0.000
@<TRIPOS>BOND
     1    1    2 1  
     2    1    7 1  
     3    2    3 1  
     4    3    4 1  
     5    4    5 2  
     6    4    6 1  
     7    7    8 1  
     8    8    9 2  
     9    8   10 1  
    10    6   11 1  
    11   10   12 1  
# Name:          frag3-234-3/31924 -- energy: 1.556654
# Creation time: Sat Jun  5 12:52:30 2010


@<TRIPOS>MOLECULE
frag3-234-3/31924 -- energy: 1.556654
   12    11     1     1     1
SMALL
USER_CHARGES


@<TRIPOS>ATOM
      1 S1         -0.7801    0.3033    0.6075 S.3        1 <1>        0.000
      2 S2          0.7756   -0.6404   -0.2235 S.3        1 <1>        0.000
      3 S3          1.7764    0.9483   -0.8969 S.3        1 <1>        0.000
      4 C1          2.6511    1.3849    0.5473 C.2        1 <1>        0.000
      5 S4          2.9902    2.9749    0.9939 S.2        1 <1>        0.000
      6 O1          3.0555    0.3456    1.3500 O.3        1 <1>        0.000
      7 S5         -1.8970    0.5434   -1.0281 S.3        1 <1>        0.000
      8 C3         -2.6552   -1.0271   -1.1127 C.2        1 <1>        0.000
      9 S6         -3.0456   -1.8042   -2.5566 S.2        1 <1>        0.000
     10 O2         -2.9194   -1.6383    0.0892 O.3        1 <1>        0.000
     11 H           2.7855   -0.4865    0.9545 H.spc      1 <1>        0.000
     12 H          -2.6381   -1.0658    0.8067 H.spc      1 <1>        0.000
@<TRIPOS>BOND
     1    1    2 1  
     2    1    7 1  
     3    2    3 1  
     4    3    4 1  
     5    4    5 2  
     6    4    6 1  
     7    7    8 1  
     8    8    9 2  
     9    8   10 1  
    10    6   11 1  
    11   10   12 1  
# Name:          frag3-234-3/31924 -- energy: -0.922188
# Creation time: Sat Jun  5 12:52:30 2010


@<TRIPOS>MOLECULE
frag3-234-3/31924 -- energy: -0.922188
   12    11     1     1     1
SMALL
USER_CHARGES


@<TRIPOS>ATOM
      1 S1          0.8396   -0.5714   -0.1432 S.3        1 <1>        0.000
      2 S2         -0.8695    0.1450    0.5935 S.3        1 <1>        0.000
      3 S3         -1.8461    0.4158   -1.1271 S.3        1 <1>        0.000
      4 C1         -2.5434   -1.1642   -1.3149 C.2        1 <1>        0.000
      5 S4         -4.2050   -1.4408   -1.1857 S.2        1 <1>        0.000
      6 O1         -1.6921   -2.2197   -1.5104 O.3        1 <1>        0.000
      7 S5          1.6513    1.1486   -0.7455 S.3        1 <1>        0.000
      8 C3          2.5466    1.5812    0.6781 C.2        1 <1>        0.000
      9 S6          4.2015    1.9034    0.6533 S.2        1 <1>        0.000
     10 O2          1.8686    1.5925    1.8720 O.3        1 <1>        0.000
     11 H          -0.7897   -1.8962   -1.5619 H.spc      1 <1>        0.000
     12 H           0.9431    1.3916    1.7150 H.spc      1 <1>        0.000
@<TRIPOS>BOND
     1    1    2 1  
     2    1    7 1  
     3    2    3 1  
     4    3    4 1  
     5    4    5 2  
     6    4    6 1  
     7    7    8 1  
     8    8    9 2  
     9    8   10 1  
    10    6   11 1  
    11   10   12 1  
# Name:          frag3-234-3/31924 -- energy: -2.429234
# Creation time: Sat Jun  5 12:52:30 2010


@<TRIPOS>MOLECULE
frag3-234-3/31924 -- energy: -2.429234
   12    11     1     1     1
SMALL
USER_CHARGES


@<TRIPOS>ATOM
      1 S1         -1.1129    1.8398   -0.2461 S.3        1 <1>        0.000
      2 S2          0.5319    1.8110   -1.3604 S.3        1 <1>        0.000
      3 S3          1.2561    0.0027   -0.9387 S.3        1 <1>        0.000
      4 C1          2.0697    0.3493    0.5449 C.2        1 <1>        0.000
      5 S4          1.4490    0.0350    2.0827 S.2        1 <1>        0.000
      6 O1          3.2771    0.9875    0.4282 O.3        1 <1>        0.000
      7 S5         -2.2604    0.6134   -1.3114 S.3        1 <1>        0.000
      8 C3         -1.8846   -0.9372   -0.6408 C.2        1 <1>        0.000
      9 S6         -1.4882   -2.3088   -1.5256 S.2        1 <1>        0.000
     10 O2         -1.8862   -1.0024    0.7372 O.3        1 <1>        0.000
     11 H           3.4933    1.0933   -0.5011 H.spc      1 <1>        0.000
     12 H          -2.1308   -0.1465    1.0966 H.spc      1 <1>        0.000
@<TRIPOS>BOND
     1    1    2 1  
     2    1    7 1  
     3    2    3 1  
     4    3    4 1  
     5    4    5 2  
     6    4    6 1  
     7    7    8 1  
     8    8    9 2  
     9    8   10 1  
    10    6   11 1  
    11   10   12 1  
# Name:          frag3-234-3/31924 -- energy: 0.510867
# Creation time: Sat Jun  5 12:52:30 2010


@<TRIPOS>MOLECULE
frag3-234-3/31924 -- energy: 0.510867
   12    11     1     1     1
SMALL
USER_CHARGES


@<TRIPOS>ATOM
      1 S1         -0.2139    0.5797    0.8093 S.3        1 <1>        0.000
      2 S2          0.2461   -0.8129   -0.5549 S.3        1 <1>        0.000
      3 S3         -1.1237   -0.3614   -1.9319 S.3        1 <1>        0.000
      4 C1         -2.4917   -1.2303   -1.2816 C.2        1 <1>        0.000
      5 S4         -4.0750   -0.6489   -1.3272 S.2        1 <1>        0.000
      6 O1         -2.2196   -2.4393   -0.6905 O.3        1 <1>        0.000
      7 S5          0.9296    2.0633    0.1234 S.3        1 <1>        0.000
      8 C3          2.4922    1.5527    0.7445 C.2        1 <1>        0.000
      9 S6          3.9255    1.6893   -0.1211 S.2        1 <1>        0.000
     10 O2          2.4822    0.9983    2.0001 O.3        1 <1>        0.000
     11 H          -1.2785   -2.6190   -0.7506 H.spc      1 <1>        0.000
     12 H           1.5854    1.0010    2.3427 H.spc      1 <1>        0.000
@<TRIPOS>BOND
     1    1    2 1  
     2    1    7 1  
     3    2    3 1  
     4    3    4 1  
     5    4    5 2  
     6    4    6 1  
     7    7    8 1  
     8    8    9 2  
     9    8   10 1  
    10    6   11 1  
    11   10   12 1  
# Name:          frag3-234-3/31924 -- energy: -2.105105
# Creation time: Sat Jun  5 12:52:30 2010


@<TRIPOS>MOLECULE
frag3-234-3/31924 -- energy: -2.105105
   12    11     1     1     1
SMALL
USER_CHARGES


@<TRIPOS>ATOM
      1 S1         -0.2858    1.9602   -0.6268 S.3        1 <1>        0.000
      2 S2         -1.7006    1.1918    0.5252 S.3        1 <1>        0.000
      3 S3         -1.0939   -0.6973    0.6865 S.3        1 <1>        0.000
      4 C1         -1.7650   -1.3490   -0.7649 C.2        1 <1>        0.000
      5 S4         -0.9078   -1.6092   -2.1943 S.2        1 <1>        0.000
      6 O1         -3.1143   -1.5960   -0.7404 O.3        1 <1>        0.000
      7 S5          1.1841    2.1114    0.7172 S.3        1 <1>        0.000
      8 C3          2.2163    0.8116    0.2634 C.2        1 <1>        0.000
      9 S6          3.3987    0.9773   -0.9354 S.2        1 <1>        0.000
     10 O2          2.0199   -0.4104    0.8396 O.3        1 <1>        0.000
     11 H          -3.4580   -1.4026    0.1348 H.spc      1 <1>        0.000
     12 H           1.3221   -0.3452    1.4956 H.spc      1 <1>        0.000
@<TRIPOS>BOND
     1    1    2 1  
     2    1    7 1  
     3    2    3 1  
     4    3    4 1  
     5    4    5 2  
     6    4    6 1  
     7    7    8 1  
     8    8    9 2  
     9    8   10 1  
    10    6   11 1  
    11   10   12 1  
# Name:          frag3-234-3/31924 -- energy: -1.704606
# Creation time: Sat Jun  5 12:52:30 2010


@<TRIPOS>MOLECULE
frag3-234-3/31924 -- energy: -1.704606
   12    11     1     1     1
SMALL
USER_CHARGES


@<TRIPOS>ATOM
      1 S1          0.7627   -0.8948    0.5907 S.3        1 <1>        0.000
      2 S2         -1.0013   -0.3325    1.3155 S.3        1 <1>        0.000
      3 S3         -2.1932   -1.5705    0.3110 S.3        1 <1>        0.000
      4 C1         -2.4021   -0.6860   -1.1713 C.2        1 <1>        0.000
      5 S4         -1.5511   -1.0251   -2.5957 S.2        1 <1>        0.000
      6 O1         -3.2689    0.3708   -1.1332 O.3        1 <1>        0.000
      7 S5          1.1504    0.5792   -0.6809 S.3        1 <1>        0.000
      8 C3          2.4582    1.3697    0.1303 C.2        1 <1>        0.000
      9 S6          2.5103    3.0217    0.4572 S.2        1 <1>        0.000
     10 O2          3.4866    0.5577    0.5464 O.3        1 <1>        0.000
     11 H          -3.6668    0.4256   -0.2612 H.spc      1 <1>        0.000
     12 H           3.3046   -0.3474    0.2833 H.spc      1 <1>        0.000
@<TRIPOS>BOND
     1    1    2 1  
     2    1    7 1  
     3    2    3 1  
     4    3    4 1  
     5    4    5 2  
     6    4    6 1  
     7    7    8 1  
     8    8    9 2  
     9    8   10 1  
    10    6   11 1  
    11   10   12 1  
# Name:          frag3-234-3/31924 -- energy: 1.988626
# Creation time: Sat Jun  5 12:52:31 2010


@<TRIPOS>MOLECULE
frag3-234-3/31924 -- energy: 1.988626
   12    11     1     1     1
SMALL
USER_CHARGES


@<TRIPOS>ATOM
      1 S1         -0.8815    1.2460   -0.3340 S.3        1 <1>        0.000
      2 S2          0.7432    0.8202   -1.4149 S.3        1 <1>        0.000
      3 S3          1.7600   -0.2921   -0.1297 S.3        1 <1>        0.000
      4 C1          2.5230    0.9651    0.8125 C.2        1 <1>        0.000
      5 S4          2.7493    0.8774    2.4818 S.2        1 <1>        0.000
      6 O1          2.9269    2.0817    0.1229 O.3        1 <1>        0.000
      7 S5         -2.2822    0.5024   -1.5213 S.3        1 <1>        0.000
      8 C3         -2.4609   -1.1089   -0.8865 C.2        1 <1>        0.000
      9 S6         -2.9899   -2.4231   -1.7989 S.2        1 <1>        0.000
     10 O2         -2.1362   -1.2784    0.4382 O.3        1 <1>        0.000
     11 H           2.7268    1.9705   -0.8094 H.spc      1 <1>        0.000
     12 H          -1.8561   -0.4379    0.8079 H.spc      1 <1>        0.000
@<TRIPOS>BOND
     1    1    2 1  
     2    1    7 1  
     3    2    3 1  
     4    3    4 1  
     5    4    5 2  
     6    4    6 1  
     7    7    8 1  
     8    8    9 2  
     9    8   10 1  
    10    6   11 1  
    11   10   12 1  
# Name:          frag3-234-3/31924 -- energy: -0.901277
# Creation time: Sat Jun  5 12:52:31 2010


@<TRIPOS>MOLECULE
frag3-234-3/31924 -- energy: -0.901277
   12    11     1     1     1
SMALL
USER_CHARGES


@<TRIPOS>ATOM
      1 S1         -0.8954    0.4578    0.1382 S.3        1 <1>        0.000
      2 S2          0.8654   -0.2057   -0.5082 S.3        1 <1>        0.000
      3 S3          1.8354    1.5249   -0.6839 S.3        1 <1>        0.000
      4 C1          2.9042    1.4087    0.6841 C.2        1 <1>        0.000
      5 S4          3.0266    2.6021    1.8751 S.2        1 <1>        0.000
      6 O1          3.6469    0.2614    0.7805 O.3        1 <1>        0.000
      7 S5         -1.9708    0.2212   -1.5220 S.3        1 <1>        0.000
      8 C3         -2.9049   -1.1814   -1.0821 C.2        1 <1>        0.000
      9 S6         -2.9760   -2.5860   -2.0196 S.2        1 <1>        0.000
     10 O2         -3.5799   -1.1127    0.1078 O.3        1 <1>        0.000
     11 H           3.4588   -0.3044    0.0281 H.spc      1 <1>        0.000
     12 H          -3.4334   -0.2526    0.5083 H.spc      1 <1>        0.000
@<TRIPOS>BOND
     1    1    2 1  
     2    1    7 1  
     3    2    3 1  
     4    3    4 1  
     5    4    5 2  
     6    4    6 1  
     7    7    8 1  
     8    8    9 2  
     9    8   10 1  
    10    6   11 1  
    11   10   12 1  
# Name:          frag3-234-3/31924 -- energy: -0.404769
# Creation time: Sat Jun  5 12:52:31 2010


@<TRIPOS>MOLECULE
frag3-234-3/31924 -- energy: -0.404769
   12    11     1     1     1
SMALL
USER_CHARGES


@<TRIPOS>ATOM
      1 S1          0.8493   -1.1905    0.4791 S.3        1 <1>        0.000
      2 S2         -0.6768   -0.0841    1.1628 S.3        1 <1>        0.000
      3 S3         -1.3760    0.6660   -0.5357 S.3        1 <1>        0.000
      4 C1         -2.2853   -0.7061   -1.1116 C.2        1 <1>        0.000
      5 S4         -2.2446   -1.2645   -2.7015 S.2        1 <1>        0.000
      6 O1         -3.0480   -1.3620   -0.1759 O.3        1 <1>        0.000
      7 S5          2.3589   -0.0693    1.1057 S.3        1 <1>        0.000
      8 C3          2.1698    1.3499    0.1026 C.2        1 <1>        0.000
      9 S6          2.5236    2.9161    0.6089 S.2        1 <1>        0.000
     10 O2          1.6808    1.1348   -1.1645 O.3        1 <1>        0.000
     11 H          -2.9618   -0.9204    0.6721 H.spc      1 <1>        0.000
     12 H           1.5327    0.1952   -1.2939 H.spc      1 <1>        0.000
@<TRIPOS>BOND
     1    1    2 1  
     2    1    7 1  
     3    2    3 1  
     4    3    4 1  
     5    4    5 2  
     6    4    6 1  
     7    7    8 1  
     8    8    9 2  
     9    8   10 1  
    10    6   11 1  
    11   10   12 1  
# Name:          frag3-234-3/31924 -- energy: -1.248079
# Creation time: Sat Jun  5 12:52:31 2010


@<TRIPOS>MOLECULE
frag3-234-3/31924 -- energy: -1.248079
   12    11     1     1     1
SMALL
USER_CHARGES


@<TRIPOS>ATOM
      1 S1         -1.7435    1.4855   -0.3481 S.3        1 <1>        0.000
      2 S2          0.0354    1.3613   -1.2324 S.3        1 <1>        0.000
      3 S3          1.1739    2.1651    0.1889 S.3        1 <1>        0.000
      4 C1          2.3278    0.9127    0.4756 C.2        1 <1>        0.000
      5 S4          3.9869    1.2003    0.5774 S.2        1 <1>        0.000
      6 O1          1.8502   -0.3708    0.5619 O.3        1 <1>        0.000
      7 S5         -1.7472   -0.2301    0.6598 S.3        1 <1>        0.000
      8 C3         -1.9606   -1.3527   -0.6629 C.2        1 <1>        0.000
      9 S6         -1.0902   -2.7865   -0.8323 S.2        1 <1>        0.000
     10 O2         -2.8811   -0.9945   -1.6181 O.3        1 <1>        0.000
     11 H           0.8932   -0.3607    0.4862 H.spc      1 <1>        0.000
     12 H          -3.2856   -0.1589   -1.3736 H.spc      1 <1>        0.000
@<TRIPOS>BOND
     1    1    2 1  
     2    1    7 1  
     3    2    3 1  
     4    3    4 1  
     5    4    5 2  
     6    4    6 1  
     7    7    8 1  
     8    8    9 2  
     9    8   10 1  
    10    6   11 1  
    11   10   12 1  
# Name:          frag3-234-3/31924 -- energy: -1.246571
# Creation time: Sat Jun  5 12:52:31 2010


@<TRIPOS>MOLECULE
frag3-234-3/31924 -- energy: -1.246571
   12    11     1     1     1
SMALL
USER_CHARGES


@<TRIPOS>ATOM
      1 S1          0.3642   -0.3331    1.2964 S.3        1 <1>        0.000
      2 S2         -1.5357    0.2458    1.2514 S.3        1 <1>        0.000
      3 S3         -1.7476    0.5990   -0.6988 S.3        1 <1>        0.000
      4 C1         -2.1315   -1.0081   -1.2517 C.2        1 <1>        0.000
      5 S4         -1.4360   -1.7264   -2.6103 S.2        1 <1>        0.000
      6 O1         -3.0383   -1.7089   -0.4948 O.3        1 <1>        0.000
      7 S5          1.2488    1.4560    1.3186 S.3        1 <1>        0.000
      8 C3          2.3591    1.3239   -0.0002 C.2        1 <1>        0.000
      9 S6          3.9933    1.7258    0.1372 S.2        1 <1>        0.000
     10 O2          1.8753    0.8163   -1.1778 O.3        1 <1>        0.000
     11 H          -3.3355   -1.1608    0.2352 H.spc      1 <1>        0.000
     12 H           0.9354    0.6428   -1.0880 H.spc      1 <1>        0.000
@<TRIPOS>BOND
     1    1    2 1  
     2    1    7 1  
     3    2    3 1  
     4    3    4 1  
     5    4    5 2  
     6    4    6 1  
     7    7    8 1  
     8    8    9 2  
     9    8   10 1  
    10    6   11 1  
    11   10   12 1  
# Name:          frag3-234-3/31924 -- energy: -2.337942
# Creation time: Sat Jun  5 12:52:31 2010


@<TRIPOS>MOLECULE
frag3-234-3/31924 -- energy: -2.337942
   12    11     1     1     1
SMALL
USER_CHARGES


@<TRIPOS>ATOM
      1 S1         -0.8151    1.3171   -1.6318 S.3        1 <1>        0.000
      2 S2         -0.2273    1.9420    0.1536 S.3        1 <1>        0.000
      3 S3          0.6217    0.2979    0.8739 S.3        1 <1>        0.000
      4 C1          2.2789    0.6359    0.5647 C.2        1 <1>        0.000
      5 S4          3.4046    0.8929    1.7890 S.2        1 <1>        0.000
      6 O1          2.6667    0.7817   -0.7458 O.3        1 <1>        0.000
      7 S5         -2.5376    0.4487   -1.1094 S.3        1 <1>        0.000
      8 C3         -2.0047   -1.1538   -0.7393 C.2        1 <1>        0.000
      9 S6         -1.5519   -2.2507   -1.9519 S.2        1 <1>        0.000
     10 O2         -1.8837   -1.5211    0.5672 O.3        1 <1>        0.000
     11 H           1.9193    0.6032   -1.3213 H.spc      1 <1>        0.000
     12 H          -2.1770   -0.8004    1.1295 H.spc      1 <1>        0.000
@<TRIPOS>BOND
     1    1    2 1  
     2    1    7 1  
     3    2    3 1  
     4    3    4 1  
     5    4    5 2  
     6    4    6 1  
     7    7    8 1  
     8    8    9 2  
     9    8   10 1  
    10    6   11 1  
    11   10   12 1  
# Name:          frag3-234-3/31924 -- energy: -1.616624
# Creation time: Sat Jun  5 12:52:31 2010


@<TRIPOS>MOLECULE
frag3-234-3/31924 -- energy: -1.616624
   12    11     1     1     1
SMALL
USER_CHARGES


@<TRIPOS>ATOM
      1 S1          0.0426    0.8162    0.6813 S.3        1 <1>        0.000
      2 S2         -0.0998   -0.8723   -0.3558 S.3        1 <1>        0.000
      3 S3         -1.4112   -0.2796   -1.7425 S.3        1 <1>        0.000
      4 C1         -2.8191   -1.1315   -1.1990 C.2        1 <1>        0.000
      5 S4         -3.4017   -2.5059   -1.9997 S.2        1 <1>        0.000
      6 O1         -3.4269   -0.7012   -0.0535 O.3        1 <1>        0.000
      7 S5          1.4446    1.7324   -0.4161 S.3        1 <1>        0.000
      8 C3          2.8268    1.4627    0.5990 C.2        1 <1>        0.000
      9 S6          3.2809    2.5737    1.7997 S.2        1 <1>        0.000
     10 O2          3.5154    0.2959    0.4566 O.3        1 <1>        0.000
     11 H          -2.9776    0.0828    0.2707 H.spc      1 <1>        0.000
     12 H           3.1334   -0.2143   -0.2613 H.spc      1 <1>        0.000
@<TRIPOS>BOND
     1    1    2 1  
     2    1    7 1  
     3    2    3 1  
     4    3    4 1  
     5    4    5 2  
     6    4    6 1  
     7    7    8 1  
     8    8    9 2  
     9    8   10 1  
    10    6   11 1  
    11   10   12 1  
# Name:          frag3-234-3/31924 -- energy: -0.046072
# Creation time: Sat Jun  5 12:52:31 2010


@<TRIPOS>MOLECULE
frag3-234-3/31924 -- energy: -0.046072
   12    11     1     1     1
SMALL
USER_CHARGES


@<TRIPOS>ATOM
      1 S1          0.6761    1.1112   -1.9436 S.3        1 <1>        0.000
      2 S2         -1.2644    1.5468   -1.8200 S.3        1 <1>        0.000
      3 S3         -2.0525   -0.2642   -1.8180 S.3        1 <1>        0.000
      4 C1         -1.5668   -0.8420   -0.2459 C.2        1 <1>        0.000
      5 S4         -1.1345   -2.4351    0.0846 S.2        1 <1>        0.000
      6 O1         -1.5252    0.0978    0.7583 O.3        1 <1>        0.000
      7 S5          1.3653    1.8930   -0.2636 S.3        1 <1>        0.000
      8 C3          1.7250    0.4894    0.6817 C.2        1 <1>        0.000
      9 S6          1.6463    0.4302    2.3611 S.2        1 <1>        0.000
     10 O2          2.0823   -0.6367   -0.0247 O.3        1 <1>        0.000
     11 H          -1.7988    0.9494    0.4096 H.spc      1 <1>        0.000
     12 H           2.0797   -0.4381   -0.9639 H.spc      1 <1>        0.000
@<TRIPOS>BOND
     1    1    2 1  
     2    1    7 1  
     3    2    3 1  
     4    3    4 1  
     5    4    5 2  
     6    4    6 1  
     7    7    8 1  
     8    8    9 2  
     9    8   10 1  
    10    6   11 1  
    11   10   12 1  
# Name:          frag3-234-3/31924 -- energy: -1.865986
# Creation time: Sat Jun  5 12:52:31 2010


@<TRIPOS>MOLECULE
frag3-234-3/31924 -- energy: -1.865986
   12    11     1     1     1
SMALL
USER_CHARGES


@<TRIPOS>ATOM
      1 S1         -1.0235    0.4043    0.7124 S.3        1 <1>        0.000
      2 S2          0.5680   -0.5879    1.3772 S.3        1 <1>        0.000
      3 S3          1.7426    0.9382    1.8733 S.3        1 <1>        0.000
      4 C1          2.4770    1.2897    0.3359 C.2        1 <1>        0.000
      5 S4          1.9818    2.5588   -0.6706 S.2        1 <1>        0.000
      6 O1          3.4692    0.4435   -0.0738 O.3        1 <1>        0.000
      7 S5         -0.9239    0.0115   -1.2296 S.3        1 <1>        0.000
      8 C3         -2.3298   -0.9815   -1.4258 C.2        1 <1>        0.000
      9 S6         -3.5419   -0.6337   -2.5483 S.2        1 <1>        0.000
     10 O2         -2.4678   -2.0526   -0.5806 O.3        1 <1>        0.000
     11 H           3.6285   -0.2144    0.6069 H.spc      1 <1>        0.000
     12 H          -1.6976   -2.1102   -0.0105 H.spc      1 <1>        0.000
@<TRIPOS>BOND
     1    1    2 1  
     2    1    7 1  
     3    2    3 1  
     4    3    4 1  
     5    4    5 2  
     6    4    6 1  
     7    7    8 1  
     8    8    9 2  
     9    8   10 1  
    10    6   11 1  
    11   10   12 1  
# Name:          frag3-234-3/31924 -- energy: 2.635307
# Creation time: Sat Jun  5 12:52:31 2010


@<TRIPOS>MOLECULE
frag3-234-3/31924 -- energy: 2.635307
   12    11     1     1     1
SMALL
USER_CHARGES


@<TRIPOS>ATOM
      1 S1         -0.2484    2.3612    0.3542 S.3        1 <1>        0.000
      2 S2         -1.6849    1.6195   -0.7772 S.3        1 <1>        0.000
      3 S3         -2.2263    0.0122    0.2635 S.3        1 <1>        0.000
      4 C1         -1.4772   -1.2383   -0.6542 C.2        1 <1>        0.000
      5 S4         -1.9529   -1.5772   -2.2525 S.2        1 <1>        0.000
      6 O1         -0.4455   -1.9309   -0.1050 O.3        1 <1>        0.000
      7 S5          1.3709    1.8318   -0.6384 S.3        1 <1>        0.000
      8 C3          1.9897    0.5102    0.2794 C.2        1 <1>        0.000
      9 S6          3.2120   -0.5194   -0.2221 S.2        1 <1>        0.000
     10 O2          1.4142    0.3212    1.5223 O.3        1 <1>        0.000
     11 H          -0.2999   -1.6267    0.7938 H.spc      1 <1>        0.000
     12 H           0.7352    0.9850    1.6636 H.spc      1 <1>        0.000
@<TRIPOS>BOND
     1    1    2 1  
     2    1    7 1  
     3    2    3 1  
     4    3    4 1  
     5    4    5 2  
     6    4    6 1  
     7    7    8 1  
     8    8    9 2  
     9    8   10 1  
    10    6   11 1  
    11   10   12 1  
# Name:          frag3-234-3/31924 -- energy: -2.498211
# Creation time: Sat Jun  5 12:52:31 2010


@<TRIPOS>MOLECULE
frag3-234-3/31924 -- energy: -2.498211
   12    11     1     1     1
SMALL
USER_CHARGES


@<TRIPOS>ATOM
      1 S1         -1.3480    1.2809    0.2696 S.3        1 <1>        0.000
      2 S2         -0.0724    1.8793   -1.1220 S.3        1 <1>        0.000
      3 S3          1.4597    2.3970    0.0371 S.3        1 <1>        0.000
      4 C1          2.1556    0.8592    0.3846 C.2        1 <1>        0.000
      5 S4          2.9232   -0.0761   -0.8013 S.2        1 <1>        0.000
      6 O1          2.0149    0.3366    1.6375 O.3        1 <1>        0.000
      7 S5         -0.8489   -0.6200    0.5397 S.3        1 <1>        0.000
      8 C3         -1.8300   -1.3641   -0.6548 C.2        1 <1>        0.000
      9 S6         -1.4258   -1.5516   -2.2805 S.2        1 <1>        0.000
     10 O2         -3.0767   -1.7509   -0.2399 O.3        1 <1>        0.000
     11 H           1.5658    0.9722    2.1995 H.spc      1 <1>        0.000
     12 H          -3.1646   -1.5867    0.7019 H.spc      1 <1>        0.000
@<TRIPOS>BOND
     1    1    2 1  
     2    1    7 1  
     3    2    3 1  
     4    3    4 1  
     5    4    5 2  
     6    4    6 1  
     7    7    8 1  
     8    8    9 2  
     9    8   10 1  
    10    6   11 1  
    11   10   12 1  
# Name:          frag3-234-3/31924 -- energy: -1.412253
# Creation time: Sat Jun  5 12:52:31 2010


@<TRIPOS>MOLECULE
frag3-234-3/31924 -- energy: -1.412253
   12    11     1     1     1
SMALL
USER_CHARGES


@<TRIPOS>ATOM
      1 S1          0.6698    0.6398   -1.2859 S.3        1 <1>        0.000
      2 S2         -0.9166    1.3151   -0.2780 S.3        1 <1>        0.000
      3 S3         -2.3744    0.6459   -1.4304 S.3        1 <1>        0.000
      4 C1         -2.4847   -1.0111   -0.9101 C.2        1 <1>        0.000
      5 S4         -2.5955   -2.3259   -1.9579 S.2        1 <1>        0.000
      6 O1         -2.4508   -1.2213    0.4485 O.3        1 <1>        0.000
      7 S5          1.6041   -0.4100    0.1152 S.3        1 <1>        0.000
      8 C3          2.5964    0.8490    0.7951 C.2        1 <1>        0.000
      9 S6          2.0754    1.8823    2.0359 S.2        1 <1>        0.000
     10 O2          3.8279    1.0266    0.2376 O.3        1 <1>        0.000
     11 H          -2.3871   -0.3767    0.9004 H.spc      1 <1>        0.000
     12 H           3.9679    0.3650   -0.4438 H.spc      1 <1>        0.000
@<TRIPOS>BOND
     1    1    2 1  
     2    1    7 1  
     3    2    3 1  
     4    3    4 1  
     5    4    5 2  
     6    4    6 1  
     7    7    8 1  
     8    8    9 2  
     9    8   10 1  
    10    6   11 1  
    11   10   12 1  
# Name:          frag3-234-3/31924 -- energy: -2.246948
# Creation time: Sat Jun  5 12:52:31 2010


@<TRIPOS>MOLECULE
frag3-234-3/31924 -- energy: -2.246948
   12    11     1     1     1
SMALL
USER_CHARGES


@<TRIPOS>ATOM
      1 S1         -0.9033   -0.6208    1.4047 S.3        1 <1>        0.000
      2 S2          0.8745   -1.2454    0.7968 S.3        1 <1>        0.000
      3 S3          2.0131    0.2684    1.3978 S.3        1 <1>        0.000
      4 C1          2.1411    1.2248   -0.0284 C.2        1 <1>        0.000
      5 S4          1.3903    2.7108   -0.2762 S.2        1 <1>        0.000
      6 O1          2.8757    0.6699   -1.0510 O.3        1 <1>        0.000
      7 S5         -1.3963    0.6647   -0.0326 S.3        1 <1>        0.000
      8 C3         -2.1654   -0.4034   -1.1416 C.2        1 <1>        0.000
      9 S6         -1.3670   -1.2992   -2.3320 S.2        1 <1>        0.000
     10 O2         -3.5110   -0.5795   -0.9676 O.3        1 <1>        0.000
     11 H           3.2398   -0.1703   -0.7626 H.spc      1 <1>        0.000
     12 H          -3.8189   -0.0067   -0.2614 H.spc      1 <1>        0.000
@<TRIPOS>BOND
     1    1    2 1  
     2    1    7 1  
     3    2    3 1  
     4    3    4 1  
     5    4    5 2  
     6    4    6 1  
     7    7    8 1  
     8    8    9 2  
     9    8   10 1  
    10    6   11 1  
    11   10   12 1  
# Name:          frag3-234-3/31924 -- energy: -1.661495
# Creation time: Sat Jun  5 12:52:31 2010


@<TRIPOS>MOLECULE
frag3-234-3/31924 -- energy: -1.661495
   12    11     1     1     1
SMALL
USER_CHARGES


@<TRIPOS>ATOM
      1 S1         -1.3841   -0.8665    1.6703 S.3        1 <1>        0.000
      2 S2          0.4699   -0.2003    1.8794 S.3        1 <1>        0.000
      3 S3          0.4271    1.4131    0.7122 S.3        1 <1>        0.000
      4 C1          1.8097    1.1753   -0.2912 C.2        1 <1>        0.000
      5 S4          2.8548    2.4213   -0.7304 S.2        1 <1>        0.000
      6 O1          2.0742   -0.1119   -0.6920 O.3        1 <1>        0.000
      7 S5         -1.2252   -1.8244   -0.0683 S.3        1 <1>        0.000
      8 C3         -1.6177   -0.5669   -1.2043 C.2        1 <1>        0.000
      9 S6         -0.8309   -0.3395   -2.6762 S.2        1 <1>        0.000
     10 O2         -2.6263    0.2902   -0.8295 O.3        1 <1>        0.000
     11 H           1.3880   -0.6962   -0.3614 H.spc      1 <1>        0.000
     12 H          -2.9677    0.0254    0.0278 H.spc      1 <1>        0.000
@<TRIPOS>BOND
     1    1    2 1  
     2    1    7 1  
     3    2    3 1  
     4    3    4 1  
     5    4    5 2  
     6    4    6 1  
     7    7    8 1  
     8    8    9 2  
     9    8   10 1  
    10    6   11 1  
    11   10   12 1  
# Name:          frag3-234-3/31924 -- energy: 0.082715
# Creation time: Sat Jun  5 12:52:31 2010


@<TRIPOS>MOLECULE
frag3-234-3/31924 -- energy: 0.082715
   12    11     1     1     1
SMALL
USER_CHARGES


@<TRIPOS>ATOM
      1 S1          0.0094    2.3936   -0.0492 S.3        1 <1>        0.000
      2 S2         -1.0786    0.9493    0.7813 S.3        1 <1>        0.000
      3 S3         -2.2855    0.5049   -0.7397 S.3        1 <1>        0.000
      4 C1         -1.9867   -1.1815   -0.9580 C.2        1 <1>        0.000
      5 S4         -1.7638   -1.9158   -2.4572 S.2        1 <1>        0.000
      6 O1         -1.9088   -1.9337    0.1906 O.3        1 <1>        0.000
      7 S5          1.3393    1.2890   -1.0358 S.3        1 <1>        0.000
      8 C3          2.2676    0.6618    0.3058 C.2        1 <1>        0.000
      9 S6          2.9448   -0.8790    0.3465 S.2        1 <1>        0.000
     10 O2          2.4139    1.5017    1.3857 O.3        1 <1>        0.000
     11 H          -2.0583   -1.3689    0.9524 H.spc      1 <1>        0.000
     12 H           1.9729    2.3348    1.2038 H.spc      1 <1>        0.000
@<TRIPOS>BOND
     1    1    2 1  
     2    1    7 1  
     3    2    3 1  
     4    3    4 1  
     5    4    5 2  
     6    4    6 1  
     7    7    8 1  
     8    8    9 2  
     9    8   10 1  
    10    6   11 1  
    11   10   12 1  
# Name:          frag3-234-3/31924 -- energy: 0.841338
# Creation time: Sat Jun  5 12:52:31 2010


@<TRIPOS>MOLECULE
frag3-234-3/31924 -- energy: 0.841338
   12    11     1     1     1
SMALL
USER_CHARGES


@<TRIPOS>ATOM
      1 S1         -0.8677    0.1191    1.1073 S.3        1 <1>        0.000
      2 S2          0.7462   -1.0481    0.9310 S.3        1 <1>        0.000
      3 S3          1.6917   -0.1452   -0.5558 S.3        1 <1>        0.000
      4 C1          2.2537    1.2840    0.2703 C.2        1 <1>        0.000
      5 S4          2.3615    2.8068   -0.4372 S.2        1 <1>        0.000
      6 O1          2.6042    1.1201    1.5918 O.3        1 <1>        0.000
      7 S5         -2.2338   -1.1028    0.3534 S.3        1 <1>        0.000
      8 C3         -2.1618   -0.7048   -1.3361 C.2        1 <1>        0.000
      9 S6         -3.4910   -0.1116   -2.1895 S.2        1 <1>        0.000
     10 O2         -0.9515   -0.8271   -1.9654 O.3        1 <1>        0.000
     11 H           2.4873    0.2004    1.8410 H.spc      1 <1>        0.000
     12 H          -0.3047   -1.1759   -1.3477 H.spc      1 <1>        0.000
@<TRIPOS>BOND
     1    1    2 1  
     2    1    7 1  
     3    2    3 1  
     4    3    4 1  
     5    4    5 2  
     6    4    6 1  
     7    7    8 1  
     8    8    9 2  
     9    8   10 1  
    10    6   11 1  
    11   10   12 1  
# Name:          frag3-234-3/31924 -- energy: -1.468220
# Creation time: Sat Jun  5 12:52:31 2010


@<TRIPOS>MOLECULE
frag3-234-3/31924 -- energy: -1.468220
   12    11     1     1     1
SMALL
USER_CHARGES


@<TRIPOS>ATOM
      1 S1         -1.4056    0.3391    1.2775 S.3        1 <1>        0.000
      2 S2          0.4251   -0.4181    1.1994 S.3        1 <1>        0.000
      3 S3          1.1019    0.3324   -0.5255 S.3        1 <1>        0.000
      4 C1          2.5075    1.1482    0.0457 C.2        1 <1>        0.000
      5 S4          2.4402    2.5508    1.0039 S.2        1 <1>        0.000
      6 O1          3.7123    0.5855   -0.2418 O.3        1 <1>        0.000
      7 S5         -2.4068   -1.1358    0.3970 S.3        1 <1>        0.000
      8 C3         -2.2169   -0.7418   -1.2859 C.2        1 <1>        0.000
      9 S6         -1.8491   -1.8592   -2.4894 S.2        1 <1>        0.000
     10 O2         -2.3570    0.5892   -1.6109 O.3        1 <1>        0.000
     11 H           3.5786   -0.1928   -0.7876 H.spc      1 <1>        0.000
     12 H          -2.5647    1.0906   -0.8191 H.spc      1 <1>        0.000
@<TRIPOS>BOND
     1    1    2 1  
     2    1    7 1  
     3    2    3 1  
     4    3    4 1  
     5    4    5 2  
     6    4    6 1  
     7    7    8 1  
     8    8    9 2  
     9    8   10 1  
    10    6   11 1  
    11   10   12 1  
# Name:          frag3-234-3/31924 -- energy: -1.979868
# Creation time: Sat Jun  5 12:52:31 2010


@<TRIPOS>MOLECULE
frag3-234-3/31924 -- energy: -1.979868
   12    11     1     1     1
SMALL
USER_CHARGES


@<TRIPOS>ATOM
      1 S1         -0.8115    1.0279   -0.0309 S.3        1 <1>        0.000
      2 S2          0.5900    0.0241   -1.0416 S.3        1 <1>        0.000
      3 S3          1.8415   -0.4097    0.4423 S.3        1 <1>        0.000
      4 C1          2.6549    1.1156    0.5735 C.2        1 <1>        0.000
      5 S4          2.1877    2.3629    1.6157 S.2        1 <1>        0.000
      6 O1          3.6990    1.3209   -0.2878 O.3        1 <1>        0.000
      7 S5         -1.9119   -0.4986    0.6082 S.3        1 <1>        0.000
      8 C3         -2.6075   -1.0055   -0.9036 C.2        1 <1>        0.000
      9 S6         -2.1163   -2.3626   -1.7792 S.2        1 <1>        0.000
     10 O2         -3.5743   -0.1846   -1.4266 O.3        1 <1>        0.000
     11 H           3.8428    0.5278   -0.8093 H.spc      1 <1>        0.000
     12 H          -3.7438    0.5372   -0.8168 H.spc      1 <1>        0.000
@<TRIPOS>BOND
     1    1    2 1  
     2    1    7 1  
     3    2    3 1  
     4    3    4 1  
     5    4    5 2  
     6    4    6 1  
     7    7    8 1  
     8    8    9 2  
     9    8   10 1  
    10    6   11 1  
    11   10   12 1  
# Name:          frag3-234-3/31924 -- energy: -2.820579
# Creation time: Sat Jun  5 12:52:31 2010


@<TRIPOS>MOLECULE
frag3-234-3/31924 -- energy: -2.820579
   12    11     1     1     1
SMALL
USER_CHARGES


@<TRIPOS>ATOM
      1 S1         -1.1214    0.7448    1.1864 S.3        1 <1>        0.000
      2 S2          0.3289   -0.4887    1.7426 S.3        1 <1>        0.000
      3 S3          1.3572   -0.7083    0.0662 S.3        1 <1>        0.000
      4 C1          2.0666    0.8613   -0.0590 C.2        1 <1>        0.000
      5 S4          1.5970    2.0774   -1.1191 S.2        1 <1>        0.000
      6 O1          3.0537    1.1359    0.8579 O.3        1 <1>        0.000
      7 S5         -2.3794   -0.5605    0.3643 S.3        1 <1>        0.000
      8 C3         -1.8189   -0.6233   -1.2598 C.2        1 <1>        0.000
      9 S6         -1.9862    0.6820   -2.3245 S.2        1 <1>        0.000
     10 O2         -1.1457   -1.7302   -1.6849 O.3        1 <1>        0.000
     11 H           3.2179    0.3559    1.3929 H.spc      1 <1>        0.000
     12 H          -1.1301   -2.3836   -0.9817 H.spc      1 <1>        0.000
@<TRIPOS>BOND
     1    1    2 1  
     2    1    7 1  
     3    2    3 1  
     4    3    4 1  
     5    4    5 2  
     6    4    6 1  
     7    7    8 1  
     8    8    9 2  
     9    8   10 1  
    10    6   11 1  
    11   10   12 1  
# Name:          frag3-234-3/31924 -- energy: -1.125760
# Creation time: Sat Jun  5 12:52:31 2010


@<TRIPOS>MOLECULE
frag3-234-3/31924 -- energy: -1.125760
   12    11     1     1     1
SMALL
USER_CHARGES


@<TRIPOS>ATOM
      1 S1          0.1161    1.6130    1.7570 S.3        1 <1>        0.000
      2 S2         -1.3642    0.3373    1.4621 S.3        1 <1>        0.000
      3 S3         -1.8536    0.6928   -0.4211 S.3        1 <1>        0.000
      4 C1         -1.6269   -0.8349   -1.1766 C.2        1 <1>        0.000
      5 S4         -1.1646   -1.0551   -2.7755 S.2        1 <1>        0.000
      6 O1         -1.8455   -1.9369   -0.3748 O.3        1 <1>        0.000
      7 S5          1.6881    0.4216    1.4807 S.3        1 <1>        0.000
      8 C3          1.9199    0.5834   -0.2288 C.2        1 <1>        0.000
      9 S6          2.5661    1.9981   -0.9121 S.2        1 <1>        0.000
     10 O2          1.5162   -0.4290   -1.0409 O.3        1 <1>        0.000
     11 H          -2.1014   -1.6464    0.5037 H.spc      1 <1>        0.000
     12 H           1.1780   -1.1511   -0.5063 H.spc      1 <1>        0.000
@<TRIPOS>BOND
     1    1    2 1  
     2    1    7 1  
     3    2    3 1  
     4    3    4 1  
     5    4    5 2  
     6    4    6 1  
     7    7    8 1  
     8    8    9 2  
     9    8   10 1  
    10    6   11 1  
    11   10   12 1  
# Name:          frag3-234-3/31924 -- energy: -0.632812
# Creation time: Sat Jun  5 12:52:31 2010


@<TRIPOS>MOLECULE
frag3-234-3/31924 -- energy: -0.632812
   12    11     1     1     1
SMALL
USER_CHARGES


@<TRIPOS>ATOM
      1 S1          0.7828   -0.3725   -0.1992 S.3        1 <1>        0.000
      2 S2         -0.9051    0.6178    0.1412 S.3        1 <1>        0.000
      3 S3         -1.8497    0.2713   -1.5710 S.3        1 <1>        0.000
      4 C1         -2.8415   -1.0770   -1.1112 C.2        1 <1>        0.000
      5 S4         -3.1002   -2.4354   -2.0711 S.2        1 <1>        0.000
      6 O1         -3.4196   -1.0024    0.1364 O.3        1 <1>        0.000
      7 S5          1.9469    1.1339   -0.8171 S.3        1 <1>        0.000
      8 C3          2.8954    1.3545    0.6169 C.2        1 <1>        0.000
      9 S6          2.2244    1.8425    2.1046 S.2        1 <1>        0.000
     10 O2          4.2183    1.0578    0.5404 O.3        1 <1>        0.000
     11 H          -3.1762   -0.1717    0.5515 H.spc      1 <1>        0.000
     12 H           4.4363    0.8023   -0.3589 H.spc      1 <1>        0.000
@<TRIPOS>BOND
     1    1    2 1  
     2    1    7 1  
     3    2    3 1  
     4    3    4 1  
     5    4    5 2  
     6    4    6 1  
     7    7    8 1  
     8    8    9 2  
     9    8   10 1  
    10    6   11 1  
    11   10   12 1  
# Name:          frag3-234-3/31924 -- energy: 2.347111
# Creation time: Sat Jun  5 12:52:31 2010


@<TRIPOS>MOLECULE
frag3-234-3/31924 -- energy: 2.347111
   12    11     1     1     1
SMALL
USER_CHARGES


@<TRIPOS>ATOM
      1 S1         -0.6720    0.4535    0.4463 S.3        1 <1>        0.000
      2 S2          0.7955   -0.8660    0.1096 S.3        1 <1>        0.000
      3 S3          2.1074    0.3422   -0.7810 S.3        1 <1>        0.000
      4 C1          2.5528    1.3259    0.5881 C.2        1 <1>        0.000
      5 S4          2.0562    2.9281    0.8034 S.2        1 <1>        0.000
      6 O1          3.3055    0.7155    1.5550 O.3        1 <1>        0.000
      7 S5         -1.5044    0.4494   -1.3595 S.3        1 <1>        0.000
      8 C3         -2.5398   -0.9407   -1.2237 C.2        1 <1>        0.000
      9 S6         -4.0788   -1.0202   -1.8945 S.2        1 <1>        0.000
     10 O2         -2.0708   -1.9972   -0.4737 O.3        1 <1>        0.000
     11 H           3.5038   -0.1839    1.2843 H.spc      1 <1>        0.000
     12 H          -1.1840   -1.7994   -0.1639 H.spc      1 <1>        0.000
@<TRIPOS>BOND
     1    1    2 1  
     2    1    7 1  
     3    2    3 1  
     4    3    4 1  
     5    4    5 2  
     6    4    6 1  
     7    7    8 1  
     8    8    9 2  
     9    8   10 1  
    10    6   11 1  
    11   10   12 1  
# Name:          frag3-234-3/31924 -- energy: -1.144266
# Creation time: Sat Jun  5 12:52:31 2010


@<TRIPOS>MOLECULE
frag3-234-3/31924 -- energy: -1.144266
   12    11     1     1     1
SMALL
USER_CHARGES


@<TRIPOS>ATOM
      1 S1         -1.0734   -0.0283    0.9644 S.3        1 <1>        0.000
      2 S2          0.7813   -0.7397    0.9729 S.3        1 <1>        0.000
      3 S3          1.5931    0.3045   -0.5110 S.3        1 <1>        0.000
      4 C1          2.5840    1.4053    0.3991 C.2        1 <1>        0.000
      5 S4          2.5234    3.0832    0.2229 S.2        1 <1>        0.000
      6 O1          3.4253    0.8408    1.3232 O.3        1 <1>        0.000
      7 S5         -1.9998   -1.5477    0.0725 S.3        1 <1>        0.000
      8 C3         -2.4349   -0.8442   -1.4623 C.2        1 <1>        0.000
      9 S6         -4.0038   -0.8937   -2.0670 S.2        1 <1>        0.000
     10 O2         -1.4436   -0.1898   -2.1447 O.3        1 <1>        0.000
     11 H           3.3365   -0.1146    1.2936 H.spc      1 <1>        0.000
     12 H          -0.6195   -0.2629   -1.6578 H.spc      1 <1>        0.000
@<TRIPOS>BOND
     1    1    2 1  
     2    1    7 1  
     3    2    3 1  
     4    3    4 1  
     5    4    5 2  
     6    4    6 1  
     7    7    8 1  
     8    8    9 2  
     9    8   10 1  
    10    6   11 1  
    11   10   12 1  
# Name:          frag3-234-3/31924 -- energy: -2.303068
# Creation time: Sat Jun  5 12:52:31 2010


@<TRIPOS>MOLECULE
frag3-234-3/31924 -- energy: -2.303068
   12    11     1     1     1
SMALL
USER_CHARGES


@<TRIPOS>ATOM
      1 S1         -1.3804    1.3842    0.4410 S.3        1 <1>        0.000
      2 S2         -0.0501    0.5099    1.6074 S.3        1 <1>        0.000
      3 S3          1.1199   -0.4495    0.3139 S.3        1 <1>        0.000
      4 C1          2.3617    0.7118    0.1293 C.2        1 <1>        0.000
      5 S4          2.1746    2.2207   -0.6147 S.2        1 <1>        0.000
      6 O1          3.5581    0.4162    0.7131 O.3        1 <1>        0.000
      7 S5         -2.6279   -0.1422    0.1657 S.3        1 <1>        0.000
      8 C3         -1.9407   -0.9220   -1.2038 C.2        1 <1>        0.000
      9 S6         -2.0486   -0.2751   -2.7630 S.2        1 <1>        0.000
     10 O2         -1.2150   -2.0637   -1.0190 O.3        1 <1>        0.000
     11 H           3.5191   -0.4651    1.0917 H.spc      1 <1>        0.000
     12 H          -1.2420   -2.3122   -0.0921 H.spc      1 <1>        0.000
@<TRIPOS>BOND
     1    1    2 1  
     2    1    7 1  
     3    2    3 1  
     4    3    4 1  
     5    4    5 2  
     6    4    6 1  
     7    7    8 1  
     8    8    9 2  
     9    8   10 1  
    10    6   11 1  
    11   10   12 1  
# Name:          frag3-234-3/31924 -- energy: -1.518805
# Creation time: Sat Jun  5 12:52:31 2010


@<TRIPOS>MOLECULE
frag3-234-3/31924 -- energy: -1.518805
   12    11     1     1     1
SMALL
USER_CHARGES


@<TRIPOS>ATOM
      1 S1         -0.8165    0.4367    0.3677 S.3        1 <1>        0.000
      2 S2          0.6175    0.4561   -1.0228 S.3        1 <1>        0.000
      3 S3          1.5972    2.0939   -0.4574 S.3        1 <1>        0.000
      4 C1          2.6590    1.3688    0.7206 C.2        1 <1>        0.000
      5 S4          4.0338    0.4835    0.2481 S.2        1 <1>        0.000
      6 O1          2.3398    1.4744    2.0374 O.3        1 <1>        0.000
      7 S5         -2.4233    0.4357   -0.7934 S.3        1 <1>        0.000
      8 C3         -2.6431   -1.2828   -0.9944 C.2        1 <1>        0.000
      9 S6         -2.5539   -2.0716   -2.4862 S.2        1 <1>        0.000
     10 O2         -2.8591   -2.0043    0.1503 O.3        1 <1>        0.000
     11 H           1.5434    2.0022    2.1311 H.spc      1 <1>        0.000
     12 H          -2.8821   -1.4088    0.9030 H.spc      1 <1>        0.000
@<TRIPOS>BOND
     1    1    2 1  
     2    1    7 1  
     3    2    3 1  
     4    3    4 1  
     5    4    5 2  
     6    4    6 1  
     7    7    8 1  
     8    8    9 2  
     9    8   10 1  
    10    6   11 1  
    11   10   12 1  
# Name:          frag3-234-3/31924 -- energy: -1.676530
# Creation time: Sat Jun  5 12:52:31 2010


@<TRIPOS>MOLECULE
frag3-234-3/31924 -- energy: -1.676530
   12    11     1     1     1
SMALL
USER_CHARGES


@<TRIPOS>ATOM
      1 S1         -1.4870    0.3642    0.8529 S.3        1 <1>        0.000
      2 S2          0.3077   -0.1470    1.5090 S.3        1 <1>        0.000
      3 S3          1.2278    1.6245    1.4232 S.3        1 <1>        0.000
      4 C1          2.5578    1.2711    0.3803 C.2        1 <1>        0.000
      5 S4          2.6908    1.8506   -1.2016 S.2        1 <1>        0.000
      6 O1          3.5142    0.4267    0.8804 O.3        1 <1>        0.000
      7 S5         -1.1839    0.2697   -1.1173 S.3        1 <1>        0.000
      8 C3         -2.1976   -1.0738   -1.5207 C.2        1 <1>        0.000
      9 S6         -3.6674   -0.8805   -2.3377 S.2        1 <1>        0.000
     10 O2         -1.8109   -2.3152   -1.0984 O.3        1 <1>        0.000
     11 H           3.2917    0.1926    1.7844 H.spc      1 <1>        0.000
     12 H          -0.9610   -2.2513   -0.6566 H.spc      1 <1>        0.000
@<TRIPOS>BOND
     1    1    2 1  
     2    1    7 1  
     3    2    3 1  
     4    3    4 1  
     5    4    5 2  
     6    4    6 1  
     7    7    8 1  
     8    8    9 2  
     9    8   10 1  
    10    6   11 1  
    11   10   12 1  
# Name:          frag3-234-3/31924 -- energy: -1.739789
# Creation time: Sat Jun  5 12:52:31 2010


@<TRIPOS>MOLECULE
frag3-234-3/31924 -- energy: -1.739789
   12    11     1     1     1
SMALL
USER_CHARGES


@<TRIPOS>ATOM
      1 S1         -1.1142    1.1968    0.0283 S.3        1 <1>        0.000
      2 S2          0.5097    1.0208   -1.0997 S.3        1 <1>        0.000
      3 S3          1.6094   -0.2586   -0.0582 S.3        1 <1>        0.000
      4 C1          2.7430    0.8440    0.6394 C.2        1 <1>        0.000
      5 S4          2.3852    1.8494    1.9588 S.2        1 <1>        0.000
      6 O1          3.9593    0.9431    0.0297 O.3        1 <1>        0.000
      7 S5         -2.5145    0.6074   -1.2432 S.3        1 <1>        0.000
      8 C3         -2.5816   -1.0892   -0.9049 C.2        1 <1>        0.000
      9 S6         -1.6098   -2.2455   -1.6702 S.2        1 <1>        0.000
     10 O2         -3.4349   -1.4780    0.0901 O.3        1 <1>        0.000
     11 H           4.0062    0.3126   -0.6927 H.spc      1 <1>        0.000
     12 H          -3.9110   -0.7121    0.4192 H.spc      1 <1>        0.000
@<TRIPOS>BOND
     1    1    2 1  
     2    1    7 1  
     3    2    3 1  
     4    3    4 1  
     5    4    5 2  
     6    4    6 1  
     7    7    8 1  
     8    8    9 2  
     9    8   10 1  
    10    6   11 1  
    11   10   12 1  
# Name:          frag3-234-3/31924 -- energy: -2.047886
# Creation time: Sat Jun  5 12:52:31 2010


@<TRIPOS>MOLECULE
frag3-234-3/31924 -- energy: -2.047886
   12    11     1     1     1
SMALL
USER_CHARGES


@<TRIPOS>ATOM
      1 S1         -1.1587    0.9612    0.7215 S.3        1 <1>        0.000
      2 S2          0.0471    1.9508   -0.4942 S.3        1 <1>        0.000
      3 S3          1.3562    0.5394   -0.9843 S.3        1 <1>        0.000
      4 C1          2.4438    0.7034    0.3408 C.2        1 <1>        0.000
      5 S4          3.4417    2.0639    0.5185 S.2        1 <1>        0.000
      6 O1          2.4520   -0.2519    1.3131 O.3        1 <1>        0.000
      7 S5         -2.6052    0.4297   -0.5261 S.3        1 <1>        0.000
      8 C3         -2.1869   -1.1924   -0.9049 C.2        1 <1>        0.000
      9 S6         -1.1339   -1.6597   -2.1375 S.2        1 <1>        0.000
     10 O2         -2.7045   -2.1539   -0.0771 O.3        1 <1>        0.000
     11 H           1.8424   -0.9543    1.0752 H.spc      1 <1>        0.000
     12 H          -3.2817   -1.7410    0.5694 H.spc      1 <1>        0.000
@<TRIPOS>BOND
     1    1    2 1  
     2    1    7 1  
     3    2    3 1  
     4    3    4 1  
     5    4    5 2  
     6    4    6 1  
     7    7    8 1  
     8    8    9 2  
     9    8   10 1  
    10    6   11 1  
    11   10   12 1  
# Name:          frag3-234-3/31924 -- energy: -1.748335
# Creation time: Sat Jun  5 12:52:31 2010


@<TRIPOS>MOLECULE
frag3-234-3/31924 -- energy: -1.748335
   12    11     1     1     1
SMALL
USER_CHARGES


@<TRIPOS>ATOM
      1 S1         -0.0347    0.4342    0.8609 S.3        1 <1>        0.000
      2 S2          0.1468   -0.8872   -0.6051 S.3        1 <1>        0.000
      3 S3         -1.2626   -0.1856   -1.8387 S.3        1 <1>        0.000
      4 C1         -2.6316   -0.9874   -1.1653 C.2        1 <1>        0.000
      5 S4         -2.7813   -2.6792   -1.1867 S.2        1 <1>        0.000
      6 O1         -3.5893   -0.2518   -0.5380 O.3        1 <1>        0.000
      7 S5          0.9888    1.9446    0.0445 S.3        1 <1>        0.000
      8 C3          2.5837    1.4812    0.5102 C.2        1 <1>        0.000
      9 S6          3.0919    1.5083    2.1285 S.2        1 <1>        0.000
     10 O2          3.4401    1.0133   -0.4402 O.3        1 <1>        0.000
     11 H          -3.3719    0.6806   -0.6077 H.spc      1 <1>        0.000
     12 H           3.0171    1.0587   -1.3008 H.spc      1 <1>        0.000
@<TRIPOS>BOND
     1    1    2 1  
     2    1    7 1  
     3    2    3 1  
     4    3    4 1  
     5    4    5 2  
     6    4    6 1  
     7    7    8 1  
     8    8    9 2  
     9    8   10 1  
    10    6   11 1  
    11   10   12 1  
# Name:          frag3-234-3/31924 -- energy: -1.838389
# Creation time: Sat Jun  5 12:52:31 2010


@<TRIPOS>MOLECULE
frag3-234-3/31924 -- energy: -1.838389
   12    11     1     1     1
SMALL
USER_CHARGES


@<TRIPOS>ATOM
      1 S1         -0.9240    0.5187    0.9006 S.3        1 <1>        0.000
      2 S2          0.5833   -0.6840    1.3866 S.3        1 <1>        0.000
      3 S3          1.7853   -0.4544   -0.1621 S.3        1 <1>        0.000
      4 C1          2.3596    1.1593    0.1484 C.2        1 <1>        0.000
      5 S4          2.1119    2.4773   -0.8685 S.2        1 <1>        0.000
      6 O1          3.0130    1.3444    1.3460 O.3        1 <1>        0.000
      7 S5         -2.3094   -0.8283    0.4348 S.3        1 <1>        0.000
      8 C3         -2.2322   -0.8031   -1.2973 C.2        1 <1>        0.000
      9 S6         -2.7538    0.5349   -2.1885 S.2        1 <1>        0.000
     10 O2         -1.6820   -1.8743   -1.9300 O.3        1 <1>        0.000
     11 H           3.0756    0.5053    1.8081 H.spc      1 <1>        0.000
     12 H          -1.4428   -2.5398   -1.2808 H.spc      1 <1>        0.000
@<TRIPOS>BOND
     1    1    2 1  
     2    1    7 1  
     3    2    3 1  
     4    3    4 1  
     5    4    5 2  
     6    4    6 1  
     7    7    8 1  
     8    8    9 2  
     9    8   10 1  
    10    6   11 1  
    11   10   12 1  
# Name:          frag3-234-3/31924 -- energy: -2.200272
# Creation time: Sat Jun  5 12:52:31 2010


@<TRIPOS>MOLECULE
frag3-234-3/31924 -- energy: -2.200272
   12    11     1     1     1
SMALL
USER_CHARGES


@<TRIPOS>ATOM
      1 S1         -0.2176    1.7058   -0.4859 S.3        1 <1>        0.000
      2 S2         -1.3590    0.9128    0.9479 S.3        1 <1>        0.000
      3 S3         -2.8039    0.1348   -0.1700 S.3        1 <1>        0.000
      4 C1         -1.9449   -1.1508   -0.9713 C.2        1 <1>        0.000
      5 S4         -1.5113   -1.1304   -2.6055 S.2        1 <1>        0.000
      6 O1         -1.5632   -2.2066   -0.1845 O.3        1 <1>        0.000
      7 S5          1.1187    0.2563   -0.7276 S.3        1 <1>        0.000
      8 C3          2.3423    0.7745    0.3787 C.2        1 <1>        0.000
      9 S6          3.9170    1.1321   -0.1006 S.2        1 <1>        0.000
     10 O2          1.9737    0.9618    1.6889 O.3        1 <1>        0.000
     11 H          -1.8839   -2.0700    0.7100 H.spc      1 <1>        0.000
     12 H           1.0528    0.7143    1.7996 H.spc      1 <1>        0.000
@<TRIPOS>BOND
     1    1    2 1  
     2    1    7 1  
     3    2    3 1  
     4    3    4 1  
     5    4    5 2  
     6    4    6 1  
     7    7    8 1  
     8    8    9 2  
     9    8   10 1  
    10    6   11 1  
    11   10   12 1  
# Name:          frag3-234-3/31924 -- energy: -1.747551
# Creation time: Sat Jun  5 12:52:31 2010


@<TRIPOS>MOLECULE
frag3-234-3/31924 -- energy: -1.747551
   12    11     1     1     1
SMALL
USER_CHARGES


@<TRIPOS>ATOM
      1 S1         -0.7722    0.4507    0.5611 S.3        1 <1>        0.000
      2 S2          0.6581   -0.7360   -0.1832 S.3        1 <1>        0.000
      3 S3          1.8790    0.6454   -0.9136 S.3        1 <1>        0.000
      4 C1          2.5255    1.2862    0.5676 C.2        1 <1>        0.000
      5 S4          2.5167    2.9110    0.9988 S.2        1 <1>        0.000
      6 O1          3.0373    0.3580    1.4481 O.3        1 <1>        0.000
      7 S5         -1.8519    0.6945   -1.1050 S.3        1 <1>        0.000
      8 C3         -2.4718   -0.9265   -1.2446 C.2        1 <1>        0.000
      9 S6         -3.4651   -1.6128   -0.0454 S.2        1 <1>        0.000
     10 O2         -2.1041   -1.6802   -2.3140 O.3        1 <1>        0.000
     11 H           2.9726   -0.5182    1.0611 H.spc      1 <1>        0.000
     12 H          -1.5492   -1.1571   -2.8971 H.spc      1 <1>        0.000
@<TRIPOS>BOND
     1    1    2 1  
     2    1    7 1  
     3    2    3 1  
     4    3    4 1  
     5    4    5 2  
     6    4    6 1  
     7    7    8 1  
     8    8    9 2  
     9    8   10 1  
    10    6   11 1  
    11   10   12 1  
# Name:          frag3-234-3/31924 -- energy: 2.920233
# Creation time: Sat Jun  5 12:52:31 2010


@<TRIPOS>MOLECULE
frag3-234-3/31924 -- energy: 2.920233
   12    11     1     1     1
SMALL
USER_CHARGES


@<TRIPOS>ATOM
      1 S1         -0.0684   -0.0221    1.6510 S.3        1 <1>        0.000
      2 S2         -1.6231    0.7866    0.7223 S.3        1 <1>        0.000
      3 S3         -1.0855    0.5211   -1.1844 S.3        1 <1>        0.000
      4 C1         -1.7454   -1.0720   -1.4285 C.2        1 <1>        0.000
      5 S4         -3.4001   -1.3217   -1.6497 S.2        1 <1>        0.000
      6 O1         -0.8921   -2.1331   -1.3784 O.3        1 <1>        0.000
      7 S5          1.1957    1.5062    1.5757 S.3        1 <1>        0.000
      8 C3          2.2009    1.1221    0.2237 C.2        1 <1>        0.000
      9 S6          3.3171    2.1593   -0.4693 S.2        1 <1>        0.000
     10 O2          2.0524   -0.1562   -0.2925 O.3        1 <1>        0.000
     11 H           0.0045   -1.8154   -1.2487 H.spc      1 <1>        0.000
     12 H           1.3805   -0.6258    0.2072 H.spc      1 <1>        0.000
@<TRIPOS>BOND
     1    1    2 1  
     2    1    7 1  
     3    2    3 1  
     4    3    4 1  
     5    4    5 2  
     6    4    6 1  
     7    7    8 1  
     8    8    9 2  
     9    8   10 1  
    10    6   11 1  
    11   10   12 1  
# Name:          frag3-234-3/31924 -- energy: 2.977768
# Creation time: Sat Jun  5 12:52:31 2010


@<TRIPOS>MOLECULE
frag3-234-3/31924 -- energy: 2.977768
   12    11     1     1     1
SMALL
USER_CHARGES


@<TRIPOS>ATOM
      1 S1         -0.2412    1.5171    0.4242 S.3        1 <1>        0.000
      2 S2         -0.7626   -0.3565    0.8435 S.3        1 <1>        0.000
      3 S3         -0.6993   -1.1834   -0.9529 S.3        1 <1>        0.000
      4 C1         -2.3958   -1.2919   -1.3143 C.2        1 <1>        0.000
      5 S4         -3.0168   -1.4281   -2.8734 S.2        1 <1>        0.000
      6 O1         -3.2506   -1.2575   -0.2362 O.3        1 <1>        0.000
      7 S5          1.3612    1.6774    1.5929 S.3        1 <1>        0.000
      8 C3          2.6212    1.2774    0.4628 C.2        1 <1>        0.000
      9 S6          3.3908    2.4697   -0.4704 S.2        1 <1>        0.000
     10 O2          2.9447   -0.0338    0.2939 O.3        1 <1>        0.000
     11 H          -2.7402   -1.1781    0.5730 H.spc      1 <1>        0.000
     12 H           2.4222   -0.5710    0.8939 H.spc      1 <1>        0.000
@<TRIPOS>BOND
     1    1    2 1  
     2    1    7 1  
     3    2    3 1  
     4    3    4 1  
     5    4    5 2  
     6    4    6 1  
     7    7    8 1  
     8    8    9 2  
     9    8   10 1  
    10    6   11 1  
    11   10   12 1  
# Name:          frag3-234-3/31924 -- energy: -2.457202
# Creation time: Sat Jun  5 12:52:31 2010


@<TRIPOS>MOLECULE
frag3-234-3/31924 -- energy: -2.457202
   12    11     1     1     1
SMALL
USER_CHARGES


@<TRIPOS>ATOM
      1 S1          0.5083    1.0105   -1.4905 S.3        1 <1>        0.000
      2 S2         -1.0433    1.7214   -0.4582 S.3        1 <1>        0.000
      3 S3         -2.5067    0.6601   -1.2687 S.3        1 <1>        0.000
      4 C1         -2.1285   -0.9355   -0.6931 C.2        1 <1>        0.000
      5 S4         -1.4994   -2.1773   -1.6488 S.2        1 <1>        0.000
      6 O1         -2.3088   -1.1493    0.6513 O.3        1 <1>        0.000
      7 S5          1.2029   -0.3908   -0.2599 S.3        1 <1>        0.000
      8 C3          2.2949    0.5611    0.6770 C.2        1 <1>        0.000
      9 S6          1.8554    1.4451    2.0509 S.2        1 <1>        0.000
     10 O2          3.5769    0.6450    0.2099 O.3        1 <1>        0.000
     11 H          -2.6707   -0.3568    1.0545 H.spc      1 <1>        0.000
     12 H           3.6695    0.0910   -0.5686 H.spc      1 <1>        0.000
@<TRIPOS>BOND
     1    1    2 1  
     2    1    7 1  
     3    2    3 1  
     4    3    4 1  
     5    4    5 2  
     6    4    6 1  
     7    7    8 1  
     8    8    9 2  
     9    8   10 1  
    10    6   11 1  
    11   10   12 1  
# Name:          frag3-234-3/31924 -- energy: -1.729209
# Creation time: Sat Jun  5 12:52:31 2010


@<TRIPOS>MOLECULE
frag3-234-3/31924 -- energy: -1.729209
   12    11     1     1     1
SMALL
USER_CHARGES


@<TRIPOS>ATOM
      1 S1          0.0529    1.9829   -0.8519 S.3        1 <1>        0.000
      2 S2         -1.1975    1.3513    0.5681 S.3        1 <1>        0.000
      3 S3         -2.5464    0.4345   -0.5540 S.3        1 <1>        0.000
      4 C1         -1.8042   -1.1132   -0.8584 C.2        1 <1>        0.000
      5 S4         -1.9150   -1.9685   -2.2840 S.2        1 <1>        0.000
      6 O1         -1.0604   -1.6148    0.1951 O.3        1 <1>        0.000
      7 S5          1.2203    0.3732   -1.0388 S.3        1 <1>        0.000
      8 C3          2.1136    0.5224    0.4439 C.2        1 <1>        0.000
      9 S6          3.2314    1.7753    0.6942 S.2        1 <1>        0.000
     10 O2          1.8568   -0.3528    1.4557 O.3        1 <1>        0.000
     11 H          -1.1012   -1.0032    0.9340 H.spc      1 <1>        0.000
     12 H           1.2089   -0.9978    1.1627 H.spc      1 <1>        0.000
@<TRIPOS>BOND
     1    1    2 1  
     2    1    7 1  
     3    2    3 1  
     4    3    4 1  
     5    4    5 2  
     6    4    6 1  
     7    7    8 1  
     8    8    9 2  
     9    8   10 1  
    10    6   11 1  
    11   10   12 1  
# Name:          frag3-234-3/31924 -- energy: -1.583528
# Creation time: Sat Jun  5 12:52:31 2010


@<TRIPOS>MOLECULE
frag3-234-3/31924 -- energy: -1.583528
   12    11     1     1     1
SMALL
USER_CHARGES


@<TRIPOS>ATOM
      1 S1         -0.9480    0.8047   -0.0252 S.3        1 <1>        0.000
      2 S2          0.7108    0.0434   -0.7869 S.3        1 <1>        0.000
      3 S3          1.8334   -0.1167    0.8529 S.3        1 <1>        0.000
      4 C1          2.8641    1.2383    0.6226 C.2        1 <1>        0.000
      5 S4          2.3383    2.8511    0.6683 S.2        1 <1>        0.000
      6 O1          4.1625    0.9752    0.2999 O.3        1 <1>        0.000
      7 S5         -1.9101   -0.8697    0.4769 S.3        1 <1>        0.000
      8 C3         -2.8152   -1.1190   -0.9701 C.2        1 <1>        0.000
      9 S6         -2.1307   -1.5518   -2.4613 S.2        1 <1>        0.000
     10 O2         -4.1535   -0.8651   -0.9071 O.3        1 <1>        0.000
     11 H           4.3090    0.0266    0.3153 H.spc      1 <1>        0.000
     12 H          -4.3924   -0.6351   -0.0062 H.spc      1 <1>        0.000
@<TRIPOS>BOND
     1    1    2 1  
     2    1    7 1  
     3    2    3 1  
     4    3    4 1  
     5    4    5 2  
     6    4    6 1  
     7    7    8 1  
     8    8    9 2  
     9    8   10 1  
    10    6   11 1  
    11   10   12 1  
# Name:          frag3-234-3/31924 -- energy: -2.205874
# Creation time: Sat Jun  5 12:52:31 2010


@<TRIPOS>MOLECULE
frag3-234-3/31924 -- energy: -2.205874
   12    11     1     1     1
SMALL
USER_CHARGES


@<TRIPOS>ATOM
      1 S1          0.6865   -1.1938    0.9503 S.3        1 <1>        0.000
      2 S2         -0.9617   -0.2589    1.5741 S.3        1 <1>        0.000
      3 S3         -1.4274    0.8024   -0.0428 S.3        1 <1>        0.000
      4 C1         -1.9522   -0.4912   -1.0971 C.2        1 <1>        0.000
      5 S4         -1.0655   -1.0759   -2.3974 S.2        1 <1>        0.000
      6 O1         -3.1452   -1.0753   -0.7575 O.3        1 <1>        0.000
      7 S5          2.0278    0.2292    1.2869 S.3        1 <1>        0.000
      8 C3          1.9617    1.1674   -0.1703 C.2        1 <1>        0.000
      9 S6          2.0145    2.8429   -0.2416 S.2        1 <1>        0.000
     10 O2          1.8131    0.4436   -1.3347 O.3        1 <1>        0.000
     11 H          -3.5174   -0.6218    0.0024 H.spc      1 <1>        0.000
     12 H           1.8011   -0.4938   -1.1281 H.spc      1 <1>        0.000
@<TRIPOS>BOND
     1    1    2 1  
     2    1    7 1  
     3    2    3 1  
     4    3    4 1  
     5    4    5 2  
     6    4    6 1  
     7    7    8 1  
     8    8    9 2  
     9    8   10 1  
    10    6   11 1  
    11   10   12 1  
# Name:          frag3-234-3/31924 -- energy: -1.881012
# Creation time: Sat Jun  5 12:52:31 2010


@<TRIPOS>MOLECULE
frag3-234-3/31924 -- energy: -1.881012
   12    11     1     1     1
SMALL
USER_CHARGES


@<TRIPOS>ATOM
      1 S1         -0.2698    0.6086   -1.3373 S.3        1 <1>        0.000
      2 S2          0.6705   -0.6884   -0.1554 S.3        1 <1>        0.000
      3 S3          1.0871    0.4893    1.3904 S.3        1 <1>        0.000
      4 C1          2.5113    1.2622    0.7981 C.2        1 <1>        0.000
      5 S4          2.5711    2.7938    0.0996 S.2        1 <1>        0.000
      6 O1          3.6600    0.5108    0.8471 O.3        1 <1>        0.000
      7 S5         -2.0495    0.6165   -0.4199 S.3        1 <1>        0.000
      8 C3         -2.6042   -0.9466   -0.9188 C.2        1 <1>        0.000
      9 S6         -2.7461   -1.3710   -2.5598 S.2        1 <1>        0.000
     10 O2         -2.8790   -1.8847    0.0259 O.3        1 <1>        0.000
     11 H           3.4728   -0.3308    1.2694 H.spc      1 <1>        0.000
     12 H          -2.7567   -1.5038    0.8986 H.spc      1 <1>        0.000
@<TRIPOS>BOND
     1    1    2 1  
     2    1    7 1  
     3    2    3 1  
     4    3    4 1  
     5    4    5 2  
     6    4    6 1  
     7    7    8 1  
     8    8    9 2  
     9    8   10 1  
    10    6   11 1  
    11   10   12 1  
# Name:          frag3-234-3/31924 -- energy: -0.842500
# Creation time: Sat Jun  5 12:52:31 2010


@<TRIPOS>MOLECULE
frag3-234-3/31924 -- energy: -0.842500
   12    11     1     1     1
SMALL
USER_CHARGES


@<TRIPOS>ATOM
      1 S1         -0.0949    1.6215    1.5993 S.3        1 <1>        0.000
      2 S2         -1.7320    0.6465    1.0888 S.3        1 <1>        0.000
      3 S3         -1.5801    0.6544   -0.8937 S.3        1 <1>        0.000
      4 C1         -1.6609   -1.0209   -1.2860 C.2        1 <1>        0.000
      5 S4         -2.2749   -1.6110   -2.7354 S.2        1 <1>        0.000
      6 O1         -1.2372   -1.9038   -0.3167 O.3        1 <1>        0.000
      7 S5          1.2679    0.1706    1.4002 S.3        1 <1>        0.000
      8 C3          2.1337    0.7148    0.0072 C.2        1 <1>        0.000
      9 S6          3.3429    1.9024    0.1171 S.2        1 <1>        0.000
     10 O2          1.7872    0.2160   -1.2109 O.3        1 <1>        0.000
     11 H          -0.9169   -1.4130    0.4437 H.spc      1 <1>        0.000
     12 H           1.0953   -0.4405   -1.1016 H.spc      1 <1>        0.000
@<TRIPOS>BOND
     1    1    2 1  
     2    1    7 1  
     3    2    3 1  
     4    3    4 1  
     5    4    5 2  
     6    4    6 1  
     7    7    8 1  
     8    8    9 2  
     9    8   10 1  
    10    6   11 1  
    11   10   12 1  
# Name:          frag3-234-3/31924 -- energy: -0.286482
# Creation time: Sat Jun  5 12:52:31 2010


@<TRIPOS>MOLECULE
frag3-234-3/31924 -- energy: -0.286482
   12    11     1     1     1
SMALL
USER_CHARGES


@<TRIPOS>ATOM
      1 S1          0.6748    1.0963   -1.9270 S.3        1 <1>        0.000
      2 S2         -1.0815    1.6421   -1.1414 S.3        1 <1>        0.000
      3 S3         -2.2132    0.1002   -1.6343 S.3        1 <1>        0.000
      4 C1         -1.8334   -1.0051   -0.3425 C.2        1 <1>        0.000
      5 S4         -1.3048   -2.5903   -0.5882 S.2        1 <1>        0.000
      6 O1         -1.9510   -0.5132    0.9322 O.3        1 <1>        0.000
      7 S5          1.9244    1.8472   -0.5969 S.3        1 <1>        0.000
      8 C3          1.9111    0.6012    0.6230 C.2        1 <1>        0.000
      9 S6          2.1433    0.8913    2.2661 S.2        1 <1>        0.000
     10 O2          1.6818   -0.6793    0.1792 O.3        1 <1>        0.000
     11 H          -2.2606    0.3948    0.8963 H.spc      1 <1>        0.000
     12 H           1.5715   -0.6713   -0.7744 H.spc      1 <1>        0.000
@<TRIPOS>BOND
     1    1    2 1  
     2    1    7 1  
     3    2    3 1  
     4    3    4 1  
     5    4    5 2  
     6    4    6 1  
     7    7    8 1  
     8    8    9 2  
     9    8   10 1  
    10    6   11 1  
    11   10   12 1  
# Name:          frag3-234-3/31924 -- energy: -1.621697
# Creation time: Sat Jun  5 12:52:31 2010


@<TRIPOS>MOLECULE
frag3-234-3/31924 -- energy: -1.621697
   12    11     1     1     1
SMALL
USER_CHARGES


@<TRIPOS>ATOM
      1 S1         -0.9533   -0.2789    1.5289 S.3        1 <1>        0.000
      2 S2         -0.5824    1.5624    0.8626 S.3        1 <1>        0.000
      3 S3          1.3460    1.7005    1.3533 S.3        1 <1>        0.000
      4 C1          2.0830    0.9244   -0.0050 C.2        1 <1>        0.000
      5 S4          2.0576    1.6171   -1.5548 S.2        1 <1>        0.000
      6 O1          2.6361   -0.3085    0.1608 O.3        1 <1>        0.000
      7 S5         -0.4336   -1.3626   -0.0438 S.3        1 <1>        0.000
      8 C3         -1.7148   -0.9545   -1.1603 C.2        1 <1>        0.000
      9 S6         -1.5223   -0.6771   -2.7908 S.2        1 <1>        0.000
     10 O2         -2.9646   -0.8326   -0.5809 O.3        1 <1>        0.000
     11 H           2.5762   -0.5633    1.0844 H.spc      1 <1>        0.000
     12 H          -2.9011   -1.0248    0.3575 H.spc      1 <1>        0.000
@<TRIPOS>BOND
     1    1    2 1  
     2    1    7 1  
     3    2    3 1  
     4    3    4 1  
     5    4    5 2  
     6    4    6 1  
     7    7    8 1  
     8    8    9 2  
     9    8   10 1  
    10    6   11 1  
    11   10   12 1  
# Name:          frag3-234-3/31924 -- energy: -1.409308
# Creation time: Sat Jun  5 12:52:31 2010


@<TRIPOS>MOLECULE
frag3-234-3/31924 -- energy: -1.409308
   12    11     1     1     1
SMALL
USER_CHARGES


@<TRIPOS>ATOM
      1 S1         -0.8920   -0.6870    1.6297 S.3        1 <1>        0.000
      2 S2          0.8926   -1.3735    1.0383 S.3        1 <1>        0.000
      3 S3          2.0109    0.2376    1.2683 S.3        1 <1>        0.000
      4 C1          1.6487    1.1119   -0.1946 C.2        1 <1>        0.000
      5 S4          1.4736    2.7856   -0.2723 S.2        1 <1>        0.000
      6 O1          1.4796    0.3517   -1.3260 O.3        1 <1>        0.000
      7 S5         -2.0434   -1.3368    0.1624 S.3        1 <1>        0.000
      8 C3         -1.6597   -0.1938   -1.1098 C.2        1 <1>        0.000
      9 S6         -1.4690   -0.6140   -2.7223 S.2        1 <1>        0.000
     10 O2         -1.4897    1.1086   -0.7038 O.3        1 <1>        0.000
     11 H           1.6132   -0.5743   -1.1109 H.spc      1 <1>        0.000
     12 H          -1.6356    1.1691    0.2431 H.spc      1 <1>        0.000
@<TRIPOS>BOND
     1    1    2 1  
     2    1    7 1  
     3    2    3 1  
     4    3    4 1  
     5    4    5 2  
     6    4    6 1  
     7    7    8 1  
     8    8    9 2  
     9    8   10 1  
    10    6   11 1  
    11   10   12 1  
# Name:          frag3-234-3/31924 -- energy: 1.471652
# Creation time: Sat Jun  5 12:52:31 2010


@<TRIPOS>MOLECULE
frag3-234-3/31924 -- energy: 1.471652
   12    11     1     1     1
SMALL
USER_CHARGES


@<TRIPOS>ATOM
      1 S1          0.2597   -0.3556    1.0689 S.3        1 <1>        0.000
      2 S2          0.2817   -0.6015   -0.9174 S.3        1 <1>        0.000
      3 S3         -1.4224    0.3439   -1.3529 S.3        1 <1>        0.000
      4 C1         -2.5493   -0.9868   -1.2410 C.2        1 <1>        0.000
      5 S4         -3.7813   -1.2316   -2.3528 S.2        1 <1>        0.000
      6 O1         -2.3527   -1.8746   -0.2102 O.3        1 <1>        0.000
      7 S5          0.7394    1.5817    1.1298 S.3        1 <1>        0.000
      8 C3          2.4319    1.4895    0.7057 C.2        1 <1>        0.000
      9 S6          3.2372    2.6474   -0.2136 S.2        1 <1>        0.000
     10 O2          3.1074    0.3780    1.1537 O.3        1 <1>        0.000
     11 H          -1.6114   -1.5824    0.3253 H.spc      1 <1>        0.000
     12 H           2.5085   -0.1772    1.6583 H.spc      1 <1>        0.000
@<TRIPOS>BOND
     1    1    2 1  
     2    1    7 1  
     3    2    3 1  
     4    3    4 1  
     5    4    5 2  
     6    4    6 1  
     7    7    8 1  
     8    8    9 2  
     9    8   10 1  
    10    6   11 1  
    11   10   12 1  
# Name:          frag3-234-3/31924 -- energy: -1.566649
# Creation time: Sat Jun  5 12:52:31 2010


@<TRIPOS>MOLECULE
frag3-234-3/31924 -- energy: -1.566649
   12    11     1     1     1
SMALL
USER_CHARGES


@<TRIPOS>ATOM
      1 S1          0.7798   -0.4634   -0.1714 S.3        1 <1>        0.000
      2 S2         -0.9005    0.3474    0.4740 S.3        1 <1>        0.000
      3 S3         -1.9253    0.4647   -1.2353 S.3        1 <1>        0.000
      4 C1         -2.8293   -0.9936   -1.1215 C.2        1 <1>        0.000
      5 S4         -2.1558   -2.5469   -1.2231 S.2        1 <1>        0.000
      6 O1         -4.1597   -0.8695   -0.8475 O.3        1 <1>        0.000
      7 S5          1.7417    1.1604   -0.8269 S.3        1 <1>        0.000
      8 C3          2.8472    1.3834    0.4669 C.2        1 <1>        0.000
      9 S6          2.3858    1.7037    2.0691 S.2        1 <1>        0.000
     10 O2          4.1677    1.2041    0.1856 O.3        1 <1>        0.000
     11 H          -4.3945    0.0610   -0.8218 H.spc      1 <1>        0.000
     12 H           4.2734    1.0328   -0.7531 H.spc      1 <1>        0.000
@<TRIPOS>BOND
     1    1    2 1  
     2    1    7 1  
     3    2    3 1  
     4    3    4 1  
     5    4    5 2  
     6    4    6 1  
     7    7    8 1  
     8    8    9 2  
     9    8   10 1  
    10    6   11 1  
    11   10   12 1  
# Name:          frag3-234-3/31924 -- energy: -0.170607
# Creation time: Sat Jun  5 12:52:31 2010


@<TRIPOS>MOLECULE
frag3-234-3/31924 -- energy: -0.170607
   12    11     1     1     1
SMALL
USER_CHARGES


@<TRIPOS>ATOM
      1 S1         -0.0291    1.8327    1.5807 S.3        1 <1>        0.000
      2 S2         -1.5137    0.5833    1.2259 S.3        1 <1>        0.000
      3 S3         -1.7219    0.7236   -0.7332 S.3        1 <1>        0.000
      4 C1         -1.5501   -0.8954   -1.2723 C.2        1 <1>        0.000
      5 S4         -2.1764   -1.4858   -2.7103 S.2        1 <1>        0.000
      6 O1         -0.8896   -1.7571   -0.4192 O.3        1 <1>        0.000
      7 S5          1.5141    0.5732    1.6519 S.3        1 <1>        0.000
      8 C3          1.9693    0.5287   -0.0166 C.2        1 <1>        0.000
      9 S6          2.5053    1.9231   -0.8329 S.2        1 <1>        0.000
     10 O2          1.8438   -0.6359   -0.7040 O.3        1 <1>        0.000
     11 H          -0.5920   -1.2736    0.3549 H.spc      1 <1>        0.000
     12 H           1.5344   -1.3245   -0.1109 H.spc      1 <1>        0.000
@<TRIPOS>BOND
     1    1    2 1  
     2    1    7 1  
     3    2    3 1  
     4    3    4 1  
     5    4    5 2  
     6    4    6 1  
     7    7    8 1  
     8    8    9 2  
     9    8   10 1  
    10    6   11 1  
    11   10   12 1  
# Name:          frag3-234-3/31924 -- energy: -1.861658
# Creation time: Sat Jun  5 12:52:31 2010


@<TRIPOS>MOLECULE
frag3-234-3/31924 -- energy: -1.861658
   12    11     1     1     1
SMALL
USER_CHARGES


@<TRIPOS>ATOM
      1 S1          0.1400    0.0979    1.2025 S.3        1 <1>        0.000
      2 S2         -0.4317   -1.6805    0.5355 S.3        1 <1>        0.000
      3 S3         -2.3889   -1.3377    0.3459 S.3        1 <1>        0.000
      4 C1         -2.4180   -0.6079   -1.2317 C.2        1 <1>        0.000
      5 S4         -2.2075   -1.5352   -2.6427 S.2        1 <1>        0.000
      6 O1         -2.5561    0.7412   -1.3250 O.3        1 <1>        0.000
      7 S5          1.0053    0.8592   -0.4136 S.3        1 <1>        0.000
      8 C3          2.5115    1.3914    0.2382 C.2        1 <1>        0.000
      9 S6          3.0063    3.0053    0.1925 S.2        1 <1>        0.000
     10 O2          3.2907    0.4567    0.8684 O.3        1 <1>        0.000
     11 H          -2.6649    1.1121   -0.4463 H.spc      1 <1>        0.000
     12 H           2.8707   -0.4042    0.8043 H.spc      1 <1>        0.000
@<TRIPOS>BOND
     1    1    2 1  
     2    1    7 1  
     3    2    3 1  
     4    3    4 1  
     5    4    5 2  
     6    4    6 1  
     7    7    8 1  
     8    8    9 2  
     9    8   10 1  
    10    6   11 1  
    11   10   12 1  
# Name:          frag3-234-3/31924 -- energy: 1.706309
# Creation time: Sat Jun  5 12:52:31 2010


@<TRIPOS>MOLECULE
frag3-234-3/31924 -- energy: 1.706309
   12    11     1     1     1
SMALL
USER_CHARGES


@<TRIPOS>ATOM
      1 S1          0.2671    1.3543   -0.9352 S.3        1 <1>        0.000
      2 S2         -0.9808    0.8337    0.5344 S.3        1 <1>        0.000
      3 S3         -2.6130    0.4637   -0.5055 S.3        1 <1>        0.000
      4 C1         -2.3270   -1.1585   -1.0573 C.2        1 <1>        0.000
      5 S4         -3.0811   -1.8583   -2.3845 S.2        1 <1>        0.000
      6 O1         -1.4085   -1.8902   -0.3327 O.3        1 <1>        0.000
      7 S5          1.7475    0.0643   -0.6325 S.3        1 <1>        0.000
      8 C3          2.5402    0.8799    0.6878 C.2        1 <1>        0.000
      9 S6          3.3359    2.3681    0.4663 S.2        1 <1>        0.000
     10 O2          2.4714    0.3334    1.9293 O.3        1 <1>        0.000
     11 H          -1.0704   -1.3535    0.3879 H.spc      1 <1>        0.000
     12 H           1.9943   -0.4985    1.8855 H.spc      1 <1>        0.000
@<TRIPOS>BOND
     1    1    2 1  
     2    1    7 1  
     3    2    3 1  
     4    3    4 1  
     5    4    5 2  
     6    4    6 1  
     7    7    8 1  
     8    8    9 2  
     9    8   10 1  
    10    6   11 1  
    11   10   12 1  
# Name:          frag3-234-3/31924 -- energy: -1.251909
# Creation time: Sat Jun  5 12:52:31 2010


@<TRIPOS>MOLECULE
frag3-234-3/31924 -- energy: -1.251909
   12    11     1     1     1
SMALL
USER_CHARGES


@<TRIPOS>ATOM
      1 S1         -0.9153    1.6234   -0.8250 S.3        1 <1>        0.000
      2 S2          0.9582    1.6336   -1.4533 S.3        1 <1>        0.000
      3 S3          1.6431   -0.0706   -0.6599 S.3        1 <1>        0.000
      4 C1          2.1849    0.5299    0.8661 C.2        1 <1>        0.000
      5 S4          1.1629    0.8606    2.1777 S.2        1 <1>        0.000
      6 O1          3.5148    0.8173    0.9694 O.3        1 <1>        0.000
      7 S5         -1.6361    0.1433   -1.9423 S.3        1 <1>        0.000
      8 C3         -2.1198   -1.0307   -0.7844 C.2        1 <1>        0.000
      9 S6         -3.4870   -1.9904   -0.9370 S.2        1 <1>        0.000
     10 O2         -1.3540   -1.1259    0.3587 O.3        1 <1>        0.000
     11 H           3.9577    0.5755    0.1527 H.spc      1 <1>        0.000
     12 H          -0.6126   -0.5192    0.2973 H.spc      1 <1>        0.000
@<TRIPOS>BOND
     1    1    2 1  
     2    1    7 1  
     3    2    3 1  
     4    3    4 1  
     5    4    5 2  
     6    4    6 1  
     7    7    8 1  
     8    8    9 2  
     9    8   10 1  
    10    6   11 1  
    11   10   12 1  
# Name:          frag3-234-3/31924 -- energy: -1.324665
# Creation time: Sat Jun  5 12:52:31 2010


@<TRIPOS>MOLECULE
frag3-234-3/31924 -- energy: -1.324665
   12    11     1     1     1
SMALL
USER_CHARGES


@<TRIPOS>ATOM
      1 S1          0.1362   -0.3093    1.3182 S.3        1 <1>        0.000
      2 S2         -0.9527    0.8818    0.1353 S.3        1 <1>        0.000
      3 S3         -0.8085   -0.0901   -1.5948 S.3        1 <1>        0.000
      4 C1         -2.1462   -1.1830   -1.3885 C.2        1 <1>        0.000
      5 S4         -3.7548   -0.6235   -1.3771 S.2        1 <1>        0.000
      6 O1         -1.8904   -2.5001   -1.1820 O.3        1 <1>        0.000
      7 S5          1.5120    0.9795    1.9098 S.3        1 <1>        0.000
      8 C3          2.3700    1.2730    0.4176 C.2        1 <1>        0.000
      9 S6          2.9262    2.7836   -0.0739 S.2        1 <1>        0.000
     10 O2          2.5599    0.1786   -0.3947 O.3        1 <1>        0.000
     11 H          -0.9430   -2.6506   -1.2191 H.spc      1 <1>        0.000
     12 H           2.1880   -0.5997    0.0267 H.spc      1 <1>        0.000
@<TRIPOS>BOND
     1    1    2 1  
     2    1    7 1  
     3    2    3 1  
     4    3    4 1  
     5    4    5 2  
     6    4    6 1  
     7    7    8 1  
     8    8    9 2  
     9    8   10 1  
    10    6   11 1  
    11   10   12 1  
# Name:          frag3-234-3/31924 -- energy: -1.894565
# Creation time: Sat Jun  5 12:52:31 2010


@<TRIPOS>MOLECULE
frag3-234-3/31924 -- energy: -1.894565
   12    11     1     1     1
SMALL
USER_CHARGES


@<TRIPOS>ATOM
      1 S1         -0.0524    1.6002   -0.2918 S.3        1 <1>        0.000
      2 S2         -0.8433    0.2243    0.9076 S.3        1 <1>        0.000
      3 S3         -2.6515    0.0692    0.1294 S.3        1 <1>        0.000
      4 C1         -2.3566   -1.0446   -1.1563 C.2        1 <1>        0.000
      5 S4         -2.1327   -2.7018   -0.8764 S.2        1 <1>        0.000
      6 O1         -2.2318   -0.5634   -2.4264 O.3        1 <1>        0.000
      7 S5          1.5535    0.6605   -0.9603 S.3        1 <1>        0.000
      8 C3          2.5920    0.8943    0.4090 C.2        1 <1>        0.000
      9 S6          3.2042    2.4225    0.8238 S.2        1 <1>        0.000
     10 O2          2.8703   -0.1707    1.2112 O.3        1 <1>        0.000
     11 H          -2.3856    0.3842   -2.4249 H.spc      1 <1>        0.000
     12 H           2.4588   -0.9588    0.8491 H.spc      1 <1>        0.000
@<TRIPOS>BOND
     1    1    2 1  
     2    1    7 1  
     3    2    3 1  
     4    3    4 1  
     5    4    5 2  
     6    4    6 1  
     7    7    8 1  
     8    8    9 2  
     9    8   10 1  
    10    6   11 1  
    11   10   12 1  
# Name:          frag3-234-3/31924 -- energy: 1.175932
# Creation time: Sat Jun  5 12:52:31 2010


@<TRIPOS>MOLECULE
frag3-234-3/31924 -- energy: 1.175932
   12    11     1     1     1
SMALL
USER_CHARGES


@<TRIPOS>ATOM
      1 S1         -0.9234   -0.9806    1.4238 S.3        1 <1>        0.000
      2 S2          0.8498   -0.3590    2.0342 S.3        1 <1>        0.000
      3 S3          0.8804    1.4708    1.2447 S.3        1 <1>        0.000
      4 C1          1.8865    1.2434   -0.1508 C.2        1 <1>        0.000
      5 S4          1.8246    2.2074   -1.5274 S.2        1 <1>        0.000
      6 O1          2.7717    0.1895   -0.0927 O.3        1 <1>        0.000
      7 S5         -0.5586   -1.3540   -0.5018 S.3        1 <1>        0.000
      8 C3         -1.8940   -0.5941   -1.2858 C.2        1 <1>        0.000
      9 S6         -1.7741    0.2869   -2.7152 S.2        1 <1>        0.000
     10 O2         -3.1113   -0.7199   -0.6590 O.3        1 <1>        0.000
     11 H           2.6820   -0.2560    0.7529 H.spc      1 <1>        0.000
     12 H          -3.0076   -1.2480    0.1360 H.spc      1 <1>        0.000
@<TRIPOS>BOND
     1    1    2 1  
     2    1    7 1  
     3    2    3 1  
     4    3    4 1  
     5    4    5 2  
     6    4    6 1  
     7    7    8 1  
     8    8    9 2  
     9    8   10 1  
    10    6   11 1  
    11   10   12 1  
# Name:          frag3-234-3/31924 -- energy: 2.123476
# Creation time: Sat Jun  5 12:52:31 2010


@<TRIPOS>MOLECULE
frag3-234-3/31924 -- energy: 2.123476
   12    11     1     1     1
SMALL
USER_CHARGES


@<TRIPOS>ATOM
      1 S1          0.0703   -0.4127   -1.1598 S.3        1 <1>        0.000
      2 S2          0.3752   -0.3232    0.8045 S.3        1 <1>        0.000
      3 S3          0.8605    1.6004    0.9478 S.3        1 <1>        0.000
      4 C1          2.5539    1.5270    0.5839 C.2        1 <1>        0.000
      5 S4          3.7133    2.4662    1.3528 S.2        1 <1>        0.000
      6 O1          2.9517    0.5954   -0.3527 O.3        1 <1>        0.000
      7 S5         -1.7566    0.4148   -1.2234 S.3        1 <1>        0.000
      8 C3         -2.7057   -1.0227   -1.0481 C.2        1 <1>        0.000
      9 S6         -2.5717   -2.3166   -2.1501 S.2        1 <1>        0.000
     10 O2         -3.5393   -1.1382    0.0150 O.3        1 <1>        0.000
     11 H           2.1797    0.1424   -0.6997 H.spc      1 <1>        0.000
     12 H          -3.5037   -0.3334    0.5371 H.spc      1 <1>        0.000
@<TRIPOS>BOND
     1    1    2 1  
     2    1    7 1  
     3    2    3 1  
     4    3    4 1  
     5    4    5 2  
     6    4    6 1  
     7    7    8 1  
     8    8    9 2  
     9    8   10 1  
    10    6   11 1  
    11   10   12 1  
# Name:          frag3-234-3/31924 -- energy: -1.675247
# Creation time: Sat Jun  5 12:52:31 2010


@<TRIPOS>MOLECULE
frag3-234-3/31924 -- energy: -1.675247
   12    11     1     1     1
SMALL
USER_CHARGES


@<TRIPOS>ATOM
      1 S1          0.2950   -0.1570    0.3882 S.3        1 <1>        0.000
      2 S2         -1.0376    1.0826   -0.3947 S.3        1 <1>        0.000
      3 S3         -1.5383    0.0148   -2.0058 S.3        1 <1>        0.000
      4 C1         -2.5228   -1.1799   -1.2277 C.2        1 <1>        0.000
      5 S4         -4.0165   -0.7937   -0.5198 S.2        1 <1>        0.000
      6 O1         -2.0515   -2.4545   -1.1206 O.3        1 <1>        0.000
      7 S5          1.9429    0.4009   -0.5891 S.3        1 <1>        0.000
      8 C3          2.7701    1.2170    0.6734 C.2        1 <1>        0.000
      9 S6          2.2061    2.6325    1.4200 S.2        1 <1>        0.000
     10 O2          3.9043    0.6278    1.1461 O.3        1 <1>        0.000
     11 H          -1.2038   -2.5196   -1.5665 H.spc      1 <1>        0.000
     12 H           4.0962   -0.1567    0.6271 H.spc      1 <1>        0.000
@<TRIPOS>BOND
     1    1    2 1  
     2    1    7 1  
     3    2    3 1  
     4    3    4 1  
     5    4    5 2  
     6    4    6 1  
     7    7    8 1  
     8    8    9 2  
     9    8   10 1  
    10    6   11 1  
    11   10   12 1  
# Name:          frag3-234-3/31924 -- energy: -2.475050
# Creation time: Sat Jun  5 12:52:31 2010


@<TRIPOS>MOLECULE
frag3-234-3/31924 -- energy: -2.475050
   12    11     1     1     1
SMALL
USER_CHARGES


@<TRIPOS>ATOM
      1 S1          0.4898    2.0609   -1.3175 S.3        1 <1>        0.000
      2 S2         -0.9490    1.0163   -2.1250 S.3        1 <1>        0.000
      3 S3         -2.1712    0.6631   -0.6065 S.3        1 <1>        0.000
      4 C1         -1.7880   -0.9504   -0.2085 C.2        1 <1>        0.000
      5 S4         -1.8048   -2.1941   -1.3659 S.2        1 <1>        0.000
      6 O1         -1.4014   -1.2515    1.0577 O.3        1 <1>        0.000
      7 S5          1.9369    0.7389   -1.0709 S.3        1 <1>        0.000
      8 C3          1.8928    0.4432    0.6069 C.2        1 <1>        0.000
      9 S6          2.3079    1.6243    1.7456 S.2        1 <1>        0.000
     10 O2          1.4387   -0.7604    1.0542 O.3        1 <1>        0.000
     11 H          -1.4399   -0.4600    1.5996 H.spc      1 <1>        0.000
     12 H           1.2437   -1.3265    0.3038 H.spc      1 <1>        0.000
@<TRIPOS>BOND
     1    1    2 1  
     2    1    7 1  
     3    2    3 1  
     4    3    4 1  
     5    4    5 2  
     6    4    6 1  
     7    7    8 1  
     8    8    9 2  
     9    8   10 1  
    10    6   11 1  
    11   10   12 1  
# Name:          frag3-234-3/31924 -- energy: -2.786762
# Creation time: Sat Jun  5 12:52:31 2010


@<TRIPOS>MOLECULE
frag3-234-3/31924 -- energy: -2.786762
   12    11     1     1     1
SMALL
USER_CHARGES


@<TRIPOS>ATOM
      1 S1         -0.1733    2.0932   -0.2241 S.3        1 <1>        0.000
      2 S2         -1.1911    0.9260    1.0053 S.3        1 <1>        0.000
      3 S3         -2.5980    0.2620   -0.2237 S.3        1 <1>        0.000
      4 C1         -1.7972   -1.0353   -1.0303 C.2        1 <1>        0.000
      5 S4         -1.3617   -2.4538   -0.2514 S.2        1 <1>        0.000
      6 O1         -1.4353   -0.8487   -2.3357 O.3        1 <1>        0.000
      7 S5          1.0649    0.8060   -1.0857 S.3        1 <1>        0.000
      8 C3          2.1479    0.5441    0.2231 C.2        1 <1>        0.000
      9 S6          3.1984    1.7368    0.7921 S.2        1 <1>        0.000
     10 O2          2.0971   -0.6399    0.9005 O.3        1 <1>        0.000
     11 H          -1.7558    0.0047   -2.6366 H.spc      1 <1>        0.000
     12 H           1.4652   -1.2240    0.4748 H.spc      1 <1>        0.000
@<TRIPOS>BOND
     1    1    2 1  
     2    1    7 1  
     3    2    3 1  
     4    3    4 1  
     5    4    5 2  
     6    4    6 1  
     7    7    8 1  
     8    8    9 2  
     9    8   10 1  
    10    6   11 1  
    11   10   12 1  
# Name:          frag3-234-3/31924 -- energy: -1.958427
# Creation time: Sat Jun  5 12:52:31 2010


@<TRIPOS>MOLECULE
frag3-234-3/31924 -- energy: -1.958427
   12    11     1     1     1
SMALL
USER_CHARGES


@<TRIPOS>ATOM
      1 S1         -1.5478    1.6280   -0.7258 S.3        1 <1>        0.000
      2 S2          0.1138    2.5370   -0.1900 S.3        1 <1>        0.000
      3 S3          1.4717    1.4166   -1.1428 S.3        1 <1>        0.000
      4 C1          2.0831    0.4719    0.1659 C.2        1 <1>        0.000
      5 S4          2.9195    1.1887    1.4642 S.2        1 <1>        0.000
      6 O1          1.8485   -0.8634    0.1808 O.3        1 <1>        0.000
      7 S5         -1.5886    0.0810    0.5199 S.3        1 <1>        0.000
      8 C3         -1.7663   -1.2645   -0.5334 C.2        1 <1>        0.000
      9 S6         -0.9282   -2.7126   -0.3940 S.2        1 <1>        0.000
     10 O2         -2.6541   -1.0924   -1.5748 O.3        1 <1>        0.000
     11 H           1.3710   -1.1122   -0.6140 H.spc      1 <1>        0.000
     12 H          -3.0494   -0.2195   -1.5159 H.spc      1 <1>        0.000
@<TRIPOS>BOND
     1    1    2 1  
     2    1    7 1  
     3    2    3 1  
     4    3    4 1  
     5    4    5 2  
     6    4    6 1  
     7    7    8 1  
     8    8    9 2  
     9    8   10 1  
    10    6   11 1  
    11   10   12 1  
# Name:          frag3-234-3/31924 -- energy: 1.652710
# Creation time: Sat Jun  5 12:52:31 2010


@<TRIPOS>MOLECULE
frag3-234-3/31924 -- energy: 1.652710
   12    11     1     1     1
SMALL
USER_CHARGES


@<TRIPOS>ATOM
      1 S1         -1.2526   -0.9994    1.4492 S.3        1 <1>        0.000
      2 S2          0.3541    0.0178    1.9848 S.3        1 <1>        0.000
      3 S3          1.5770   -0.3758    0.4640 S.3        1 <1>        0.000
      4 C1          1.9972    1.2024   -0.0873 C.2        1 <1>        0.000
      5 S4          3.5569    1.6291   -0.5595 S.2        1 <1>        0.000
      6 O1          1.0041    2.1526   -0.0768 O.3        1 <1>        0.000
      7 S5         -2.0402    0.2481    0.1129 S.3        1 <1>        0.000
      8 C3         -1.7687   -0.5867   -1.3790 C.2        1 <1>        0.000
      9 S6         -2.8260   -0.5148   -2.6864 S.2        1 <1>        0.000
     10 O2         -0.6502   -1.3831   -1.4518 O.3        1 <1>        0.000
     11 H           0.1819    1.7513    0.2140 H.spc      1 <1>        0.000
     12 H          -0.1555   -1.3138   -0.6320 H.spc      1 <1>        0.000
@<TRIPOS>BOND
     1    1    2 1  
     2    1    7 1  
     3    2    3 1  
     4    3    4 1  
     5    4    5 2  
     6    4    6 1  
     7    7    8 1  
     8    8    9 2  
     9    8   10 1  
    10    6   11 1  
    11   10   12 1  
# Name:          frag3-234-3/31924 -- energy: 2.740592
# Creation time: Sat Jun  5 12:52:31 2010


@<TRIPOS>MOLECULE
frag3-234-3/31924 -- energy: 2.740592
   12    11     1     1     1
SMALL
USER_CHARGES


@<TRIPOS>ATOM
      1 S1          0.4724   -0.6583    1.3330 S.3        1 <1>        0.000
      2 S2         -1.3881    0.0188    1.4633 S.3        1 <1>        0.000
      3 S3         -1.6523    0.7097   -0.3764 S.3        1 <1>        0.000
      4 C1         -1.8955   -0.7756   -1.2448 C.2        1 <1>        0.000
      5 S4         -1.6787   -0.9719   -2.8934 S.2        1 <1>        0.000
      6 O1         -2.2951   -1.8587   -0.4814 O.3        1 <1>        0.000
      7 S5          1.4646    1.0685    1.5426 S.3        1 <1>        0.000
      8 C3          2.0877    1.2940   -0.0581 C.2        1 <1>        0.000
      9 S6          3.2909    0.2878   -0.6893 S.2        1 <1>        0.000
     10 O2          1.5456    2.2762   -0.8254 O.3        1 <1>        0.000
     11 H          -2.3751   -1.5896    0.4366 H.spc      1 <1>        0.000
     12 H           0.8830    2.7492   -0.3166 H.spc      1 <1>        0.000
@<TRIPOS>BOND
     1    1    2 1  
     2    1    7 1  
     3    2    3 1  
     4    3    4 1  
     5    4    5 2  
     6    4    6 1  
     7    7    8 1  
     8    8    9 2  
     9    8   10 1  
    10    6   11 1  
    11   10   12 1  
# Name:          frag3-234-3/31924 -- energy: -1.497455
# Creation time: Sat Jun  5 12:52:31 2010


@<TRIPOS>MOLECULE
frag3-234-3/31924 -- energy: -1.497455
   12    11     1     1     1
SMALL
USER_CHARGES


@<TRIPOS>ATOM
      1 S1          0.5695   -0.8129    1.0520 S.3        1 <1>        0.000
      2 S2         -1.2952   -0.2788    1.3953 S.3        1 <1>        0.000
      3 S3         -1.7405    0.7026   -0.2640 S.3        1 <1>        0.000
      4 C1         -2.2065   -0.6003   -1.2969 C.2        1 <1>        0.000
      5 S4         -1.7031   -0.8252   -2.8790 S.2        1 <1>        0.000
      6 O1         -3.0433   -1.5386   -0.7209 O.3        1 <1>        0.000
      7 S5          1.5436    0.8610    1.5560 S.3        1 <1>        0.000
      8 C3          2.4035    1.2126    0.1207 C.2        1 <1>        0.000
      9 S6          1.6622    1.4700   -1.3849 S.2        1 <1>        0.000
     10 O2          3.7614    1.1999    0.1918 O.3        1 <1>        0.000
     11 H          -3.2441   -1.2762    0.1804 H.spc      1 <1>        0.000
     12 H           4.0317    1.0447    1.0998 H.spc      1 <1>        0.000
@<TRIPOS>BOND
     1    1    2 1  
     2    1    7 1  
     3    2    3 1  
     4    3    4 1  
     5    4    5 2  
     6    4    6 1  
     7    7    8 1  
     8    8    9 2  
     9    8   10 1  
    10    6   11 1  
    11   10   12 1  
# Name:          frag3-234-3/31924 -- energy: 1.275233
# Creation time: Sat Jun  5 12:52:31 2010


@<TRIPOS>MOLECULE
frag3-234-3/31924 -- energy: 1.275233
   12    11     1     1     1
SMALL
USER_CHARGES


@<TRIPOS>ATOM
      1 S1         -1.1331    0.7077    0.9512 S.3        1 <1>        0.000
      2 S2         -0.1454    2.1123   -0.0399 S.3        1 <1>        0.000
      3 S3          1.1840    1.0203   -1.0125 S.3        1 <1>        0.000
      4 C1          2.3656    0.7869    0.2288 C.2        1 <1>        0.000
      5 S4          3.9958    1.1328    0.0366 S.2        1 <1>        0.000
      6 O1          1.9115    0.3614    1.4607 O.3        1 <1>        0.000
      7 S5         -2.5834    0.2859   -0.3396 S.3        1 <1>        0.000
      8 C3         -2.0856   -1.2369   -0.9644 C.2        1 <1>        0.000
      9 S6         -1.0427   -1.4418   -2.2766 S.2        1 <1>        0.000
     10 O2         -2.5150   -2.3381   -0.2743 O.3        1 <1>        0.000
     11 H           0.9655    0.2046    1.4151 H.spc      1 <1>        0.000
     12 H          -3.0969   -2.0615    0.4374 H.spc      1 <1>        0.000
@<TRIPOS>BOND
     1    1    2 1  
     2    1    7 1  
     3    2    3 1  
     4    3    4 1  
     5    4    5 2  
     6    4    6 1  
     7    7    8 1  
     8    8    9 2  
     9    8   10 1  
    10    6   11 1  
    11   10   12 1  
# Name:          frag3-234-3/31924 -- energy: -0.199622
# Creation time: Sat Jun  5 12:52:31 2010


@<TRIPOS>MOLECULE
frag3-234-3/31924 -- energy: -0.199622
   12    11     1     1     1
SMALL
USER_CHARGES


@<TRIPOS>ATOM
      1 S1         -0.0231    1.9178   -0.2692 S.3        1 <1>        0.000
      2 S2         -0.5784    0.1030    0.3280 S.3        1 <1>        0.000
      3 S3         -0.9816   -0.7273   -1.4443 S.3        1 <1>        0.000
      4 C1         -2.5066   -1.4701   -1.1158 C.2        1 <1>        0.000
      5 S4         -3.8139   -1.4325   -2.1816 S.2        1 <1>        0.000
      6 O1         -2.6298   -2.0931    0.1015 O.3        1 <1>        0.000
      7 S5          1.8228    1.4729   -0.8972 S.3        1 <1>        0.000
      8 C3          2.6297    1.3080    0.6456 C.2        1 <1>        0.000
      9 S6          3.7202    0.0703    1.0034 S.2        1 <1>        0.000
     10 O2          2.3122    2.2414    1.5997 O.3        1 <1>        0.000
     11 H          -1.8009   -2.0235    0.5807 H.spc      1 <1>        0.000
     12 H           1.6838    2.8689    1.2352 H.spc      1 <1>        0.000
@<TRIPOS>BOND
     1    1    2 1  
     2    1    7 1  
     3    2    3 1  
     4    3    4 1  
     5    4    5 2  
     6    4    6 1  
     7    7    8 1  
     8    8    9 2  
     9    8   10 1  
    10    6   11 1  
    11   10   12 1  
# Name:          frag3-234-3/31924 -- energy: 0.205865
# Creation time: Sat Jun  5 12:52:31 2010


@<TRIPOS>MOLECULE
frag3-234-3/31924 -- energy: 0.205865
   12    11     1     1     1
SMALL
USER_CHARGES


@<TRIPOS>ATOM
      1 S1          0.1801   -0.1231    1.2116 S.3        1 <1>        0.000
      2 S2         -1.4425    0.8934    0.6760 S.3        1 <1>        0.000
      3 S3         -2.6792   -0.6380    0.3490 S.3        1 <1>        0.000
      4 C1         -2.2017   -1.0694   -1.2677 C.2        1 <1>        0.000
      5 S4         -2.6251   -0.1054   -2.6046 S.2        1 <1>        0.000
      6 O1         -1.4332   -2.1758   -1.4480 O.3        1 <1>        0.000
      7 S5          1.3360    0.1233   -0.3788 S.3        1 <1>        0.000
      8 C3          2.5748    1.1669    0.2629 C.2        1 <1>        0.000
      9 S6          3.3863    2.3251   -0.6316 S.2        1 <1>        0.000
     10 O2          2.8561    0.9934    1.6010 O.3        1 <1>        0.000
     11 H          -1.2869   -2.6039   -0.6013 H.spc      1 <1>        0.000
     12 H           2.3029    0.2932    1.9549 H.spc      1 <1>        0.000
@<TRIPOS>BOND
     1    1    2 1  
     2    1    7 1  
     3    2    3 1  
     4    3    4 1  
     5    4    5 2  
     6    4    6 1  
     7    7    8 1  
     8    8    9 2  
     9    8   10 1  
    10    6   11 1  
    11   10   12 1  
# Name:          frag3-234-3/31924 -- energy: -1.661191
# Creation time: Sat Jun  5 12:52:31 2010


@<TRIPOS>MOLECULE
frag3-234-3/31924 -- energy: -1.661191
   12    11     1     1     1
SMALL
USER_CHARGES


@<TRIPOS>ATOM
      1 S1         -0.0043   -0.3308   -1.4538 S.3        1 <1>        0.000
      2 S2         -0.0076    0.5543    0.3323 S.3        1 <1>        0.000
      3 S3          1.2636    2.0373   -0.0177 S.3        1 <1>        0.000
      4 C1          2.6910    1.3512    0.6816 C.2        1 <1>        0.000
      5 S4          2.9813    1.4069    2.3537 S.2        1 <1>        0.000
      6 O1          3.5673    0.6973   -0.1315 O.3        1 <1>        0.000
      7 S5         -1.8781    0.0578   -2.0016 S.3        1 <1>        0.000
      8 C3         -2.6939   -1.0641   -0.9443 C.2        1 <1>        0.000
      9 S6         -2.5708   -2.7467   -1.1601 S.2        1 <1>        0.000
     10 O2         -3.3969   -0.5728    0.1115 O.3        1 <1>        0.000
     11 H           3.2640    0.7566   -1.0404 H.spc      1 <1>        0.000
     12 H          -3.3717    0.3867    0.0926 H.spc      1 <1>        0.000
@<TRIPOS>BOND
     1    1    2 1  
     2    1    7 1  
     3    2    3 1  
     4    3    4 1  
     5    4    5 2  
     6    4    6 1  
     7    7    8 1  
     8    8    9 2  
     9    8   10 1  
    10    6   11 1  
    11   10   12 1  
# Name:          frag3-234-3/31924 -- energy: -1.610690
# Creation time: Sat Jun  5 12:52:31 2010


@<TRIPOS>MOLECULE
frag3-234-3/31924 -- energy: -1.610690
   12    11     1     1     1
SMALL
USER_CHARGES


@<TRIPOS>ATOM
      1 S1         -0.8054    0.9735   -0.7983 S.3        1 <1>        0.000
      2 S2          0.2659   -0.0541    0.5309 S.3        1 <1>        0.000
      3 S3          1.2154    1.4156    1.4671 S.3        1 <1>        0.000
      4 C1          2.7813    1.2405    0.7469 C.2        1 <1>        0.000
      5 S4          3.1558    1.7898   -0.8160 S.2        1 <1>        0.000
      6 O1          3.7192    0.5631    1.4674 O.3        1 <1>        0.000
      7 S5         -2.6175    0.3168   -0.3324 S.3        1 <1>        0.000
      8 C3         -2.5859   -1.2074   -1.1786 C.2        1 <1>        0.000
      9 S6         -3.1409   -1.3618   -2.7721 S.2        1 <1>        0.000
     10 O2         -2.0362   -2.2856   -0.5450 O.3        1 <1>        0.000
     11 H           3.3534    0.3242    2.3222 H.spc      1 <1>        0.000
     12 H          -1.7745   -2.0339    0.3437 H.spc      1 <1>        0.000
@<TRIPOS>BOND
     1    1    2 1  
     2    1    7 1  
     3    2    3 1  
     4    3    4 1  
     5    4    5 2  
     6    4    6 1  
     7    7    8 1  
     8    8    9 2  
     9    8   10 1  
    10    6   11 1  
    11   10   12 1  
# Name:          frag3-234-3/31924 -- energy: 0.327572
# Creation time: Sat Jun  5 12:52:31 2010


@<TRIPOS>MOLECULE
frag3-234-3/31924 -- energy: 0.327572
   12    11     1     1     1
SMALL
USER_CHARGES


@<TRIPOS>ATOM
      1 S1          0.7635    0.1882   -0.7052 S.3        1 <1>        0.000
      2 S2         -1.0583    0.7724   -0.1726 S.3        1 <1>        0.000
      3 S3         -1.8592   -1.0069    0.2492 S.3        1 <1>        0.000
      4 C1         -2.8782   -1.2285   -1.1540 C.2        1 <1>        0.000
      5 S4         -3.1442   -2.7210   -1.8796 S.2        1 <1>        0.000
      6 O1         -3.4540   -0.0897   -1.6602 O.3        1 <1>        0.000
      7 S5          1.6649    0.2551    1.0777 S.3        1 <1>        0.000
      8 C3          2.9525    1.3685    0.7347 C.2        1 <1>        0.000
      9 S6          3.1912    2.8063    1.5923 S.2        1 <1>        0.000
     10 O2          3.7733    1.0459   -0.3124 O.3        1 <1>        0.000
     11 H          -3.1952    0.6637   -1.1245 H.spc      1 <1>        0.000
     12 H           3.5001    0.2040   -0.6841 H.spc      1 <1>        0.000
@<TRIPOS>BOND
     1    1    2 1  
     2    1    7 1  
     3    2    3 1  
     4    3    4 1  
     5    4    5 2  
     6    4    6 1  
     7    7    8 1  
     8    8    9 2  
     9    8   10 1  
    10    6   11 1  
    11   10   12 1  
# Name:          frag3-234-3/31924 -- energy: 1.176144
# Creation time: Sat Jun  5 12:52:31 2010


@<TRIPOS>MOLECULE
frag3-234-3/31924 -- energy: 1.176144
   12    11     1     1     1
SMALL
USER_CHARGES


@<TRIPOS>ATOM
      1 S1         -0.1884   -0.5886   -0.4553 S.3        1 <1>        0.000
      2 S2          0.0414    1.1339    0.5159 S.3        1 <1>        0.000
      3 S3          1.6433    1.8265   -0.4507 S.3        1 <1>        0.000
      4 C1          2.8755    1.4827    0.7367 C.2        1 <1>        0.000
      5 S4          4.1646    2.5379    1.0340 S.2        1 <1>        0.000
      6 O1          2.7431    0.3317    1.4640 O.3        1 <1>        0.000
      7 S5         -1.7335   -0.0985   -1.6179 S.3        1 <1>        0.000
      8 C3         -2.8536   -1.3649   -1.2047 C.2        1 <1>        0.000
      9 S6         -3.9432   -2.0152   -2.3232 S.2        1 <1>        0.000
     10 O2         -2.7976   -1.8551    0.0714 O.3        1 <1>        0.000
     11 H           1.9643   -0.1450    1.1676 H.spc      1 <1>        0.000
     12 H          -2.1303   -1.3759    0.5681 H.spc      1 <1>        0.000
@<TRIPOS>BOND
     1    1    2 1  
     2    1    7 1  
     3    2    3 1  
     4    3    4 1  
     5    4    5 2  
     6    4    6 1  
     7    7    8 1  
     8    8    9 2  
     9    8   10 1  
    10    6   11 1  
    11   10   12 1  
# Name:          frag3-234-3/31924 -- energy: 2.591321
# Creation time: Sat Jun  5 12:52:31 2010


@<TRIPOS>MOLECULE
frag3-234-3/31924 -- energy: 2.591321
   12    11     1     1     1
SMALL
USER_CHARGES


@<TRIPOS>ATOM
      1 S1          0.4863    0.8751   -1.0811 S.3        1 <1>        0.000
      2 S2         -1.3186    1.4770   -0.4927 S.3        1 <1>        0.000
      3 S3         -2.4398    0.4032   -1.7268 S.3        1 <1>        0.000
      4 C1         -2.3693   -1.1662   -0.9647 C.2        1 <1>        0.000
      5 S4         -2.6853   -2.6117   -1.7709 S.2        1 <1>        0.000
      6 O1         -2.0321   -1.1832    0.3679 O.3        1 <1>        0.000
      7 S5          1.1692    0.0170    0.5728 S.3        1 <1>        0.000
      8 C3          2.6304    0.9149    0.8260 C.2        1 <1>        0.000
      9 S6          3.1159    1.5106    2.3279 S.2        1 <1>        0.000
     10 O2          3.3948    1.1537   -0.2883 O.3        1 <1>        0.000
     11 H          -1.8859   -0.2842    0.6713 H.spc      1 <1>        0.000
     12 H           2.9792    0.7485   -1.0529 H.spc      1 <1>        0.000
@<TRIPOS>BOND
     1    1    2 1  
     2    1    7 1  
     3    2    3 1  
     4    3    4 1  
     5    4    5 2  
     6    4    6 1  
     7    7    8 1  
     8    8    9 2  
     9    8   10 1  
    10    6   11 1  
    11   10   12 1  
# Name:          frag3-234-3/31924 -- energy: 1.412991
# Creation time: Sat Jun  5 12:52:31 2010


@<TRIPOS>MOLECULE
frag3-234-3/31924 -- energy: 1.412991
   12    11     1     1     1
SMALL
USER_CHARGES


@<TRIPOS>ATOM
      1 S1          0.0344    2.1480   -0.3956 S.3        1 <1>        0.000
      2 S2         -1.2750    1.0846    0.6440 S.3        1 <1>        0.000
      3 S3         -2.4507    0.4659   -0.8309 S.3        1 <1>        0.000
      4 C1         -1.8864   -1.1459   -1.1084 C.2        1 <1>        0.000
      5 S4         -2.7282   -2.5020   -0.6081 S.2        1 <1>        0.000
      6 O1         -0.6534   -1.2848   -1.6952 O.3        1 <1>        0.000
      7 S5          1.3020    0.7200   -0.9663 S.3        1 <1>        0.000
      8 C3          2.2389    0.5886    0.4797 C.2        1 <1>        0.000
      9 S6          3.3131    1.8084    0.9623 S.2        1 <1>        0.000
     10 O2          2.0569   -0.4925    1.2885 O.3        1 <1>        0.000
     11 H          -0.3085   -0.4180   -1.9216 H.spc      1 <1>        0.000
     12 H           1.4250   -1.0910    0.8834 H.spc      1 <1>        0.000
@<TRIPOS>BOND
     1    1    2 1  
     2    1    7 1  
     3    2    3 1  
     4    3    4 1  
     5    4    5 2  
     6    4    6 1  
     7    7    8 1  
     8    8    9 2  
     9    8   10 1  
    10    6   11 1  
    11   10   12 1  
# Name:          frag3-234-3/31924 -- energy: 2.484451
# Creation time: Sat Jun  5 12:52:31 2010


@<TRIPOS>MOLECULE
frag3-234-3/31924 -- energy: 2.484451
   12    11     1     1     1
SMALL
USER_CHARGES


@<TRIPOS>ATOM
      1 S1         -1.1895    0.7560    0.7217 S.3        1 <1>        0.000
      2 S2         -0.1536    1.3058   -0.9058 S.3        1 <1>        0.000
      3 S3          1.2488    2.4053   -0.0508 S.3        1 <1>        0.000
      4 C1          2.4005    1.1832    0.4105 C.2        1 <1>        0.000
      5 S4          4.0668    1.3918    0.2629 S.2        1 <1>        0.000
      6 O1          1.8995   -0.0125    0.8611 O.3        1 <1>        0.000
      7 S5         -1.1462   -1.2129    0.5247 S.3        1 <1>        0.000
      8 C3         -2.1396   -1.3904   -0.9065 C.2        1 <1>        0.000
      9 S6         -1.8144   -2.4872   -2.1448 S.2        1 <1>        0.000
     10 O2         -3.2207   -0.5488   -1.0031 O.3        1 <1>        0.000
     11 H           0.9409    0.0328    0.8867 H.spc      1 <1>        0.000
     12 H          -3.2630    0.0070   -0.2215 H.spc      1 <1>        0.000
@<TRIPOS>BOND
     1    1    2 1  
     2    1    7 1  
     3    2    3 1  
     4    3    4 1  
     5    4    5 2  
     6    4    6 1  
     7    7    8 1  
     8    8    9 2  
     9    8   10 1  
    10    6   11 1  
    11   10   12 1  
# Name:          frag3-234-3/31924 -- energy: -2.362131
# Creation time: Sat Jun  5 12:52:31 2010


@<TRIPOS>MOLECULE
frag3-234-3/31924 -- energy: -2.362131
   12    11     1     1     1
SMALL
USER_CHARGES


@<TRIPOS>ATOM
      1 S1         -0.2905    1.1993    1.1001 S.3        1 <1>        0.000
      2 S2         -0.9866   -0.6289    1.4019 S.3        1 <1>        0.000
      3 S3         -2.6525   -0.5173    0.3081 S.3        1 <1>        0.000
      4 C1         -2.0085   -0.7590   -1.2900 C.2        1 <1>        0.000
      5 S4         -1.3585   -2.2374   -1.7768 S.2        1 <1>        0.000
      6 O1         -1.9654    0.3135   -2.1330 O.3        1 <1>        0.000
      7 S5          0.7472    0.9560   -0.5781 S.3        1 <1>        0.000
      8 C3          2.3460    0.9457    0.0394 C.2        1 <1>        0.000
      9 S6          3.2667    2.3535    0.1884 S.2        1 <1>        0.000
     10 O2          2.8538   -0.2351    0.5100 O.3        1 <1>        0.000
     11 H          -2.3742    1.0705   -1.7071 H.spc      1 <1>        0.000
     12 H           2.2199   -0.9392    0.3548 H.spc      1 <1>        0.000
@<TRIPOS>BOND
     1    1    2 1  
     2    1    7 1  
     3    2    3 1  
     4    3    4 1  
     5    4    5 2  
     6    4    6 1  
     7    7    8 1  
     8    8    9 2  
     9    8   10 1  
    10    6   11 1  
    11   10   12 1  
# Name:          frag3-234-3/31924 -- energy: 2.182091
# Creation time: Sat Jun  5 12:52:32 2010


@<TRIPOS>MOLECULE
frag3-234-3/31924 -- energy: 2.182091
   12    11     1     1     1
SMALL
USER_CHARGES


@<TRIPOS>ATOM
      1 S1         -1.3067    1.5141   -0.7666 S.3        1 <1>        0.000
      2 S2          0.6309    1.5433   -1.1672 S.3        1 <1>        0.000
      3 S3          1.2768    0.0286   -0.0436 S.3        1 <1>        0.000
      4 C1          2.4924    0.8151    0.8969 C.2        1 <1>        0.000
      5 S4          2.7077    0.5715    2.5508 S.2        1 <1>        0.000
      6 O1          3.2949    1.7055    0.2247 O.3        1 <1>        0.000
      7 S5         -1.8667    0.0656   -2.0200 S.3        1 <1>        0.000
      8 C3         -2.2538   -1.2258   -0.9281 C.2        1 <1>        0.000
      9 S6         -3.4799   -2.3442   -1.2227 S.2        1 <1>        0.000
     10 O2         -1.5439   -1.2834    0.2457 O.3        1 <1>        0.000
     11 H           3.0432    1.7253   -0.7015 H.spc      1 <1>        0.000
     12 H          -0.8883   -0.5823    0.2566 H.spc      1 <1>        0.000
@<TRIPOS>BOND
     1    1    2 1  
     2    1    7 1  
     3    2    3 1  
     4    3    4 1  
     5    4    5 2  
     6    4    6 1  
     7    7    8 1  
     8    8    9 2  
     9    8   10 1  
    10    6   11 1  
    11   10   12 1  
# Name:          frag3-234-3/31924 -- energy: -0.706631
# Creation time: Sat Jun  5 12:52:32 2010


@<TRIPOS>MOLECULE
frag3-234-3/31924 -- energy: -0.706631
   12    11     1     1     1
SMALL
USER_CHARGES


@<TRIPOS>ATOM
      1 S1         -1.6603    0.3577    1.0614 S.3        1 <1>        0.000
      2 S2          0.1874   -0.2713    1.3371 S.3        1 <1>        0.000
      3 S3          1.1762    1.4661    1.4063 S.3        1 <1>        0.000
      4 C1          2.4805    1.1628    0.3452 C.2        1 <1>        0.000
      5 S4          2.2909    0.8860   -1.3190 S.2        1 <1>        0.000
      6 O1          3.7204    1.0618    0.8979 O.3        1 <1>        0.000
      7 S5         -1.6337    0.7014   -0.8922 S.3        1 <1>        0.000
      8 C3         -2.0241   -0.8714   -1.4983 C.2        1 <1>        0.000
      9 S6         -3.3093   -1.1715   -2.5369 S.2        1 <1>        0.000
     10 O2         -1.2764   -1.9313   -1.0315 O.3        1 <1>        0.000
     11 H           3.6660    1.2448    1.8387 H.spc      1 <1>        0.000
     12 H          -0.5839   -1.6029   -0.4533 H.spc      1 <1>        0.000
@<TRIPOS>BOND
     1    1    2 1  
     2    1    7 1  
     3    2    3 1  
     4    3    4 1  
     5    4    5 2  
     6    4    6 1  
     7    7    8 1  
     8    8    9 2  
     9    8   10 1  
    10    6   11 1  
    11   10   12 1  
# Name:          frag3-234-3/31924 -- energy: -1.996094
# Creation time: Sat Jun  5 12:52:32 2010


@<TRIPOS>MOLECULE
frag3-234-3/31924 -- energy: -1.996094
   12    11     1     1     1
SMALL
USER_CHARGES


@<TRIPOS>ATOM
      1 S1         -0.4620    1.0450   -1.4861 S.3        1 <1>        0.000
      2 S2          0.0113    2.2855   -0.0298 S.3        1 <1>        0.000
      3 S3          0.6637    1.0026    1.3482 S.3        1 <1>        0.000
      4 C1          2.2054    0.6366    0.6539 C.2        1 <1>        0.000
      5 S4          3.4481    1.7864    0.5568 S.2        1 <1>        0.000
      6 O1          2.4040   -0.5939    0.1013 O.3        1 <1>        0.000
      7 S5         -2.2761    0.4646   -0.8941 S.3        1 <1>        0.000
      8 C3         -2.0997   -1.2279   -0.7806 C.2        1 <1>        0.000
      9 S6         -1.8578   -2.2009   -2.1494 S.2        1 <1>        0.000
     10 O2         -2.0852   -1.8076    0.4497 O.3        1 <1>        0.000
     11 H           1.6206   -1.1329    0.2331 H.spc      1 <1>        0.000
     12 H          -2.2346   -1.1368    1.1200 H.spc      1 <1>        0.000
@<TRIPOS>BOND
     1    1    2 1  
     2    1    7 1  
     3    2    3 1  
     4    3    4 1  
     5    4    5 2  
     6    4    6 1  
     7    7    8 1  
     8    8    9 2  
     9    8   10 1  
    10    6   11 1  
    11   10   12 1  
# Name:          frag3-234-3/31924 -- energy: 0.632838
# Creation time: Sat Jun  5 12:52:32 2010


@<TRIPOS>MOLECULE
frag3-234-3/31924 -- energy: 0.632838
   12    11     1     1     1
SMALL
USER_CHARGES


@<TRIPOS>ATOM
      1 S1          0.7001   -0.8292    0.0208 S.3        1 <1>        0.000
      2 S2         -0.7914    0.2920    0.7637 S.3        1 <1>        0.000
      3 S3         -1.8190    0.6581   -0.8886 S.3        1 <1>        0.000
      4 C1         -2.5304   -0.9231   -1.1411 C.2        1 <1>        0.000
      5 S4         -2.5731   -1.6924   -2.6456 S.2        1 <1>        0.000
      6 O1         -3.0450   -1.5454   -0.0349 O.3        1 <1>        0.000
      7 S5          2.2010   -0.1603    1.1230 S.3        1 <1>        0.000
      8 C3          2.5016    1.3862    0.3610 C.2        1 <1>        0.000
      9 S6          3.0870    2.7343    1.1907 S.2        1 <1>        0.000
     10 O2          2.2207    1.4701   -0.9790 O.3        1 <1>        0.000
     11 H          -2.9405   -0.9744    0.7297 H.spc      1 <1>        0.000
     12 H           1.8999    0.6209   -1.2913 H.spc      1 <1>        0.000
@<TRIPOS>BOND
     1    1    2 1  
     2    1    7 1  
     3    2    3 1  
     4    3    4 1  
     5    4    5 2  
     6    4    6 1  
     7    7    8 1  
     8    8    9 2  
     9    8   10 1  
    10    6   11 1  
    11   10   12 1  
# Name:          frag3-234-3/31924 -- energy: 0.810785
# Creation time: Sat Jun  5 12:52:32 2010


@<TRIPOS>MOLECULE
frag3-234-3/31924 -- energy: 0.810785
   12    11     1     1     1
SMALL
USER_CHARGES


@<TRIPOS>ATOM
      1 S1         -0.1026    1.8891    1.1649 S.3        1 <1>        0.000
      2 S2         -0.9116    0.0875    1.2316 S.3        1 <1>        0.000
      3 S3         -2.3746    0.2865   -0.1208 S.3        1 <1>        0.000
      4 C1         -2.0866   -1.0589   -1.1398 C.2        1 <1>        0.000
      5 S4         -0.7535   -1.1833   -2.1805 S.2        1 <1>        0.000
      6 O1         -2.9473   -2.1093   -1.0326 O.3        1 <1>        0.000
      7 S5          0.9281    1.7610   -0.5253 S.3        1 <1>        0.000
      8 C3          2.3146    0.8611    0.0006 C.2        1 <1>        0.000
      9 S6          3.2388   -0.1481   -0.9647 S.2        1 <1>        0.000
     10 O2          2.6463    1.0048    1.3366 O.3        1 <1>        0.000
     11 H          -3.6443   -1.8882   -0.4106 H.spc      1 <1>        0.000
     12 H           2.0298    1.6102    1.7549 H.spc      1 <1>        0.000
@<TRIPOS>BOND
     1    1    2 1  
     2    1    7 1  
     3    2    3 1  
     4    3    4 1  
     5    4    5 2  
     6    4    6 1  
     7    7    8 1  
     8    8    9 2  
     9    8   10 1  
    10    6   11 1  
    11   10   12 1  
# Name:          frag3-234-3/31924 -- energy: -1.738855
# Creation time: Sat Jun  5 12:52:32 2010


@<TRIPOS>MOLECULE
frag3-234-3/31924 -- energy: -1.738855
   12    11     1     1     1
SMALL
USER_CHARGES


@<TRIPOS>ATOM
      1 S1          1.0403    0.1762   -1.3625 S.3        1 <1>        0.000
      2 S2         -0.5837    1.2993   -1.1010 S.3        1 <1>        0.000
      3 S3         -1.8989    0.2488   -2.1184 S.3        1 <1>        0.000
      4 C1         -2.3529   -0.9590   -0.9674 C.2        1 <1>        0.000
      5 S4         -3.8709   -1.0099   -0.2417 S.2        1 <1>        0.000
      6 O1         -1.3945   -1.8638   -0.5781 O.3        1 <1>        0.000
      7 S5          1.4022   -0.4750    0.4756 S.3        1 <1>        0.000
      8 C3          2.3110    0.8738    1.0690 C.2        1 <1>        0.000
      9 S6          1.6469    2.4070    1.3753 S.2        1 <1>        0.000
     10 O2          3.6522    0.6929    1.2193 O.3        1 <1>        0.000
     11 H          -0.5892   -1.7101   -1.0776 H.spc      1 <1>        0.000
     12 H           3.8764   -0.2173    1.0123 H.spc      1 <1>        0.000
@<TRIPOS>BOND
     1    1    2 1  
     2    1    7 1  
     3    2    3 1  
     4    3    4 1  
     5    4    5 2  
     6    4    6 1  
     7    7    8 1  
     8    8    9 2  
     9    8   10 1  
    10    6   11 1  
    11   10   12 1  
# Name:          frag3-234-3/31924 -- energy: 0.643436
# Creation time: Sat Jun  5 12:52:32 2010


@<TRIPOS>MOLECULE
frag3-234-3/31924 -- energy: 0.643436
   12    11     1     1     1
SMALL
USER_CHARGES


@<TRIPOS>ATOM
      1 S1          0.1057    0.7229    1.8675 S.3        1 <1>        0.000
      2 S2         -1.6688   -0.0715    1.5693 S.3        1 <1>        0.000
      3 S3         -2.1598    0.7131   -0.1812 S.3        1 <1>        0.000
      4 C1         -1.7306   -0.5282   -1.3007 C.2        1 <1>        0.000
      5 S4         -1.4283   -0.2989   -2.9317 S.2        1 <1>        0.000
      6 O1         -1.6413   -1.8046   -0.7720 O.3        1 <1>        0.000
      7 S5          1.2975   -0.4719    0.7956 S.3        1 <1>        0.000
      8 C3          2.1853    0.6626   -0.1305 C.2        1 <1>        0.000
      9 S6          1.4891    1.6529   -1.3193 S.2        1 <1>        0.000
     10 O2          3.5029    0.8140    0.1730 O.3        1 <1>        0.000
     11 H          -1.8404   -1.7756    0.1667 H.spc      1 <1>        0.000
     12 H           3.7464    0.1872    0.8582 H.spc      1 <1>        0.000
@<TRIPOS>BOND
     1    1    2 1  
     2    1    7 1  
     3    2    3 1  
     4    3    4 1  
     5    4    5 2  
     6    4    6 1  
     7    7    8 1  
     8    8    9 2  
     9    8   10 1  
    10    6   11 1  
    11   10   12 1  
# Name:          frag3-234-3/31924 -- energy: -1.493823
# Creation time: Sat Jun  5 12:52:32 2010


@<TRIPOS>MOLECULE
frag3-234-3/31924 -- energy: -1.493823
   12    11     1     1     1
SMALL
USER_CHARGES


@<TRIPOS>ATOM
      1 S1         -0.1609   -0.2904   -1.2443 S.3        1 <1>        0.000
      2 S2          0.0614    1.0490    0.2134 S.3        1 <1>        0.000
      3 S3          1.7112    1.9610   -0.4176 S.3        1 <1>        0.000
      4 C1          2.8494    1.3281    0.7367 C.2        1 <1>        0.000
      5 S4          3.4503    2.2761    2.0093 S.2        1 <1>        0.000
      6 O1          3.2119    0.0182    0.6273 O.3        1 <1>        0.000
      7 S5         -2.0450    0.0963   -1.7608 S.3        1 <1>        0.000
      8 C3         -2.8358   -1.2385   -0.9664 C.2        1 <1>        0.000
      9 S6         -3.0966   -2.7169   -1.7647 S.2        1 <1>        0.000
     10 O2         -3.1942   -1.0925    0.3372 O.3        1 <1>        0.000
     11 H           2.7857   -0.3674   -0.1416 H.spc      1 <1>        0.000
     12 H          -2.9786   -0.2039    0.6296 H.spc      1 <1>        0.000
@<TRIPOS>BOND
     1    1    2 1  
     2    1    7 1  
     3    2    3 1  
     4    3    4 1  
     5    4    5 2  
     6    4    6 1  
     7    7    8 1  
     8    8    9 2  
     9    8   10 1  
    10    6   11 1  
    11   10   12 1  
# Name:          frag3-234-3/31924 -- energy: 0.880684
# Creation time: Sat Jun  5 12:52:32 2010


@<TRIPOS>MOLECULE
frag3-234-3/31924 -- energy: 0.880684
   12    11     1     1     1
SMALL
USER_CHARGES


@<TRIPOS>ATOM
      1 S1         -1.0581    0.2384    0.2859 S.3        1 <1>        0.000
      2 S2          0.8418   -0.1871   -0.1154 S.3        1 <1>        0.000
      3 S3          1.5526    1.6687   -0.3108 S.3        1 <1>        0.000
      4 C1          2.8670    1.6169    0.8260 C.2        1 <1>        0.000
      5 S4          4.3291    2.4260    0.5603 S.2        1 <1>        0.000
      6 O1          2.6947    0.8519    1.9471 O.3        1 <1>        0.000
      7 S5         -1.8157    0.0415   -1.5519 S.3        1 <1>        0.000
      8 C3         -2.8069   -1.3747   -1.3256 C.2        1 <1>        0.000
      9 S6         -4.3175   -1.5514   -2.0669 S.2        1 <1>        0.000
     10 O2         -2.3354   -2.3398   -0.4787 O.3        1 <1>        0.000
     11 H           1.8148    0.4681    1.9391 H.spc      1 <1>        0.000
     12 H          -1.4714   -2.0810   -0.1498 H.spc      1 <1>        0.000
@<TRIPOS>BOND
     1    1    2 1  
     2    1    7 1  
     3    2    3 1  
     4    3    4 1  
     5    4    5 2  
     6    4    6 1  
     7    7    8 1  
     8    8    9 2  
     9    8   10 1  
    10    6   11 1  
    11   10   12 1  
# Name:          frag3-234-3/31924 -- energy: -1.520854
# Creation time: Sat Jun  5 12:52:32 2010


@<TRIPOS>MOLECULE
frag3-234-3/31924 -- energy: -1.520854
   12    11     1     1     1
SMALL
USER_CHARGES


@<TRIPOS>ATOM
      1 S1         -0.8991    0.3633    0.9931 S.3        1 <1>        0.000
      2 S2          0.6149   -0.8609    0.5329 S.3        1 <1>        0.000
      3 S3          1.5909    0.2142   -0.8218 S.3        1 <1>        0.000
      4 C1          2.5281    1.2114    0.2547 C.2        1 <1>        0.000
      5 S4          1.8969    2.5745    1.0506 S.2        1 <1>        0.000
      6 O1          3.8079    0.8200    0.5021 O.3        1 <1>        0.000
      7 S5         -2.4283   -0.7852    0.5104 S.3        1 <1>        0.000
      8 C3         -2.3996   -0.6942   -1.2388 C.2        1 <1>        0.000
      9 S6         -2.5740   -2.0148   -2.2540 S.2        1 <1>        0.000
     10 O2         -2.1861    0.5621   -1.7593 O.3        1 <1>        0.000
     11 H           4.0100    0.0411   -0.0214 H.spc      1 <1>        0.000
     12 H          -2.1098    1.1957   -1.0421 H.spc      1 <1>        0.000
@<TRIPOS>BOND
     1    1    2 1  
     2    1    7 1  
     3    2    3 1  
     4    3    4 1  
     5    4    5 2  
     6    4    6 1  
     7    7    8 1  
     8    8    9 2  
     9    8   10 1  
    10    6   11 1  
    11   10   12 1  
# Name:          frag3-234-3/31924 -- energy: -2.064390
# Creation time: Sat Jun  5 12:52:32 2010


@<TRIPOS>MOLECULE
frag3-234-3/31924 -- energy: -2.064390
   12    11     1     1     1
SMALL
USER_CHARGES


@<TRIPOS>ATOM
      1 S1         -1.0926    0.7144    0.5303 S.3        1 <1>        0.000
      2 S2          0.2417   -0.2578    1.6312 S.3        1 <1>        0.000
      3 S3          1.5964    1.1697    1.8778 S.3        1 <1>        0.000
      4 C1          2.3564    1.1821    0.3176 C.2        1 <1>        0.000
      5 S4          2.0073    2.2942   -0.9065 S.2        1 <1>        0.000
      6 O1          3.2475    0.1702    0.0712 O.3        1 <1>        0.000
      7 S5         -0.7194   -0.0282   -1.2830 S.3        1 <1>        0.000
      8 C3         -2.0949   -1.0476   -1.4594 C.2        1 <1>        0.000
      9 S6         -3.6760   -0.4151   -1.4793 S.2        1 <1>        0.000
     10 O2         -1.9148   -2.3913   -1.5299 O.3        1 <1>        0.000
     11 H           3.3386   -0.3730    0.8575 H.spc      1 <1>        0.000
     12 H          -0.9756   -2.5887   -1.5079 H.spc      1 <1>        0.000
@<TRIPOS>BOND
     1    1    2 1  
     2    1    7 1  
     3    2    3 1  
     4    3    4 1  
     5    4    5 2  
     6    4    6 1  
     7    7    8 1  
     8    8    9 2  
     9    8   10 1  
    10    6   11 1  
    11   10   12 1  
# Name:          frag3-234-3/31924 -- energy: -1.979423
# Creation time: Sat Jun  5 12:52:32 2010


@<TRIPOS>MOLECULE
frag3-234-3/31924 -- energy: -1.979423
   12    11     1     1     1
SMALL
USER_CHARGES


@<TRIPOS>ATOM
      1 S1          0.6036   -0.6799   -0.0929 S.3        1 <1>        0.000
      2 S2         -0.8123    0.4870    0.6930 S.3        1 <1>        0.000
      3 S3         -1.9655    0.7363   -0.9066 S.3        1 <1>        0.000
      4 C1         -2.5948   -0.8867   -1.0592 C.2        1 <1>        0.000
      5 S4         -2.0330   -2.0336   -2.1465 S.2        1 <1>        0.000
      6 O1         -3.5745   -1.2191   -0.1565 O.3        1 <1>        0.000
      7 S5          1.7282    0.6957   -0.9907 S.3        1 <1>        0.000
      8 C3          2.6430    1.2469    0.3706 C.2        1 <1>        0.000
      9 S6          2.1445    2.4613    1.4375 S.2        1 <1>        0.000
     10 O2          3.8124    0.5825    0.6213 O.3        1 <1>        0.000
     11 H          -3.7795   -0.4551    0.3874 H.spc      1 <1>        0.000
     12 H           3.9609   -0.0718   -0.0653 H.spc      1 <1>        0.000
@<TRIPOS>BOND
     1    1    2 1  
     2    1    7 1  
     3    2    3 1  
     4    3    4 1  
     5    4    5 2  
     6    4    6 1  
     7    7    8 1  
     8    8    9 2  
     9    8   10 1  
    10    6   11 1  
    11   10   12 1  
# Name:          frag3-234-3/31924 -- energy: -0.107269
# Creation time: Sat Jun  5 12:52:32 2010


@<TRIPOS>MOLECULE
frag3-234-3/31924 -- energy: -0.107269
   12    11     1     1     1
SMALL
USER_CHARGES


@<TRIPOS>ATOM
      1 S1         -1.3598    0.0003    1.3488 S.3        1 <1>        0.000
      2 S2          0.4322   -0.6281    0.7434 S.3        1 <1>        0.000
      3 S3          0.9712    0.8458   -0.4761 S.3        1 <1>        0.000
      4 C1          2.5008    1.2816    0.2032 C.2        1 <1>        0.000
      5 S4          2.9882    2.8741    0.4709 S.2        1 <1>        0.000
      6 O1          3.3264    0.2423    0.5537 O.3        1 <1>        0.000
      7 S5         -2.4973   -1.2797    0.3411 S.3        1 <1>        0.000
      8 C3         -2.2204   -0.7500   -1.3040 C.2        1 <1>        0.000
      9 S6         -2.1790   -1.7915   -2.6289 S.2        1 <1>        0.000
     10 O2         -2.0107    0.5956   -1.4820 O.3        1 <1>        0.000
     11 H           2.9012   -0.5903    0.3355 H.spc      1 <1>        0.000
     12 H          -2.0674    1.0421   -0.6340 H.spc      1 <1>        0.000
@<TRIPOS>BOND
     1    1    2 1  
     2    1    7 1  
     3    2    3 1  
     4    3    4 1  
     5    4    5 2  
     6    4    6 1  
     7    7    8 1  
     8    8    9 2  
     9    8   10 1  
    10    6   11 1  
    11   10   12 1  
# Name:          frag3-234-3/31924 -- energy: -2.899226
# Creation time: Sat Jun  5 12:52:32 2010


@<TRIPOS>MOLECULE
frag3-234-3/31924 -- energy: -2.899226
   12    11     1     1     1
SMALL
USER_CHARGES


@<TRIPOS>ATOM
      1 S1         -0.1721    2.2596    0.5349 S.3        1 <1>        0.000
      2 S2         -1.6057    1.0290    1.1412 S.3        1 <1>        0.000
      3 S3         -2.4002    0.4327   -0.5552 S.3        1 <1>        0.000
      4 C1         -1.4133   -0.9226   -0.9671 C.2        1 <1>        0.000
      5 S4         -0.6018   -1.1232   -2.4241 S.2        1 <1>        0.000
      6 O1         -1.2708   -1.8772    0.0173 O.3        1 <1>        0.000
      7 S5          1.4413    1.3963    1.2985 S.3        1 <1>        0.000
      8 C3          1.8692    0.3206    0.0171 C.2        1 <1>        0.000
      9 S6          2.3040    0.8958   -1.5242 S.2        1 <1>        0.000
     10 O2          1.8011   -1.0206    0.2316 O.3        1 <1>        0.000
     11 H          -1.7908   -1.6249    0.7838 H.spc      1 <1>        0.000
     12 H           1.5453   -1.1853    1.1421 H.spc      1 <1>        0.000
@<TRIPOS>BOND
     1    1    2 1  
     2    1    7 1  
     3    2    3 1  
     4    3    4 1  
     5    4    5 2  
     6    4    6 1  
     7    7    8 1  
     8    8    9 2  
     9    8   10 1  
    10    6   11 1  
    11   10   12 1  
# Name:          frag3-234-3/31924 -- energy: -1.390205
# Creation time: Sat Jun  5 12:52:32 2010


@<TRIPOS>MOLECULE
frag3-234-3/31924 -- energy: -1.390205
   12    11     1     1     1
SMALL
USER_CHARGES


@<TRIPOS>ATOM
      1 S1          0.5019    0.8351   -1.4127 S.3        1 <1>        0.000
      2 S2         -0.9279    1.2542   -0.0800 S.3        1 <1>        0.000
      3 S3         -2.5356    0.6323   -1.0586 S.3        1 <1>        0.000
      4 C1         -2.4411   -1.0754   -0.7572 C.2        1 <1>        0.000
      5 S4         -1.4039   -2.1222   -1.6017 S.2        1 <1>        0.000
      6 O1         -3.2035   -1.5639    0.2603 O.3        1 <1>        0.000
      7 S5          1.7018   -0.3070   -0.3410 S.3        1 <1>        0.000
      8 C3          2.5243    0.9068    0.5983 C.2        1 <1>        0.000
      9 S6          2.8183    0.7964    2.2509 S.2        1 <1>        0.000
     10 O2          2.9173    2.0342   -0.0882 O.3        1 <1>        0.000
     11 H          -3.7306   -0.8535    0.6332 H.spc      1 <1>        0.000
     12 H           2.6797    1.9429   -1.0138 H.spc      1 <1>        0.000
@<TRIPOS>BOND
     1    1    2 1  
     2    1    7 1  
     3    2    3 1  
     4    3    4 1  
     5    4    5 2  
     6    4    6 1  
     7    7    8 1  
     8    8    9 2  
     9    8   10 1  
    10    6   11 1  
    11   10   12 1  
# Name:          frag3-234-3/31924 -- energy: 0.858301
# Creation time: Sat Jun  5 12:52:32 2010


@<TRIPOS>MOLECULE
frag3-234-3/31924 -- energy: 0.858301
   12    11     1     1     1
SMALL
USER_CHARGES


@<TRIPOS>ATOM
      1 S1          0.3600   -0.1415    0.9280 S.3        1 <1>        0.000
      2 S2         -0.2053    0.2026   -0.9492 S.3        1 <1>        0.000
      3 S3         -2.1604    0.3610   -0.6905 S.3        1 <1>        0.000
      4 C1         -2.6943   -1.1498   -1.3508 C.2        1 <1>        0.000
      5 S4         -4.1990   -1.3673   -2.0712 S.2        1 <1>        0.000
      6 O1         -1.8013   -2.1976   -1.3041 O.3        1 <1>        0.000
      7 S5          1.0937    1.6564    1.3950 S.3        1 <1>        0.000
      8 C3          2.7274    1.4307    0.8380 C.2        1 <1>        0.000
      9 S6          3.1411    1.3191   -0.8097 S.2        1 <1>        0.000
     10 O2          3.6897    1.2767    1.7846 O.3        1 <1>        0.000
     11 H          -0.9972   -1.9119   -0.8643 H.spc      1 <1>        0.000
     12 H           3.2972    1.3673    2.6560 H.spc      1 <1>        0.000
@<TRIPOS>BOND
     1    1    2 1  
     2    1    7 1  
     3    2    3 1  
     4    3    4 1  
     5    4    5 2  
     6    4    6 1  
     7    7    8 1  
     8    8    9 2  
     9    8   10 1  
    10    6   11 1  
    11   10   12 1  
# Name:          frag3-234-3/31924 -- energy: -0.451787
# Creation time: Sat Jun  5 12:52:32 2010


@<TRIPOS>MOLECULE
frag3-234-3/31924 -- energy: -0.451787
   12    11     1     1     1
SMALL
USER_CHARGES


@<TRIPOS>ATOM
      1 S1         -1.3267   -0.4916    1.6222 S.3        1 <1>        0.000
      2 S2         -0.3899    1.1877    1.1465 S.3        1 <1>        0.000
      3 S3          1.5119    0.6060    1.4147 S.3        1 <1>        0.000
      4 C1          2.1958    0.9823   -0.1131 C.2        1 <1>        0.000
      5 S4          2.3706    2.5911   -0.6379 S.2        1 <1>        0.000
      6 O1          2.5465   -0.0318   -0.9446 O.3        1 <1>        0.000
      7 S5         -0.8454   -1.6126    0.0512 S.3        1 <1>        0.000
      8 C3         -1.7893   -0.8424   -1.1910 C.2        1 <1>        0.000
      9 S6         -1.3271   -0.6904   -2.7964 S.2        1 <1>        0.000
     10 O2         -2.9949   -0.3080   -0.7815 O.3        1 <1>        0.000
     11 H           2.3903   -0.8717   -0.5067 H.spc      1 <1>        0.000
     12 H          -3.1158   -0.4753    0.1560 H.spc      1 <1>        0.000
@<TRIPOS>BOND
     1    1    2 1  
     2    1    7 1  
     3    2    3 1  
     4    3    4 1  
     5    4    5 2  
     6    4    6 1  
     7    7    8 1  
     8    8    9 2  
     9    8   10 1  
    10    6   11 1  
    11   10   12 1  
# Name:          frag3-234-3/31924 -- energy: -0.489006
# Creation time: Sat Jun  5 12:52:32 2010


@<TRIPOS>MOLECULE
frag3-234-3/31924 -- energy: -0.489006
   12    11     1     1     1
SMALL
USER_CHARGES


@<TRIPOS>ATOM
      1 S1         -0.0232    1.4903   -0.5217 S.3        1 <1>        0.000
      2 S2         -1.0259    0.4313    0.8407 S.3        1 <1>        0.000
      3 S3         -2.7572    0.1848   -0.0975 S.3        1 <1>        0.000
      4 C1         -2.4190   -1.2603   -1.0011 C.2        1 <1>        0.000
      5 S4         -1.6377   -1.2561   -2.5083 S.2        1 <1>        0.000
      6 O1         -2.7565   -2.4441   -0.4165 O.3        1 <1>        0.000
      7 S5          1.5826    0.3624   -0.7531 S.3        1 <1>        0.000
      8 C3          2.6467    1.0739    0.4391 C.2        1 <1>        0.000
      9 S6          4.2751    1.3532    0.1607 S.2        1 <1>        0.000
     10 O2          2.0667    1.4550    1.6275 O.3        1 <1>        0.000
     11 H          -3.1873   -2.2732    0.4242 H.spc      1 <1>        0.000
     12 H           1.1358    1.2207    1.6176 H.spc      1 <1>        0.000
@<TRIPOS>BOND
     1    1    2 1  
     2    1    7 1  
     3    2    3 1  
     4    3    4 1  
     5    4    5 2  
     6    4    6 1  
     7    7    8 1  
     8    8    9 2  
     9    8   10 1  
    10    6   11 1  
    11   10   12 1  
# Name:          frag3-234-3/31924 -- energy: -1.176512
# Creation time: Sat Jun  5 12:52:32 2010


@<TRIPOS>MOLECULE
frag3-234-3/31924 -- energy: -1.176512
   12    11     1     1     1
SMALL
USER_CHARGES


@<TRIPOS>ATOM
      1 S1          0.4229    0.5671    2.0525 S.3        1 <1>        0.000
      2 S2         -1.2283   -0.4131    1.5933 S.3        1 <1>        0.000
      3 S3         -1.8021    0.5352   -0.0598 S.3        1 <1>        0.000
      4 C1         -1.8663   -0.7475   -1.2233 C.2        1 <1>        0.000
      5 S4         -1.2596   -0.6460   -2.7799 S.2        1 <1>        0.000
      6 O1         -2.4493   -1.9139   -0.7772 O.3        1 <1>        0.000
      7 S5          1.7079   -0.2813    0.7812 S.3        1 <1>        0.000
      8 C3          2.0010    1.0128   -0.3280 C.2        1 <1>        0.000
      9 S6          3.3674    2.0055   -0.2103 S.2        1 <1>        0.000
     10 O2          1.0579    1.2715   -1.2786 O.3        1 <1>        0.000
     11 H          -2.7401   -1.7982    0.1303 H.spc      1 <1>        0.000
     12 H           0.3532    0.6229   -1.2134 H.spc      1 <1>        0.000
@<TRIPOS>BOND
     1    1    2 1  
     2    1    7 1  
     3    2    3 1  
     4    3    4 1  
     5    4    5 2  
     6    4    6 1  
     7    7    8 1  
     8    8    9 2  
     9    8   10 1  
    10    6   11 1  
    11   10   12 1  
# Name:          frag3-234-3/31924 -- energy: -1.179767
# Creation time: Sat Jun  5 12:52:32 2010


@<TRIPOS>MOLECULE
frag3-234-3/31924 -- energy: -1.179767
   12    11     1     1     1
SMALL
USER_CHARGES


@<TRIPOS>ATOM
      1 S1          0.8653   -1.2486    1.0223 S.3        1 <1>        0.000
      2 S2         -1.0184   -0.7790    1.4629 S.3        1 <1>        0.000
      3 S3         -1.9839   -1.5563   -0.0678 S.3        1 <1>        0.000
      4 C1         -1.9305   -0.2479   -1.2101 C.2        1 <1>        0.000
      5 S4         -1.7440   -0.4469   -2.8703 S.2        1 <1>        0.000
      6 O1         -2.0305    1.0180   -0.6800 O.3        1 <1>        0.000
      7 S5          1.8249    0.4045    1.5332 S.3        1 <1>        0.000
      8 C3          1.9999    1.1769   -0.0188 C.2        1 <1>        0.000
      9 S6          0.8832    2.2721   -0.6465 S.2        1 <1>        0.000
     10 O2          3.0856    0.7976   -0.7549 O.3        1 <1>        0.000
     11 H          -2.1317    0.9577    0.2727 H.spc      1 <1>        0.000
     12 H           3.6120    0.1743   -0.2489 H.spc      1 <1>        0.000
@<TRIPOS>BOND
     1    1    2 1  
     2    1    7 1  
     3    2    3 1  
     4    3    4 1  
     5    4    5 2  
     6    4    6 1  
     7    7    8 1  
     8    8    9 2  
     9    8   10 1  
    10    6   11 1  
    11   10   12 1  
# Name:          frag3-234-3/31924 -- energy: -2.098256
# Creation time: Sat Jun  5 12:52:32 2010


@<TRIPOS>MOLECULE
frag3-234-3/31924 -- energy: -2.098256
   12    11     1     1     1
SMALL
USER_CHARGES


@<TRIPOS>ATOM
      1 S1          0.2558   -0.6160    1.2871 S.3        1 <1>        0.000
      2 S2         -1.5864    0.0802    1.1564 S.3        1 <1>        0.000
      3 S3         -1.5759    0.7834   -0.7111 S.3        1 <1>        0.000
      4 C1         -1.9269   -0.6838   -1.5526 C.2        1 <1>        0.000
      5 S4         -3.4629   -1.4039   -1.4955 S.2        1 <1>        0.000
      6 O1         -0.9231   -1.3174   -2.2237 O.3        1 <1>        0.000
      7 S5          1.2666    1.0639    1.6518 S.3        1 <1>        0.000
      8 C3          2.3540    1.1410    0.3179 C.2        1 <1>        0.000
      9 S6          1.9958    1.8388   -1.1646 S.2        1 <1>        0.000
     10 O2          3.5545    0.5041    0.5041 O.3        1 <1>        0.000
     11 H          -0.1213   -0.7924   -2.1679 H.spc      1 <1>        0.000
     12 H           3.5992    0.1638    1.4006 H.spc      1 <1>        0.000
@<TRIPOS>BOND
     1    1    2 1  
     2    1    7 1  
     3    2    3 1  
     4    3    4 1  
     5    4    5 2  
     6    4    6 1  
     7    7    8 1  
     8    8    9 2  
     9    8   10 1  
    10    6   11 1  
    11   10   12 1  
# Name:          frag3-234-3/31924 -- energy: 1.839856
# Creation time: Sat Jun  5 12:52:32 2010


@<TRIPOS>MOLECULE
frag3-234-3/31924 -- energy: 1.839856
   12    11     1     1     1
SMALL
USER_CHARGES


@<TRIPOS>ATOM
      1 S1         -1.3145    0.4883    1.2213 S.3        1 <1>        0.000
      2 S2         -0.1306    2.0813    1.1809 S.3        1 <1>        0.000
      3 S3          1.6216    1.2407    1.5405 S.3        1 <1>        0.000
      4 C1          2.0897    0.7310   -0.0555 C.2        1 <1>        0.000
      5 S4          3.6646    0.8608   -0.6378 S.2        1 <1>        0.000
      6 O1          1.0984    0.2511   -0.8749 O.3        1 <1>        0.000
      7 S5         -2.0732    0.4963   -0.6075 S.3        1 <1>        0.000
      8 C3         -1.7837   -1.1213   -1.1325 C.2        1 <1>        0.000
      9 S6         -1.1159   -1.5248   -2.6271 S.2        1 <1>        0.000
     10 O2         -2.1048   -2.1130   -0.2374 O.3        1 <1>        0.000
     11 H           0.2664    0.2400   -0.3961 H.spc      1 <1>        0.000
     12 H          -2.4714   -1.7187    0.5574 H.spc      1 <1>        0.000
@<TRIPOS>BOND
     1    1    2 1  
     2    1    7 1  
     3    2    3 1  
     4    3    4 1  
     5    4    5 2  
     6    4    6 1  
     7    7    8 1  
     8    8    9 2  
     9    8   10 1  
    10    6   11 1  
    11   10   12 1  
# Name:          frag3-234-3/31924 -- energy: 0.980788
# Creation time: Sat Jun  5 12:52:32 2010


@<TRIPOS>MOLECULE
frag3-234-3/31924 -- energy: 0.980788
   12    11     1     1     1
SMALL
USER_CHARGES


@<TRIPOS>ATOM
      1 S1          0.2230   -0.4812    1.2593 S.3        1 <1>        0.000
      2 S2         -1.6153    0.2760    1.3644 S.3        1 <1>        0.000
      3 S3         -1.8735    0.7957   -0.5393 S.3        1 <1>        0.000
      4 C1         -1.9819   -0.7899   -1.2679 C.2        1 <1>        0.000
      5 S4         -1.4911   -1.1382   -2.8398 S.2        1 <1>        0.000
      6 O1         -2.4889   -1.7916   -0.4708 O.3        1 <1>        0.000
      7 S5          1.2939    1.1917    1.4197 S.3        1 <1>        0.000
      8 C3          2.3409    1.0939    0.0377 C.2        1 <1>        0.000
      9 S6          2.6043    2.3606   -1.0293 S.2        1 <1>        0.000
     10 O2          2.9401   -0.1266   -0.1639 O.3        1 <1>        0.000
     11 H          -2.7195   -1.4298    0.3880 H.spc      1 <1>        0.000
     12 H           2.6805   -0.7289    0.5371 H.spc      1 <1>        0.000
@<TRIPOS>BOND
     1    1    2 1  
     2    1    7 1  
     3    2    3 1  
     4    3    4 1  
     5    4    5 2  
     6    4    6 1  
     7    7    8 1  
     8    8    9 2  
     9    8   10 1  
    10    6   11 1  
    11   10   12 1  
# Name:          frag3-234-3/31924 -- energy: 0.418682
# Creation time: Sat Jun  5 12:52:32 2010


@<TRIPOS>MOLECULE
frag3-234-3/31924 -- energy: 0.418682
   12    11     1     1     1
SMALL
USER_CHARGES


@<TRIPOS>ATOM
      1 S1         -1.0024   -0.3950    1.0914 S.3        1 <1>        0.000
      2 S2          0.9477   -0.6966    1.0358 S.3        1 <1>        0.000
      3 S3          1.4627    0.4295   -0.5354 S.3        1 <1>        0.000
      4 C1          2.6295    1.4625    0.2127 C.2        1 <1>        0.000
      5 S4          2.2216    2.9224    0.9750 S.2        1 <1>        0.000
      6 O1          3.9212    1.0262    0.2234 O.3        1 <1>        0.000
      7 S5         -1.5940   -1.7381   -0.2599 S.3        1 <1>        0.000
      8 C3         -2.5961   -0.7934   -1.3043 C.2        1 <1>        0.000
      9 S6         -2.7986   -1.1010   -2.9472 S.2        1 <1>        0.000
     10 O2         -3.2402    0.2739   -0.7215 O.3        1 <1>        0.000
     11 H           3.9799    0.1919   -0.2478 H.spc      1 <1>        0.000
     12 H          -3.0200    0.3080    0.2123 H.spc      1 <1>        0.000
@<TRIPOS>BOND
     1    1    2 1  
     2    1    7 1  
     3    2    3 1  
     4    3    4 1  
     5    4    5 2  
     6    4    6 1  
     7    7    8 1  
     8    8    9 2  
     9    8   10 1  
    10    6   11 1  
    11   10   12 1  
# Name:          frag3-234-3/31924 -- energy: -2.084832
# Creation time: Sat Jun  5 12:52:32 2010


@<TRIPOS>MOLECULE
frag3-234-3/31924 -- energy: -2.084832
   12    11     1     1     1
SMALL
USER_CHARGES


@<TRIPOS>ATOM
      1 S1         -1.1114    1.4700    0.1154 S.3        1 <1>        0.000
      2 S2          0.3886    1.9314   -1.0926 S.3        1 <1>        0.000
      3 S3          1.4839    0.2820   -1.0202 S.3        1 <1>        0.000
      4 C1          2.3604    0.5580    0.4553 C.2        1 <1>        0.000
      5 S4          2.0984   -0.2501    1.8969 S.2        1 <1>        0.000
      6 O1          3.2811    1.5805    0.3953 O.3        1 <1>        0.000
      7 S5         -2.3499    0.5723   -1.1585 S.3        1 <1>        0.000
      8 C3         -2.1728   -1.0936   -0.7254 C.2        1 <1>        0.000
      9 S6         -0.9987   -2.1207   -1.3444 S.2        1 <1>        0.000
     10 O2         -3.0279   -1.5393    0.2482 O.3        1 <1>        0.000
     11 H           3.3079    1.9335   -0.4970 H.spc      1 <1>        0.000
     12 H          -3.6323   -0.8335    0.4893 H.spc      1 <1>        0.000
@<TRIPOS>BOND
     1    1    2 1  
     2    1    7 1  
     3    2    3 1  
     4    3    4 1  
     5    4    5 2  
     6    4    6 1  
     7    7    8 1  
     8    8    9 2  
     9    8   10 1  
    10    6   11 1  
    11   10   12 1  
# Name:          frag3-234-3/31924 -- energy: 2.713445
# Creation time: Sat Jun  5 12:52:32 2010


@<TRIPOS>MOLECULE
frag3-234-3/31924 -- energy: 2.713445
   12    11     1     1     1
SMALL
USER_CHARGES


@<TRIPOS>ATOM
      1 S1         -0.9800    0.4246    0.4468 S.3        1 <1>        0.000
      2 S2          0.7082   -0.6488    0.4360 S.3        1 <1>        0.000
      3 S3          1.8066    0.4380    1.6704 S.3        1 <1>        0.000
      4 C1          2.5484    1.5547    0.5555 C.2        1 <1>        0.000
      5 S4          4.0677    2.2398    0.8208 S.2        1 <1>        0.000
      6 O1          1.8576    1.8391   -0.5953 O.3        1 <1>        0.000
      7 S5         -1.5184    0.2564   -1.4501 S.3        1 <1>        0.000
      8 C3         -2.5054   -1.1821   -1.3637 C.2        1 <1>        0.000
      9 S6         -3.9195   -1.3734   -2.2663 S.2        1 <1>        0.000
     10 O2         -2.1136   -2.1579   -0.4841 O.3        1 <1>        0.000
     11 H           1.0190    1.3718   -0.5876 H.spc      1 <1>        0.000
     12 H          -1.2959   -1.8925   -0.0569 H.spc      1 <1>        0.000
@<TRIPOS>BOND
     1    1    2 1  
     2    1    7 1  
     3    2    3 1  
     4    3    4 1  
     5    4    5 2  
     6    4    6 1  
     7    7    8 1  
     8    8    9 2  
     9    8   10 1  
    10    6   11 1  
    11   10   12 1  
# Name:          frag3-234-3/31924 -- energy: -1.532369
# Creation time: Sat Jun  5 12:52:32 2010


@<TRIPOS>MOLECULE
frag3-234-3/31924 -- energy: -1.532369
   12    11     1     1     1
SMALL
USER_CHARGES


@<TRIPOS>ATOM
      1 S1         -0.1369    2.3668    0.3509 S.3        1 <1>        0.000
      2 S2         -1.6612    1.4591   -0.4940 S.3        1 <1>        0.000
      3 S3         -1.8802   -0.1795    0.6161 S.3        1 <1>        0.000
      4 C1         -1.8199   -1.4059   -0.5750 C.2        1 <1>        0.000
      5 S4         -0.4998   -1.6289   -1.6237 S.2        1 <1>        0.000
      6 O1         -2.9240   -2.1840   -0.7276 O.3        1 <1>        0.000
      7 S5          1.3472    1.8593   -0.8464 S.3        1 <1>        0.000
      8 C3          2.2040    0.6812    0.0691 C.2        1 <1>        0.000
      9 S6          3.8670    0.7094    0.2994 S.2        1 <1>        0.000
     10 O2          1.4553   -0.2872    0.7012 O.3        1 <1>        0.000
     11 H          -3.5781   -1.9423   -0.0679 H.spc      1 <1>        0.000
     12 H           0.5296   -0.1737    0.4736 H.spc      1 <1>        0.000
@<TRIPOS>BOND
     1    1    2 1  
     2    1    7 1  
     3    2    3 1  
     4    3    4 1  
     5    4    5 2  
     6    4    6 1  
     7    7    8 1  
     8    8    9 2  
     9    8   10 1  
    10    6   11 1  
    11   10   12 1  
# Name:          frag3-234-3/31924 -- energy: 0.442687
# Creation time: Sat Jun  5 12:52:32 2010


@<TRIPOS>MOLECULE
frag3-234-3/31924 -- energy: 0.442687
   12    11     1     1     1
SMALL
USER_CHARGES


@<TRIPOS>ATOM
      1 S1          0.7524    0.0856   -1.1032 S.3        1 <1>        0.000
      2 S2         -0.8337    0.9272   -0.2120 S.3        1 <1>        0.000
      3 S3         -2.2551    0.3993   -1.4931 S.3        1 <1>        0.000
      4 C1         -2.6341   -1.1902   -0.8639 C.2        1 <1>        0.000
      5 S4         -2.8316   -2.5506   -1.8507 S.2        1 <1>        0.000
      6 O1         -2.7459   -1.2999    0.4951 O.3        1 <1>        0.000
      7 S5          2.0707    1.5525   -0.8805 S.3        1 <1>        0.000
      8 C3          2.6444    1.1986    0.7451 C.2        1 <1>        0.000
      9 S6          3.0578    2.3952    1.8553 S.2        1 <1>        0.000
     10 O2          2.7268   -0.1273    1.0779 O.3        1 <1>        0.000
     11 H          -2.6062   -0.4394    0.8970 H.spc      1 <1>        0.000
     12 H           2.4544   -0.6617    0.3284 H.spc      1 <1>        0.000
@<TRIPOS>BOND
     1    1    2 1  
     2    1    7 1  
     3    2    3 1  
     4    3    4 1  
     5    4    5 2  
     6    4    6 1  
     7    7    8 1  
     8    8    9 2  
     9    8   10 1  
    10    6   11 1  
    11   10   12 1  
# Name:          frag3-234-3/31924 -- energy: -2.426756
# Creation time: Sat Jun  5 12:52:32 2010


@<TRIPOS>MOLECULE
frag3-234-3/31924 -- energy: -2.426756
   12    11     1     1     1
SMALL
USER_CHARGES


@<TRIPOS>ATOM
      1 S1         -0.9461    1.6803   -1.0283 S.3        1 <1>        0.000
      2 S2          0.7777    1.0886   -1.8389 S.3        1 <1>        0.000
      3 S3          2.0985    1.7802   -0.5445 S.3        1 <1>        0.000
      4 C1          2.0516    0.5141    0.6417 C.2        1 <1>        0.000
      5 S4          0.8300    0.3682    1.8126 S.2        1 <1>        0.000
      6 O1          3.0242   -0.4367    0.5664 O.3        1 <1>        0.000
      7 S5         -2.1851    0.2835   -1.6462 S.3        1 <1>        0.000
      8 C3         -1.9958   -0.9128   -0.4038 C.2        1 <1>        0.000
      9 S6         -1.2787   -2.4223   -0.6376 S.2        1 <1>        0.000
     10 O2         -2.4248   -0.5527    0.8485 O.3        1 <1>        0.000
     11 H           3.6348   -0.2131   -0.1399 H.spc      1 <1>        0.000
     12 H          -2.8062    0.3276    0.8140 H.spc      1 <1>        0.000
@<TRIPOS>BOND
     1    1    2 1  
     2    1    7 1  
     3    2    3 1  
     4    3    4 1  
     5    4    5 2  
     6    4    6 1  
     7    7    8 1  
     8    8    9 2  
     9    8   10 1  
    10    6   11 1  
    11   10   12 1  
# Name:          frag3-234-3/31924 -- energy: -1.702071
# Creation time: Sat Jun  5 12:52:32 2010


@<TRIPOS>MOLECULE
frag3-234-3/31924 -- energy: -1.702071
   12    11     1     1     1
SMALL
USER_CHARGES


@<TRIPOS>ATOM
      1 S1         -0.3977    0.5508   -1.1401 S.3        1 <1>        0.000
      2 S2          0.0189    0.4016    0.7969 S.3        1 <1>        0.000
      3 S3          1.9214   -0.1997    0.6617 S.3        1 <1>        0.000
      4 C1          2.6858    1.3614    0.5898 C.2        1 <1>        0.000
      5 S4          2.6967    2.4073    1.9158 S.2        1 <1>        0.000
      6 O1          3.2324    1.7563   -0.5956 O.3        1 <1>        0.000
      7 S5         -0.9087   -1.3491   -1.4900 S.3        1 <1>        0.000
      8 C3         -2.5945   -1.2629   -1.0621 C.2        1 <1>        0.000
      9 S6         -3.7256   -0.4928   -2.0476 S.2        1 <1>        0.000
     10 O2         -2.9773   -1.7827    0.1414 O.3        1 <1>        0.000
     11 H           3.1436    1.0493   -1.2389 H.spc      1 <1>        0.000
     12 H          -2.2181   -2.1824    0.5721 H.spc      1 <1>        0.000
@<TRIPOS>BOND
     1    1    2 1  
     2    1    7 1  
     3    2    3 1  
     4    3    4 1  
     5    4    5 2  
     6    4    6 1  
     7    7    8 1  
     8    8    9 2  
     9    8   10 1  
    10    6   11 1  
    11   10   12 1  
# Name:          frag3-234-3/31924 -- energy: -1.267662
# Creation time: Sat Jun  5 12:52:32 2010


@<TRIPOS>MOLECULE
frag3-234-3/31924 -- energy: -1.267662
   12    11     1     1     1
SMALL
USER_CHARGES


@<TRIPOS>ATOM
      1 S1         -1.4106   -0.6113    1.4377 S.3        1 <1>        0.000
      2 S2          0.3612    0.0117    2.0269 S.3        1 <1>        0.000
      3 S3          1.5151   -0.5565    0.4950 S.3        1 <1>        0.000
      4 C1          2.1904    0.9428   -0.0059 C.2        1 <1>        0.000
      5 S4          1.5308    1.9259   -1.2132 S.2        1 <1>        0.000
      6 O1          3.2972    1.3666    0.6774 O.3        1 <1>        0.000
      7 S5         -1.7433    0.6143   -0.0962 S.3        1 <1>        0.000
      8 C3         -1.8424   -0.4628   -1.4369 C.2        1 <1>        0.000
      9 S6         -2.9266   -0.2717   -2.7060 S.2        1 <1>        0.000
     10 O2         -1.0203   -1.5686   -1.4089 O.3        1 <1>        0.000
     11 H           3.5468    0.7021    1.3237 H.spc      1 <1>        0.000
     12 H          -0.4640   -1.5326   -0.6274 H.spc      1 <1>        0.000
@<TRIPOS>BOND
     1    1    2 1  
     2    1    7 1  
     3    2    3 1  
     4    3    4 1  
     5    4    5 2  
     6    4    6 1  
     7    7    8 1  
     8    8    9 2  
     9    8   10 1  
    10    6   11 1  
    11   10   12 1  
# Name:          frag3-234-3/31924 -- energy: -2.277233
# Creation time: Sat Jun  5 12:52:32 2010


@<TRIPOS>MOLECULE
frag3-234-3/31924 -- energy: -2.277233
   12    11     1     1     1
SMALL
USER_CHARGES


@<TRIPOS>ATOM
      1 S1          0.0361    2.2954   -0.0656 S.3        1 <1>        0.000
      2 S2         -1.1615    0.9713    0.7494 S.3        1 <1>        0.000
      3 S3         -2.3137    0.4621   -0.7976 S.3        1 <1>        0.000
      4 C1         -2.0876   -1.2184   -0.8976 C.2        1 <1>        0.000
      5 S4         -0.6519   -1.9762   -1.3637 S.2        1 <1>        0.000
      6 O1         -3.1246   -1.9958   -0.4705 O.3        1 <1>        0.000
      7 S5          1.2625    1.1133   -1.0990 S.3        1 <1>        0.000
      8 C3          2.3296    0.6401    0.1654 C.2        1 <1>        0.000
      9 S6          3.4069    1.7270    0.8902 S.2        1 <1>        0.000
     10 O2          2.2558   -0.6285    0.6592 O.3        1 <1>        0.000
     11 H          -3.8693   -1.4355   -0.2401 H.spc      1 <1>        0.000
     12 H           1.6098   -1.1295    0.1559 H.spc      1 <1>        0.000
@<TRIPOS>BOND
     1    1    2 1  
     2    1    7 1  
     3    2    3 1  
     4    3    4 1  
     5    4    5 2  
     6    4    6 1  
     7    7    8 1  
     8    8    9 2  
     9    8   10 1  
    10    6   11 1  
    11   10   12 1  
# Name:          frag3-234-3/31924 -- energy: 0.682815
# Creation time: Sat Jun  5 12:52:32 2010


@<TRIPOS>MOLECULE
frag3-234-3/31924 -- energy: 0.682815
   12    11     1     1     1
SMALL
USER_CHARGES


@<TRIPOS>ATOM
      1 S1         -1.2515   -0.3281    1.3068 S.3        1 <1>        0.000
      2 S2         -0.2410    1.2758    0.7366 S.3        1 <1>        0.000
      3 S3          1.5476    0.8533    1.5338 S.3        1 <1>        0.000
      4 C1          2.5832    1.1607    0.1819 C.2        1 <1>        0.000
      5 S4          2.7957    2.7283   -0.4288 S.2        1 <1>        0.000
      6 O1          3.1830    0.1016   -0.4176 O.3        1 <1>        0.000
      7 S5         -0.9106   -1.5328   -0.2349 S.3        1 <1>        0.000
      8 C3         -2.2245   -1.0840   -1.2847 C.2        1 <1>        0.000
      9 S6         -2.1526   -1.1236   -2.9638 S.2        1 <1>        0.000
     10 O2         -3.3777   -0.6607   -0.6593 O.3        1 <1>        0.000
     11 H           2.9568   -0.7027    0.0553 H.spc      1 <1>        0.000
     12 H          -3.2562   -0.6971    0.2923 H.spc      1 <1>        0.000
@<TRIPOS>BOND
     1    1    2 1  
     2    1    7 1  
     3    2    3 1  
     4    3    4 1  
     5    4    5 2  
     6    4    6 1  
     7    7    8 1  
     8    8    9 2  
     9    8   10 1  
    10    6   11 1  
    11   10   12 1  
# Name:          frag3-234-3/31924 -- energy: -0.736207
# Creation time: Sat Jun  5 12:52:32 2010


@<TRIPOS>MOLECULE
frag3-234-3/31924 -- energy: -0.736207
   12    11     1     1     1
SMALL
USER_CHARGES


@<TRIPOS>ATOM
      1 S1         -1.1253    1.1568    0.0425 S.3        1 <1>        0.000
      2 S2          0.5244    1.8091   -0.8245 S.3        1 <1>        0.000
      3 S3          1.7110    0.2058   -0.6534 S.3        1 <1>        0.000
      4 C1          2.7158    0.7545    0.6445 C.2        1 <1>        0.000
      5 S4          2.0949    1.2065    2.1668 S.2        1 <1>        0.000
      6 O1          4.0431    0.8867    0.3964 O.3        1 <1>        0.000
      7 S5         -2.0648    0.3766   -1.5260 S.3        1 <1>        0.000
      8 C3         -2.5291   -1.1801   -0.9558 C.2        1 <1>        0.000
      9 S6         -2.4678   -2.5868   -1.8751 S.2        1 <1>        0.000
     10 O2         -2.9506   -1.2388    0.3545 O.3        1 <1>        0.000
     11 H           4.2313    0.5917   -0.4975 H.spc      1 <1>        0.000
     12 H          -2.9281   -0.3583    0.7364 H.spc      1 <1>        0.000
@<TRIPOS>BOND
     1    1    2 1  
     2    1    7 1  
     3    2    3 1  
     4    3    4 1  
     5    4    5 2  
     6    4    6 1  
     7    7    8 1  
     8    8    9 2  
     9    8   10 1  
    10    6   11 1  
    11   10   12 1  
# Name:          frag3-234-3/31924 -- energy: 1.099261
# Creation time: Sat Jun  5 12:52:32 2010


@<TRIPOS>MOLECULE
frag3-234-3/31924 -- energy: 1.099261
   12    11     1     1     1
SMALL
USER_CHARGES


@<TRIPOS>ATOM
      1 S1         -1.0833    0.3523    0.6319 S.3        1 <1>        0.000
      2 S2          0.5591   -0.1717    1.6182 S.3        1 <1>        0.000
      3 S3          1.4765    1.5900    1.6780 S.3        1 <1>        0.000
      4 C1          2.4020    1.5344    0.2048 C.2        1 <1>        0.000
      5 S4          4.0595    1.8563    0.1603 S.2        1 <1>        0.000
      6 O1          1.7483    1.1610   -0.9388 O.3        1 <1>        0.000
      7 S5         -0.7897   -0.5589   -1.1095 S.3        1 <1>        0.000
      8 C3         -2.3349   -1.2881   -1.3628 C.2        1 <1>        0.000
      9 S6         -3.2447   -1.0301   -2.7640 S.2        1 <1>        0.000
     10 O2         -2.8413   -2.0549   -0.3481 O.3        1 <1>        0.000
     11 H           0.8196    1.0170   -0.7427 H.spc      1 <1>        0.000
     12 H          -2.2024   -2.0997    0.3671 H.spc      1 <1>        0.000
@<TRIPOS>BOND
     1    1    2 1  
     2    1    7 1  
     3    2    3 1  
     4    3    4 1  
     5    4    5 2  
     6    4    6 1  
     7    7    8 1  
     8    8    9 2  
     9    8   10 1  
    10    6   11 1  
    11   10   12 1  
# Name:          frag3-234-3/31924 -- energy: 1.879434
# Creation time: Sat Jun  5 12:52:32 2010


@<TRIPOS>MOLECULE
frag3-234-3/31924 -- energy: 1.879434
   12    11     1     1     1
SMALL
USER_CHARGES


@<TRIPOS>ATOM
      1 S1          0.2950    1.4612   -1.0077 S.3        1 <1>        0.000
      2 S2         -0.9025    0.8648    0.4792 S.3        1 <1>        0.000
      3 S3         -2.5461    0.4809   -0.5288 S.3        1 <1>        0.000
      4 C1         -2.2500   -1.1272   -1.1046 C.2        1 <1>        0.000
      5 S4         -3.4419   -2.3011   -1.2464 S.2        1 <1>        0.000
      6 O1         -0.9435   -1.4531   -1.3992 O.3        1 <1>        0.000
      7 S5          1.8104    0.1997   -0.7846 S.3        1 <1>        0.000
      8 C3          2.4479    0.8247    0.7129 C.2        1 <1>        0.000
      9 S6          3.1996    2.3467    0.8008 S.2        1 <1>        0.000
     10 O2          2.2825    0.0937    1.8483 O.3        1 <1>        0.000
     11 H          -0.3859   -0.6822   -1.2710 H.spc      1 <1>        0.000
     12 H           1.8460   -0.7340    1.6339 H.spc      1 <1>        0.000
@<TRIPOS>BOND
     1    1    2 1  
     2    1    7 1  
     3    2    3 1  
     4    3    4 1  
     5    4    5 2  
     6    4    6 1  
     7    7    8 1  
     8    8    9 2  
     9    8   10 1  
    10    6   11 1  
    11   10   12 1  
# Name:          frag3-234-3/31924 -- energy: 0.680699
# Creation time: Sat Jun  5 12:52:32 2010


@<TRIPOS>MOLECULE
frag3-234-3/31924 -- energy: 0.680699
   12    11     1     1     1
SMALL
USER_CHARGES


@<TRIPOS>ATOM
      1 S1         -0.8754   -0.8738    1.3308 S.3        1 <1>        0.000
      2 S2          1.1020   -0.9111    1.4616 S.3        1 <1>        0.000
      3 S3          1.5117    1.0230    1.5714 S.3        1 <1>        0.000
      4 C1          2.0491    1.3570   -0.0462 C.2        1 <1>        0.000
      5 S4          1.8589    2.8472   -0.8086 S.2        1 <1>        0.000
      6 O1          2.6520    0.3159   -0.7119 O.3        1 <1>        0.000
      7 S5         -1.1720   -1.7399   -0.4275 S.3        1 <1>        0.000
      8 C3         -2.1450   -0.5584   -1.2527 C.2        1 <1>        0.000
      9 S6         -1.8431   -0.0336   -2.8191 S.2        1 <1>        0.000
     10 O2         -3.1866   -0.0358   -0.5276 O.3        1 <1>        0.000
     11 H           2.6805   -0.4545   -0.1398 H.spc      1 <1>        0.000
     12 H          -3.2102   -0.4479    0.3391 H.spc      1 <1>        0.000
@<TRIPOS>BOND
     1    1    2 1  
     2    1    7 1  
     3    2    3 1  
     4    3    4 1  
     5    4    5 2  
     6    4    6 1  
     7    7    8 1  
     8    8    9 2  
     9    8   10 1  
    10    6   11 1  
    11   10   12 1  
# Name:          frag3-234-3/31924 -- energy: 0.675401
# Creation time: Sat Jun  5 12:52:32 2010


@<TRIPOS>MOLECULE
frag3-234-3/31924 -- energy: 0.675401
   12    11     1     1     1
SMALL
USER_CHARGES


@<TRIPOS>ATOM
      1 S1         -1.5334    1.6928   -1.1568 S.3        1 <1>        0.000
      2 S2          0.4429    1.6674   -1.3503 S.3        1 <1>        0.000
      3 S3          1.0323    1.8886    0.5283 S.3        1 <1>        0.000
      4 C1          2.1803    0.5963    0.6964 C.2        1 <1>        0.000
      5 S4          2.2644   -0.4038    2.0426 S.2        1 <1>        0.000
      6 O1          3.0288    0.4117   -0.3673 O.3        1 <1>        0.000
      7 S5         -2.0018   -0.0519   -1.9670 S.3        1 <1>        0.000
      8 C3         -1.8764   -1.1157   -0.5914 C.2        1 <1>        0.000
      9 S6         -1.4367   -2.7387   -0.6986 S.2        1 <1>        0.000
     10 O2         -2.1489   -0.5563    0.6340 O.3        1 <1>        0.000
     11 H           2.8413    1.0680   -1.0424 H.spc      1 <1>        0.000
     12 H          -2.3813    0.3679    0.5181 H.spc      1 <1>        0.000
@<TRIPOS>BOND
     1    1    2 1  
     2    1    7 1  
     3    2    3 1  
     4    3    4 1  
     5    4    5 2  
     6    4    6 1  
     7    7    8 1  
     8    8    9 2  
     9    8   10 1  
    10    6   11 1  
    11   10   12 1  
# Name:          frag3-234-3/31924 -- energy: 1.920631
# Creation time: Sat Jun  5 12:52:32 2010


@<TRIPOS>MOLECULE
frag3-234-3/31924 -- energy: 1.920631
   12    11     1     1     1
SMALL
USER_CHARGES


@<TRIPOS>ATOM
      1 S1         -0.0870    0.6018    0.7662 S.3        1 <1>        0.000
      2 S2          0.1257   -0.8999   -0.5384 S.3        1 <1>        0.000
      3 S3         -1.2540   -0.3379   -1.8658 S.3        1 <1>        0.000
      4 C1         -2.6544   -1.1600   -1.2074 C.2        1 <1>        0.000
      5 S4         -3.7615   -1.9762   -2.1728 S.2        1 <1>        0.000
      6 O1         -2.7900   -1.1490    0.1582 O.3        1 <1>        0.000
      7 S5          1.1213    1.9259   -0.1102 S.3        1 <1>        0.000
      8 C3          2.6396    1.5181    0.6663 C.2        1 <1>        0.000
      9 S6          3.7256    2.6835    1.2009 S.2        1 <1>        0.000
     10 O2          2.8863    0.1841    0.8730 O.3        1 <1>        0.000
     11 H          -2.0746   -0.6393    0.5456 H.spc      1 <1>        0.000
     12 H           2.1667   -0.3340    0.5052 H.spc      1 <1>        0.000
@<TRIPOS>BOND
     1    1    2 1  
     2    1    7 1  
     3    2    3 1  
     4    3    4 1  
     5    4    5 2  
     6    4    6 1  
     7    7    8 1  
     8    8    9 2  
     9    8   10 1  
    10    6   11 1  
    11   10   12 1  
# Name:          frag3-234-3/31924 -- energy: -1.446453
# Creation time: Sat Jun  5 12:52:32 2010


@<TRIPOS>MOLECULE
frag3-234-3/31924 -- energy: -1.446453
   12    11     1     1     1
SMALL
USER_CHARGES


@<TRIPOS>ATOM
      1 S1          0.5330   -0.2109   -0.2216 S.3        1 <1>        0.000
      2 S2         -1.0723   -0.3928    0.9372 S.3        1 <1>        0.000
      3 S3         -2.4340    0.3775   -0.3226 S.3        1 <1>        0.000
      4 C1         -2.5553   -0.9790   -1.4131 C.2        1 <1>        0.000
      5 S4         -3.0374   -2.5198   -0.8602 S.2        1 <1>        0.000
      6 O1         -2.2101   -0.8086   -2.7128 O.3        1 <1>        0.000
      7 S5          1.0515    1.6605    0.2239 S.3        1 <1>        0.000
      8 C3          2.7116    1.4517    0.6467 C.2        1 <1>        0.000
      9 S6          3.9564    2.3406   -0.0665 S.2        1 <1>        0.000
     10 O2          3.0082    0.4712    1.5590 O.3        1 <1>        0.000
     11 H          -1.9660    0.1081   -2.8604 H.spc      1 <1>        0.000
     12 H           2.1945    0.0650    1.8665 H.spc      1 <1>        0.000
@<TRIPOS>BOND
     1    1    2 1  
     2    1    7 1  
     3    2    3 1  
     4    3    4 1  
     5    4    5 2  
     6    4    6 1  
     7    7    8 1  
     8    8    9 2  
     9    8   10 1  
    10    6   11 1  
    11   10   12 1  
# Name:          frag3-234-3/31924 -- energy: -1.660882
# Creation time: Sat Jun  5 12:52:32 2010


@<TRIPOS>MOLECULE
frag3-234-3/31924 -- energy: -1.660882
   12    11     1     1     1
SMALL
USER_CHARGES


@<TRIPOS>ATOM
      1 S1          0.3853    1.7000   -1.1534 S.3        1 <1>        0.000
      2 S2         -1.4889    1.7532   -0.4999 S.3        1 <1>        0.000
      3 S3         -2.3335    0.3660   -1.6125 S.3        1 <1>        0.000
      4 C1         -1.9587   -1.0693   -0.7067 C.2        1 <1>        0.000
      5 S4         -1.3858   -2.4984   -1.3886 S.2        1 <1>        0.000
      6 O1         -2.1284   -0.9829    0.6563 O.3        1 <1>        0.000
      7 S5          1.4185    2.0082    0.5113 S.3        1 <1>        0.000
      8 C3          2.2872    0.5216    0.6300 C.2        1 <1>        0.000
      9 S6          1.5268   -0.9741    0.9105 S.2        1 <1>        0.000
     10 O2          3.6292    0.5661    0.4230 O.3        1 <1>        0.000
     11 H          -2.4587   -0.1102    0.8818 H.spc      1 <1>        0.000
     12 H           3.9000    1.4761    0.2812 H.spc      1 <1>        0.000
@<TRIPOS>BOND
     1    1    2 1  
     2    1    7 1  
     3    2    3 1  
     4    3    4 1  
     5    4    5 2  
     6    4    6 1  
     7    7    8 1  
     8    8    9 2  
     9    8   10 1  
    10    6   11 1  
    11   10   12 1  
# Name:          frag3-234-3/31924 -- energy: -1.984023
# Creation time: Sat Jun  5 12:52:32 2010


@<TRIPOS>MOLECULE
frag3-234-3/31924 -- energy: -1.984023
   12    11     1     1     1
SMALL
USER_CHARGES


@<TRIPOS>ATOM
      1 S1          0.8735   -1.1221    0.4599 S.3        1 <1>        0.000
      2 S2         -0.9441   -1.0312    1.1939 S.3        1 <1>        0.000
      3 S3         -1.7476    0.4681    0.1649 S.3        1 <1>        0.000
      4 C1         -2.3807   -0.4040   -1.1723 C.2        1 <1>        0.000
      5 S4         -1.4724   -0.9866   -2.4735 S.2        1 <1>        0.000
      6 O1         -3.7119   -0.7183   -1.1095 O.3        1 <1>        0.000
      7 S5          1.7742    0.3627    1.4449 S.3        1 <1>        0.000
      8 C3          2.3857    1.3330    0.1725 C.2        1 <1>        0.000
      9 S6          1.4296    2.1257   -0.9613 S.2        1 <1>        0.000
     10 O2          3.7453    1.3632    0.0505 O.3        1 <1>        0.000
     11 H          -4.0962   -0.3228   -0.3237 H.spc      1 <1>        0.000
     12 H           4.1412    0.8674    0.7710 H.spc      1 <1>        0.000
@<TRIPOS>BOND
     1    1    2 1  
     2    1    7 1  
     3    2    3 1  
     4    3    4 1  
     5    4    5 2  
     6    4    6 1  
     7    7    8 1  
     8    8    9 2  
     9    8   10 1  
    10    6   11 1  
    11   10   12 1  
# Name:          frag3-234-3/31924 -- energy: 0.483912
# Creation time: Sat Jun  5 12:52:32 2010


@<TRIPOS>MOLECULE
frag3-234-3/31924 -- energy: 0.483912
   12    11     1     1     1
SMALL
USER_CHARGES


@<TRIPOS>ATOM
      1 S1         -0.2313    1.1777    0.1408 S.3        1 <1>        0.000
      2 S2         -0.7268    0.5870   -1.6883 S.3        1 <1>        0.000
      3 S3         -0.7487   -1.3869   -1.4391 S.3        1 <1>        0.000
      4 C1         -2.3744   -1.5521   -0.8353 C.2        1 <1>        0.000
      5 S4         -3.7242   -1.2578   -1.8329 S.2        1 <1>        0.000
      6 O1         -2.5582   -1.8717    0.4708 O.3        1 <1>        0.000
      7 S5          1.4343    2.1718   -0.2417 S.3        1 <1>        0.000
      8 C3          2.5914    1.3628    0.7526 C.2        1 <1>        0.000
      9 S6          3.9716    2.1058    1.3661 S.2        1 <1>        0.000
     10 O2          2.3178    0.0538    1.0770 O.3        1 <1>        0.000
     11 H          -1.7047   -2.0049    0.8896 H.spc      1 <1>        0.000
     12 H           1.5019   -0.2168    0.6496 H.spc      1 <1>        0.000
@<TRIPOS>BOND
     1    1    2 1  
     2    1    7 1  
     3    2    3 1  
     4    3    4 1  
     5    4    5 2  
     6    4    6 1  
     7    7    8 1  
     8    8    9 2  
     9    8   10 1  
    10    6   11 1  
    11   10   12 1  
# Name:          frag3-234-3/31924 -- energy: -1.990508
# Creation time: Sat Jun  5 12:52:32 2010


@<TRIPOS>MOLECULE
frag3-234-3/31924 -- energy: -1.990508
   12    11     1     1     1
SMALL
USER_CHARGES


@<TRIPOS>ATOM
      1 S1         -1.0205    1.1470    0.2850 S.3        1 <1>        0.000
      2 S2          0.1815   -0.1745    1.1636 S.3        1 <1>        0.000
      3 S3          1.6280   -0.4004   -0.1585 S.3        1 <1>        0.000
      4 C1          2.5886    0.9807    0.2427 C.2        1 <1>        0.000
      5 S4          2.2322    2.5683   -0.2263 S.2        1 <1>        0.000
      6 O1          3.6574    0.7607    1.0666 O.3        1 <1>        0.000
      7 S5         -2.6870    0.0952    0.1867 S.3        1 <1>        0.000
      8 C3         -2.3327   -0.9505   -1.1581 C.2        1 <1>        0.000
      9 S6         -2.2170   -0.3709   -2.7362 S.2        1 <1>        0.000
     10 O2         -2.0789   -2.2653   -0.8955 O.3        1 <1>        0.000
     11 H           3.7346   -0.1795    1.2447 H.spc      1 <1>        0.000
     12 H          -2.1883   -2.4297    0.0440 H.spc      1 <1>        0.000
@<TRIPOS>BOND
     1    1    2 1  
     2    1    7 1  
     3    2    3 1  
     4    3    4 1  
     5    4    5 2  
     6    4    6 1  
     7    7    8 1  
     8    8    9 2  
     9    8   10 1  
    10    6   11 1  
    11   10   12 1  
# Name:          frag3-234-3/31924 -- energy: 0.616057
# Creation time: Sat Jun  5 12:52:32 2010


@<TRIPOS>MOLECULE
frag3-234-3/31924 -- energy: 0.616057
   12    11     1     1     1
SMALL
USER_CHARGES


@<TRIPOS>ATOM
      1 S1         -0.8291    0.3517    0.6536 S.3        1 <1>        0.000
      2 S2          0.7285   -0.6997   -0.0506 S.3        1 <1>        0.000
      3 S3          2.1394   -0.0822    1.1999 S.3        1 <1>        0.000
      4 C1          2.5990    1.4096    0.4049 C.2        1 <1>        0.000
      5 S4          3.0045    2.8181    1.2488 S.2        1 <1>        0.000
      6 O1          2.5977    1.3998   -0.9640 O.3        1 <1>        0.000
      7 S5         -2.2510   -1.0229    0.4891 S.3        1 <1>        0.000
      8 C3         -2.5846   -0.9015   -1.2365 C.2        1 <1>        0.000
      9 S6         -2.8914   -2.2425   -2.2090 S.2        1 <1>        0.000
     10 O2         -2.5614    0.3601   -1.7663 O.3        1 <1>        0.000
     11 H           2.3463    0.5275   -1.2764 H.spc      1 <1>        0.000
     12 H          -2.3730    0.9946   -1.0709 H.spc      1 <1>        0.000
@<TRIPOS>BOND
     1    1    2 1  
     2    1    7 1  
     3    2    3 1  
     4    3    4 1  
     5    4    5 2  
     6    4    6 1  
     7    7    8 1  
     8    8    9 2  
     9    8   10 1  
    10    6   11 1  
    11   10   12 1  
# Name:          frag3-234-3/31924 -- energy: -0.431542
# Creation time: Sat Jun  5 12:52:32 2010


@<TRIPOS>MOLECULE
frag3-234-3/31924 -- energy: -0.431542
   12    11     1     1     1
SMALL
USER_CHARGES


@<TRIPOS>ATOM
      1 S1          0.7368   -0.1271   -0.3411 S.3        1 <1>        0.000
      2 S2         -0.9640    0.7759   -0.7984 S.3        1 <1>        0.000
      3 S3         -2.2390   -0.3160    0.2991 S.3        1 <1>        0.000
      4 C1         -2.9304   -1.2710   -0.9727 C.2        1 <1>        0.000
      5 S4         -1.9915   -2.2792   -1.9793 S.2        1 <1>        0.000
      6 O1         -4.2622   -1.1490   -1.1961 O.3        1 <1>        0.000
      7 S5          1.3424    1.0189    1.1681 S.3        1 <1>        0.000
      8 C3          2.9494    1.4108    0.6691 C.2        1 <1>        0.000
      9 S6          3.6521    2.9299    0.8552 S.2        1 <1>        0.000
     10 O2          3.6580    0.3972    0.0662 O.3        1 <1>        0.000
     11 H          -4.6408   -0.5505   -0.5479 H.spc      1 <1>        0.000
     12 H           3.1187   -0.3965    0.0390 H.spc      1 <1>        0.000
@<TRIPOS>BOND
     1    1    2 1  
     2    1    7 1  
     3    2    3 1  
     4    3    4 1  
     5    4    5 2  
     6    4    6 1  
     7    7    8 1  
     8    8    9 2  
     9    8   10 1  
    10    6   11 1  
    11   10   12 1  
# Name:          frag3-234-3/31924 -- energy: -1.786069
# Creation time: Sat Jun  5 12:52:32 2010


@<TRIPOS>MOLECULE
frag3-234-3/31924 -- energy: -1.786069
   12    11     1     1     1
SMALL
USER_CHARGES


@<TRIPOS>ATOM
      1 S1          0.6232    0.9908   -1.1410 S.3        1 <1>        0.000
      2 S2         -1.2537    1.5169   -0.8466 S.3        1 <1>        0.000
      3 S3         -2.1540    0.2299   -2.0653 S.3        1 <1>        0.000
      4 C1         -2.2522   -1.1643   -1.0483 C.2        1 <1>        0.000
      5 S4         -3.3622   -1.2650    0.2312 S.2        1 <1>        0.000
      6 O1         -1.3639   -2.1809   -1.2396 O.3        1 <1>        0.000
      7 S5          1.0629   -0.0385    0.5083 S.3        1 <1>        0.000
      8 C3          2.4810    0.7835    1.0048 C.2        1 <1>        0.000
      9 S6          2.5713    2.4773    1.1583 S.2        1 <1>        0.000
     10 O2          3.5992    0.0406    1.2081 O.3        1 <1>        0.000
     11 H          -0.8072   -1.9799   -1.9955 H.spc      1 <1>        0.000
     12 H           3.3911   -0.8887    1.0868 H.spc      1 <1>        0.000
@<TRIPOS>BOND
     1    1    2 1  
     2    1    7 1  
     3    2    3 1  
     4    3    4 1  
     5    4    5 2  
     6    4    6 1  
     7    7    8 1  
     8    8    9 2  
     9    8   10 1  
    10    6   11 1  
    11   10   12 1  
# Name:          frag3-234-3/31924 -- energy: -1.095571
# Creation time: Sat Jun  5 12:52:32 2010


@<TRIPOS>MOLECULE
frag3-234-3/31924 -- energy: -1.095571
   12    11     1     1     1
SMALL
USER_CHARGES


@<TRIPOS>ATOM
      1 S1          0.3636    1.0445   -0.7733 S.3        1 <1>        0.000
      2 S2         -1.3851    1.2387    0.1437 S.3        1 <1>        0.000
      3 S3         -2.5992    0.5878   -1.2749 S.3        1 <1>        0.000
      4 C1         -2.4832   -1.1344   -1.0596 C.2        1 <1>        0.000
      5 S4         -2.2757   -2.2336   -2.3194 S.2        1 <1>        0.000
      6 O1         -2.5399   -1.5861    0.2384 O.3        1 <1>        0.000
      7 S5          1.3697   -0.1164    0.4941 S.3        1 <1>        0.000
      8 C3          2.7894    0.8435    0.7051 C.2        1 <1>        0.000
      9 S6          2.7392    2.4397    1.3003 S.2        1 <1>        0.000
     10 O2          3.9729    0.3067    0.3157 O.3        1 <1>        0.000
     11 H          -2.6602   -0.8402    0.8306 H.spc      1 <1>        0.000
     12 H           3.8299   -0.5915    0.0085 H.spc      1 <1>        0.000
@<TRIPOS>BOND
     1    1    2 1  
     2    1    7 1  
     3    2    3 1  
     4    3    4 1  
     5    4    5 2  
     6    4    6 1  
     7    7    8 1  
     8    8    9 2  
     9    8   10 1  
    10    6   11 1  
    11   10   12 1  
# Name:          frag3-234-3/31924 -- energy: -1.581517
# Creation time: Sat Jun  5 12:52:32 2010


@<TRIPOS>MOLECULE
frag3-234-3/31924 -- energy: -1.581517
   12    11     1     1     1
SMALL
USER_CHARGES


@<TRIPOS>ATOM
      1 S1         -0.8721    0.8333   -0.0928 S.3        1 <1>        0.000
      2 S2          0.7386   -0.0443   -0.8619 S.3        1 <1>        0.000
      3 S3          2.0139    1.4632   -0.9105 S.3        1 <1>        0.000
      4 C1          2.8136    1.2019    0.6015 C.2        1 <1>        0.000
      5 S4          2.1630    1.6428    2.1043 S.2        1 <1>        0.000
      6 O1          4.0046    0.5358    0.5578 O.3        1 <1>        0.000
      7 S5         -2.2194    0.4424   -1.4938 S.3        1 <1>        0.000
      8 C3         -2.7940   -1.0822   -0.9012 C.2        1 <1>        0.000
      9 S6         -1.8327   -2.4836   -0.8194 S.2        1 <1>        0.000
     10 O2         -4.0639   -1.1189   -0.4139 O.3        1 <1>        0.000
     11 H           4.2374    0.3584   -0.3565 H.spc      1 <1>        0.000
     12 H          -4.4753   -0.2594   -0.5308 H.spc      1 <1>        0.000
@<TRIPOS>BOND
     1    1    2 1  
     2    1    7 1  
     3    2    3 1  
     4    3    4 1  
     5    4    5 2  
     6    4    6 1  
     7    7    8 1  
     8    8    9 2  
     9    8   10 1  
    10    6   11 1  
    11   10   12 1  
# Name:          frag3-234-3/31924 -- energy: -1.537016
# Creation time: Sat Jun  5 12:52:32 2010


@<TRIPOS>MOLECULE
frag3-234-3/31924 -- energy: -1.537016
   12    11     1     1     1
SMALL
USER_CHARGES


@<TRIPOS>ATOM
      1 S1          0.2869   -0.0197    0.3091 S.3        1 <1>        0.000
      2 S2         -1.4051    1.0083    0.3679 S.3        1 <1>        0.000
      3 S3         -2.1433    0.5193   -1.4169 S.3        1 <1>        0.000
      4 C1         -2.5824   -1.1354   -1.0992 C.2        1 <1>        0.000
      5 S4         -1.7611   -2.4736   -1.7215 S.2        1 <1>        0.000
      6 O1         -3.6316   -1.3281   -0.2368 O.3        1 <1>        0.000
      7 S5          1.4779    1.2821   -0.6394 S.3        1 <1>        0.000
      8 C3          2.8653    1.2059    0.3674 C.2        1 <1>        0.000
      9 S6          2.8137    1.5296    2.0387 S.2        1 <1>        0.000
     10 O2          4.0314    0.8021   -0.1992 O.3        1 <1>        0.000
     11 H          -3.9897   -0.4767    0.0250 H.spc      1 <1>        0.000
     12 H           3.8973    0.6618   -1.1394 H.spc      1 <1>        0.000
@<TRIPOS>BOND
     1    1    2 1  
     2    1    7 1  
     3    2    3 1  
     4    3    4 1  
     5    4    5 2  
     6    4    6 1  
     7    7    8 1  
     8    8    9 2  
     9    8   10 1  
    10    6   11 1  
    11   10   12 1  
# Name:          frag3-234-3/31924 -- energy: -0.911651
# Creation time: Sat Jun  5 12:52:32 2010


@<TRIPOS>MOLECULE
frag3-234-3/31924 -- energy: -0.911651
   12    11     1     1     1
SMALL
USER_CHARGES


@<TRIPOS>ATOM
      1 S1         -1.3579    1.2776    0.7585 S.3        1 <1>        0.000
      2 S2         -0.0866    2.2224   -0.4586 S.3        1 <1>        0.000
      3 S3          1.5861    2.1194    0.5931 S.3        1 <1>        0.000
      4 C1          1.9767    0.4424    0.3529 C.2        1 <1>        0.000
      5 S4          2.4497   -0.1549   -1.1686 S.2        1 <1>        0.000
      6 O1          1.8421   -0.4184    1.3963 O.3        1 <1>        0.000
      7 S5         -2.5171    0.3500   -0.5261 S.3        1 <1>        0.000
      8 C3         -1.5800   -1.0626   -0.9033 C.2        1 <1>        0.000
      9 S6         -1.6025   -1.8601   -2.3800 S.2        1 <1>        0.000
     10 O2         -0.7588   -1.5254    0.1057 O.3        1 <1>        0.000
     11 H           1.5721    0.0683    2.1785 H.spc      1 <1>        0.000
     12 H          -0.8592   -0.9669    0.8800 H.spc      1 <1>        0.000
@<TRIPOS>BOND
     1    1    2 1  
     2    1    7 1  
     3    2    3 1  
     4    3    4 1  
     5    4    5 2  
     6    4    6 1  
     7    7    8 1  
     8    8    9 2  
     9    8   10 1  
    10    6   11 1  
    11   10   12 1  
# Name:          frag3-234-3/31924 -- energy: -0.347176
# Creation time: Sat Jun  5 12:52:32 2010


@<TRIPOS>MOLECULE
frag3-234-3/31924 -- energy: -0.347176
   12    11     1     1     1
SMALL
USER_CHARGES


@<TRIPOS>ATOM
      1 S1         -1.4607    1.3924   -1.0265 S.3        1 <1>        0.000
      2 S2         -0.3043    1.3986    0.5784 S.3        1 <1>        0.000
      3 S3          1.4096    2.0443   -0.2300 S.3        1 <1>        0.000
      4 C1          2.5472    0.9785    0.5106 C.2        1 <1>        0.000
      5 S4          2.9568    1.1157    2.1469 S.2        1 <1>        0.000
      6 O1          3.0717   -0.0201   -0.2481 O.3        1 <1>        0.000
      7 S5         -0.9686   -0.3752   -1.7935 S.3        1 <1>        0.000
      8 C3         -2.0685   -1.4035   -0.9249 C.2        1 <1>        0.000
      9 S6         -3.1481   -2.4452   -1.6890 S.2        1 <1>        0.000
     10 O2         -2.0835   -1.2951    0.4461 O.3        1 <1>        0.000
     11 H           2.7358    0.0506   -1.1446 H.spc      1 <1>        0.000
     12 H          -1.4135   -0.6661    0.7236 H.spc      1 <1>        0.000
@<TRIPOS>BOND
     1    1    2 1  
     2    1    7 1  
     3    2    3 1  
     4    3    4 1  
     5    4    5 2  
     6    4    6 1  
     7    7    8 1  
     8    8    9 2  
     9    8   10 1  
    10    6   11 1  
    11   10   12 1  
# Name:          frag3-234-3/31924 -- energy: -1.171342
# Creation time: Sat Jun  5 12:52:32 2010


@<TRIPOS>MOLECULE
frag3-234-3/31924 -- energy: -1.171342
   12    11     1     1     1
SMALL
USER_CHARGES


@<TRIPOS>ATOM
      1 S1          0.5564    0.0036   -0.1727 S.3        1 <1>        0.000
      2 S2         -1.0217    0.9361   -0.9491 S.3        1 <1>        0.000
      3 S3         -1.6583   -0.4872   -2.1868 S.3        1 <1>        0.000
      4 C1         -2.6821   -1.3717   -1.0802 C.2        1 <1>        0.000
      5 S4         -4.3729   -1.2326   -1.1257 S.2        1 <1>        0.000
      6 O1         -2.0826   -2.1451   -0.1311 O.3        1 <1>        0.000
      7 S5          1.9938    1.2999   -0.6205 S.3        1 <1>        0.000
      8 C3          2.8384    1.3779    0.8930 C.2        1 <1>        0.000
      9 S6          3.1617    2.8271    1.7020 S.2        1 <1>        0.000
     10 O2          3.2189    0.1824    1.4411 O.3        1 <1>        0.000
     11 H          -1.1303   -2.1127   -0.2482 H.spc      1 <1>        0.000
     12 H           2.9604   -0.5334    0.8559 H.spc      1 <1>        0.000
@<TRIPOS>BOND
     1    1    2 1  
     2    1    7 1  
     3    2    3 1  
     4    3    4 1  
     5    4    5 2  
     6    4    6 1  
     7    7    8 1  
     8    8    9 2  
     9    8   10 1  
    10    6   11 1  
    11   10   12 1  
# Name:          frag3-234-3/31924 -- energy: -2.858374
# Creation time: Sat Jun  5 12:52:32 2010


@<TRIPOS>MOLECULE
frag3-234-3/31924 -- energy: -2.858374
   12    11     1     1     1
SMALL
USER_CHARGES


@<TRIPOS>ATOM
      1 S1         -0.5476   -1.6071    1.0832 S.3        1 <1>        0.000
      2 S2          0.3844   -0.1300    2.0197 S.3        1 <1>        0.000
      3 S3          2.0939   -0.0383    1.0455 S.3        1 <1>        0.000
      4 C1          1.6715    0.9713   -0.2964 C.2        1 <1>        0.000
      5 S4          1.5979    2.6462   -0.1765 S.2        1 <1>        0.000
      6 O1          1.3039    0.3548   -1.4644 O.3        1 <1>        0.000
      7 S5         -2.1632   -0.7107    0.4026 S.3        1 <1>        0.000
      8 C3         -1.6338   -0.1304   -1.1277 C.2        1 <1>        0.000
      9 S6         -1.6728   -1.0817   -2.5230 S.2        1 <1>        0.000
     10 O2         -1.0826    1.1163   -1.1931 O.3        1 <1>        0.000
     11 H           1.4032   -0.5952   -1.3685 H.spc      1 <1>        0.000
     12 H          -1.1323    1.5326   -0.3295 H.spc      1 <1>        0.000
@<TRIPOS>BOND
     1    1    2 1  
     2    1    7 1  
     3    2    3 1  
     4    3    4 1  
     5    4    5 2  
     6    4    6 1  
     7    7    8 1  
     8    8    9 2  
     9    8   10 1  
    10    6   11 1  
    11   10   12 1  
# Name:          frag3-234-3/31924 -- energy: -0.921945
# Creation time: Sat Jun  5 12:52:32 2010


@<TRIPOS>MOLECULE
frag3-234-3/31924 -- energy: -0.921945
   12    11     1     1     1
SMALL
USER_CHARGES


@<TRIPOS>ATOM
      1 S1          0.1948   -0.0957    0.9637 S.3        1 <1>        0.000
      2 S2         -1.7151    0.4149    0.8062 S.3        1 <1>        0.000
      3 S3         -1.8494    0.5266   -1.1866 S.3        1 <1>        0.000
      4 C1         -2.2312   -1.1404   -1.5296 C.2        1 <1>        0.000
      5 S4         -3.8077   -1.6352   -1.9114 S.2        1 <1>        0.000
      6 O1         -1.2310   -2.0626   -1.4252 O.3        1 <1>        0.000
      7 S5          1.0427    1.7087    0.8507 S.3        1 <1>        0.000
      8 C3          2.6920    1.3070    0.5418 C.2        1 <1>        0.000
      9 S6          3.6558    2.1307   -0.5725 S.2        1 <1>        0.000
     10 O2          3.2006    0.2365    1.2329 O.3        1 <1>        0.000
     11 H          -0.4090   -1.6180   -1.2053 H.spc      1 <1>        0.000
     12 H           2.5265   -0.1134    1.8200 H.spc      1 <1>        0.000
@<TRIPOS>BOND
     1    1    2 1  
     2    1    7 1  
     3    2    3 1  
     4    3    4 1  
     5    4    5 2  
     6    4    6 1  
     7    7    8 1  
     8    8    9 2  
     9    8   10 1  
    10    6   11 1  
    11   10   12 1  
# Name:          frag3-234-3/31924 -- energy: -2.390980
# Creation time: Sat Jun  5 12:52:32 2010


@<TRIPOS>MOLECULE
frag3-234-3/31924 -- energy: -2.390980
   12    11     1     1     1
SMALL
USER_CHARGES


@<TRIPOS>ATOM
      1 S1          0.1365    2.1544   -0.6470 S.3        1 <1>        0.000
      2 S2         -1.3300    1.4826   -1.7660 S.3        1 <1>        0.000
      3 S3         -2.4957    0.5918   -0.4268 S.3        1 <1>        0.000
      4 C1         -1.7710   -0.9674   -0.3544 C.2        1 <1>        0.000
      5 S4         -1.3883   -1.8484   -1.7632 S.2        1 <1>        0.000
      6 O1         -1.4545   -1.4981    0.8510 O.3        1 <1>        0.000
      7 S5          1.6422    0.9444   -1.0402 S.3        1 <1>        0.000
      8 C3          2.1082    0.3765    0.4956 C.2        1 <1>        0.000
      9 S6          1.6312   -1.0834    1.1784 S.2        1 <1>        0.000
     10 O2          2.8729    1.2380    1.2426 O.3        1 <1>        0.000
     11 H          -1.7276   -0.8953    1.5464 H.spc      1 <1>        0.000
     12 H           3.0663    2.0232    0.7252 H.spc      1 <1>        0.000
@<TRIPOS>BOND
     1    1    2 1  
     2    1    7 1  
     3    2    3 1  
     4    3    4 1  
     5    4    5 2  
     6    4    6 1  
     7    7    8 1  
     8    8    9 2  
     9    8   10 1  
    10    6   11 1  
    11   10   12 1  
# Name:          frag3-234-3/31924 -- energy: 0.797900
# Creation time: Sat Jun  5 12:52:32 2010


@<TRIPOS>MOLECULE
frag3-234-3/31924 -- energy: 0.797900
   12    11     1     1     1
SMALL
USER_CHARGES


@<TRIPOS>ATOM
      1 S1         -1.1504    0.5712    0.0368 S.3        1 <1>        0.000
      2 S2          0.6291   -0.2368    0.3477 S.3        1 <1>        0.000
      3 S3          1.7779    1.1219   -0.5544 S.3        1 <1>        0.000
      4 C1          2.8852    1.5092    0.7172 C.2        1 <1>        0.000
      5 S4          3.5927    3.0258    0.9152 S.2        1 <1>        0.000
      6 O1          3.1727    0.4961    1.6014 O.3        1 <1>        0.000
      7 S5         -1.5254   -0.1952   -1.7838 S.3        1 <1>        0.000
      8 C3         -2.7371   -1.3586   -1.3435 C.2        1 <1>        0.000
      9 S6         -4.2052   -0.8701   -0.6198 S.2        1 <1>        0.000
     10 O2         -2.4880   -2.6730   -1.5468 O.3        1 <1>        0.000
     11 H           2.6913   -0.2948    1.3477 H.spc      1 <1>        0.000
     12 H          -1.6270   -2.7743   -1.9591 H.spc      1 <1>        0.000
@<TRIPOS>BOND
     1    1    2 1  
     2    1    7 1  
     3    2    3 1  
     4    3    4 1  
     5    4    5 2  
     6    4    6 1  
     7    7    8 1  
     8    8    9 2  
     9    8   10 1  
    10    6   11 1  
    11   10   12 1  
# Name:          frag3-234-3/31924 -- energy: -0.855928
# Creation time: Sat Jun  5 12:52:32 2010


@<TRIPOS>MOLECULE
frag3-234-3/31924 -- energy: -0.855928
   12    11     1     1     1
SMALL
USER_CHARGES


@<TRIPOS>ATOM
      1 S1         -0.4992    0.4193   -1.8453 S.3        1 <1>        0.000
      2 S2          0.6379   -0.2645   -0.3702 S.3        1 <1>        0.000
      3 S3          0.9330    1.4232    0.6511 S.3        1 <1>        0.000
      4 C1          2.6325    1.3606    0.9200 C.2        1 <1>        0.000
      5 S4          3.6641    2.6812    0.7593 S.2        1 <1>        0.000
      6 O1          3.1456    0.1289    1.2581 O.3        1 <1>        0.000
      7 S5         -2.2329    0.5537   -0.8341 S.3        1 <1>        0.000
      8 C3         -2.6611   -1.1365   -0.8326 C.2        1 <1>        0.000
      9 S6         -2.9478   -1.9793   -2.2870 S.2        1 <1>        0.000
     10 O2         -2.7204   -1.7962    0.3508 O.3        1 <1>        0.000
     11 H           2.4317   -0.5110    1.3087 H.spc      1 <1>        0.000
     12 H          -2.5363   -1.1838    1.0668 H.spc      1 <1>        0.000
@<TRIPOS>BOND
     1    1    2 1  
     2    1    7 1  
     3    2    3 1  
     4    3    4 1  
     5    4    5 2  
     6    4    6 1  
     7    7    8 1  
     8    8    9 2  
     9    8   10 1  
    10    6   11 1  
    11   10   12 1  
# Name:          frag3-234-3/31924 -- energy: 0.919169
# Creation time: Sat Jun  5 12:52:32 2010


@<TRIPOS>MOLECULE
frag3-234-3/31924 -- energy: 0.919169
   12    11     1     1     1
SMALL
USER_CHARGES


@<TRIPOS>ATOM
      1 S1         -1.1768    0.8475    0.6775 S.3        1 <1>        0.000
      2 S2          0.3151   -0.4693    0.8886 S.3        1 <1>        0.000
      3 S3          1.5085    0.0749   -0.5825 S.3        1 <1>        0.000
      4 C1          2.4307    1.3183    0.2060 C.2        1 <1>        0.000
      5 S4          4.0632    1.5895   -0.0797 S.2        1 <1>        0.000
      6 O1          1.7748    2.0706    1.1591 O.3        1 <1>        0.000
      7 S5         -2.6828   -0.4163    0.4023 S.3        1 <1>        0.000
      8 C3         -2.2284   -1.0884   -1.1515 C.2        1 <1>        0.000
      9 S6         -2.2825   -0.1670   -2.5681 S.2        1 <1>        0.000
     10 O2         -1.7702   -2.3693   -1.1819 O.3        1 <1>        0.000
     11 H           0.8554    1.7980    1.2033 H.spc      1 <1>        0.000
     12 H          -1.8077   -2.7424   -0.2982 H.spc      1 <1>        0.000
@<TRIPOS>BOND
     1    1    2 1  
     2    1    7 1  
     3    2    3 1  
     4    3    4 1  
     5    4    5 2  
     6    4    6 1  
     7    7    8 1  
     8    8    9 2  
     9    8   10 1  
    10    6   11 1  
    11   10   12 1  
# Name:          frag3-234-3/31924 -- energy: 2.065371
# Creation time: Sat Jun  5 12:52:32 2010


@<TRIPOS>MOLECULE
frag3-234-3/31924 -- energy: 2.065371
   12    11     1     1     1
SMALL
USER_CHARGES


@<TRIPOS>ATOM
      1 S1         -1.4765   -0.4445    1.4488 S.3        1 <1>        0.000
      2 S2          0.0410    0.8175    1.5332 S.3        1 <1>        0.000
      3 S3          1.3518   -0.0798    0.3304 S.3        1 <1>        0.000
      4 C1          2.4726    1.1938    0.0151 C.2        1 <1>        0.000
      5 S4          4.0766    0.9260   -0.4323 S.2        1 <1>        0.000
      6 O1          2.0071    2.4759    0.1726 O.3        1 <1>        0.000
      7 S5         -2.4476    0.2822   -0.1344 S.3        1 <1>        0.000
      8 C3         -2.1312   -0.9405   -1.3290 C.2        1 <1>        0.000
      9 S6         -1.7910   -0.6011   -2.9469 S.2        1 <1>        0.000
     10 O2         -2.1511   -2.2392   -0.8875 O.3        1 <1>        0.000
     11 H           1.0817    2.4502    0.4266 H.spc      1 <1>        0.000
     12 H          -2.3591   -2.2543    0.0496 H.spc      1 <1>        0.000
@<TRIPOS>BOND
     1    1    2 1  
     2    1    7 1  
     3    2    3 1  
     4    3    4 1  
     5    4    5 2  
     6    4    6 1  
     7    7    8 1  
     8    8    9 2  
     9    8   10 1  
    10    6   11 1  
    11   10   12 1  
# Name:          frag3-234-3/31924 -- energy: -1.747961
# Creation time: Sat Jun  5 12:52:32 2010


@<TRIPOS>MOLECULE
frag3-234-3/31924 -- energy: -1.747961
   12    11     1     1     1
SMALL
USER_CHARGES


@<TRIPOS>ATOM
      1 S1         -1.1482    1.2201    0.1123 S.3        1 <1>        0.000
      2 S2          0.4474    1.7152   -0.9197 S.3        1 <1>        0.000
      3 S3          1.6249    0.1288   -0.7202 S.3        1 <1>        0.000
      4 C1          2.6666    0.7001    0.5143 C.2        1 <1>        0.000
      5 S4          2.1618    1.1070    2.0824 S.2        1 <1>        0.000
      6 O1          3.9656    0.9269    0.1649 O.3        1 <1>        0.000
      7 S5         -2.3402    0.5093   -1.3120 S.3        1 <1>        0.000
      8 C3         -2.4897   -1.1441   -0.8698 C.2        1 <1>        0.000
      9 S6         -1.2179   -2.2448   -0.8677 S.2        1 <1>        0.000
     10 O2         -3.7187   -1.5282   -0.4144 O.3        1 <1>        0.000
     11 H           4.1044    0.6500   -0.7438 H.spc      1 <1>        0.000
     12 H          -4.3287   -0.7900   -0.4818 H.spc      1 <1>        0.000
@<TRIPOS>BOND
     1    1    2 1  
     2    1    7 1  
     3    2    3 1  
     4    3    4 1  
     5    4    5 2  
     6    4    6 1  
     7    7    8 1  
     8    8    9 2  
     9    8   10 1  
    10    6   11 1  
    11   10   12 1  
# Name:          frag3-234-3/31924 -- energy: -0.439154
# Creation time: Sat Jun  5 12:52:32 2010


@<TRIPOS>MOLECULE
frag3-234-3/31924 -- energy: -0.439154
   12    11     1     1     1
SMALL
USER_CHARGES


@<TRIPOS>ATOM
      1 S1         -1.3883    0.4146    0.8955 S.3        1 <1>        0.000
      2 S2          0.1751    0.7505   -0.2804 S.3        1 <1>        0.000
      3 S3          1.6558    0.0801    0.8928 S.3        1 <1>        0.000
      4 C1          2.8996    1.1900    0.4601 C.2        1 <1>        0.000
      5 S4          2.7927    2.8566    0.7970 S.2        1 <1>        0.000
      6 O1          3.9626    0.7065   -0.2317 O.3        1 <1>        0.000
      7 S5         -1.8183   -1.4435    0.3197 S.3        1 <1>        0.000
      8 C3         -2.5823   -1.1139   -1.2168 C.2        1 <1>        0.000
      9 S6         -2.3545   -2.0475   -2.6011 S.2        1 <1>        0.000
     10 O2         -3.3910   -0.0031   -1.2650 O.3        1 <1>        0.000
     11 H           3.8702   -0.2434   -0.3355 H.spc      1 <1>        0.000
     12 H          -3.4136    0.4126   -0.4000 H.spc      1 <1>        0.000
@<TRIPOS>BOND
     1    1    2 1  
     2    1    7 1  
     3    2    3 1  
     4    3    4 1  
     5    4    5 2  
     6    4    6 1  
     7    7    8 1  
     8    8    9 2  
     9    8   10 1  
    10    6   11 1  
    11   10   12 1  
# Name:          frag3-234-3/31924 -- energy: -0.553347
# Creation time: Sat Jun  5 12:52:32 2010


@<TRIPOS>MOLECULE
frag3-234-3/31924 -- energy: -0.553347
   12    11     1     1     1
SMALL
USER_CHARGES


@<TRIPOS>ATOM
      1 S1         -0.1684    0.6056    1.1900 S.3        1 <1>        0.000
      2 S2         -0.9837    1.2008   -0.5386 S.3        1 <1>        0.000
      3 S3         -2.7178    0.2444   -0.4428 S.3        1 <1>        0.000
      4 C1         -2.2353   -1.2823   -1.1422 C.2        1 <1>        0.000
      5 S4         -2.5383   -1.6487   -2.7726 S.2        1 <1>        0.000
      6 O1         -1.5566   -2.1635   -0.3565 O.3        1 <1>        0.000
      7 S5          1.3215    1.8968    1.3400 S.3        1 <1>        0.000
      8 C3          2.5633    1.0442    0.4526 C.2        1 <1>        0.000
      9 S6          3.6762    1.8115   -0.5600 S.2        1 <1>        0.000
     10 O2          2.5906   -0.3185    0.6003 O.3        1 <1>        0.000
     11 H          -1.4735   -1.8026    0.5292 H.spc      1 <1>        0.000
     12 H           1.8961   -0.5876    1.2060 H.spc      1 <1>        0.000
@<TRIPOS>BOND
     1    1    2 1  
     2    1    7 1  
     3    2    3 1  
     4    3    4 1  
     5    4    5 2  
     6    4    6 1  
     7    7    8 1  
     8    8    9 2  
     9    8   10 1  
    10    6   11 1  
    11   10   12 1  
# Name:          frag3-234-3/31924 -- energy: -1.463666
# Creation time: Sat Jun  5 12:52:32 2010


@<TRIPOS>MOLECULE
frag3-234-3/31924 -- energy: -1.463666
   12    11     1     1     1
SMALL
USER_CHARGES


@<TRIPOS>ATOM
      1 S1         -1.0031   -1.1821    1.2629 S.3        1 <1>        0.000
      2 S2          0.8553   -0.6081    1.5945 S.3        1 <1>        0.000
      3 S3          0.7751    1.3003    1.0280 S.3        1 <1>        0.000
      4 C1          2.1959    1.4445    0.0597 C.2        1 <1>        0.000
      5 S4          2.2207    2.1405   -1.4753 S.2        1 <1>        0.000
      6 O1          3.3486    0.9182    0.5927 O.3        1 <1>        0.000
      7 S5         -0.9135   -1.6498   -0.6754 S.3        1 <1>        0.000
      8 C3         -2.1782   -0.6574   -1.3351 C.2        1 <1>        0.000
      9 S6         -1.8955    0.6837   -2.3103 S.2        1 <1>        0.000
     10 O2         -3.4536   -0.9993   -0.9716 O.3        1 <1>        0.000
     11 H           3.1636    0.5643    1.4657 H.spc      1 <1>        0.000
     12 H          -3.4282   -1.7840   -0.4192 H.spc      1 <1>        0.000
@<TRIPOS>BOND
     1    1    2 1  
     2    1    7 1  
     3    2    3 1  
     4    3    4 1  
     5    4    5 2  
     6    4    6 1  
     7    7    8 1  
     8    8    9 2  
     9    8   10 1  
    10    6   11 1  
    11   10   12 1  
# Name:          frag3-234-3/31924 -- energy: 0.997434
# Creation time: Sat Jun  5 12:52:32 2010


@<TRIPOS>MOLECULE
frag3-234-3/31924 -- energy: 0.997434
   12    11     1     1     1
SMALL
USER_CHARGES


@<TRIPOS>ATOM
      1 S1         -0.3618   -0.7335    0.5708 S.3        1 <1>        0.000
      2 S2         -0.1328    1.1964    1.0062 S.3        1 <1>        0.000
      3 S3          1.1139    1.7462   -0.4253 S.3        1 <1>        0.000
      4 C1          2.6381    1.2947    0.3112 C.2        1 <1>        0.000
      5 S4          3.9564    2.3298    0.3802 S.2        1 <1>        0.000
      6 O1          2.6987    0.0493    0.8892 O.3        1 <1>        0.000
      7 S5         -2.3373   -0.8212    0.4089 S.3        1 <1>        0.000
      8 C3         -2.5167   -1.0695   -1.2947 C.2        1 <1>        0.000
      9 S6         -2.4542   -2.6229   -1.9798 S.2        1 <1>        0.000
     10 O2         -2.6527    0.0210   -2.0967 O.3        1 <1>        0.000
     11 H           1.8636   -0.4051    0.7560 H.spc      1 <1>        0.000
     12 H          -2.6709    0.8141   -1.5561 H.spc      1 <1>        0.000
@<TRIPOS>BOND
     1    1    2 1  
     2    1    7 1  
     3    2    3 1  
     4    3    4 1  
     5    4    5 2  
     6    4    6 1  
     7    7    8 1  
     8    8    9 2  
     9    8   10 1  
    10    6   11 1  
    11   10   12 1  
# Name:          frag3-234-3/31924 -- energy: -0.869314
# Creation time: Sat Jun  5 12:52:32 2010


@<TRIPOS>MOLECULE
frag3-234-3/31924 -- energy: -0.869314
   12    11     1     1     1
SMALL
USER_CHARGES


@<TRIPOS>ATOM
      1 S1         -1.0366   -0.0649    1.1887 S.3        1 <1>        0.000
      2 S2          0.7268   -0.1220    2.0930 S.3        1 <1>        0.000
      3 S3          1.4485    1.6440    1.5075 S.3        1 <1>        0.000
      4 C1          2.1432    1.2268   -0.0374 C.2        1 <1>        0.000
      5 S4          2.1200    2.2466   -1.3807 S.2        1 <1>        0.000
      6 O1          2.7156   -0.0189   -0.1299 O.3        1 <1>        0.000
      7 S5         -0.5411   -0.6771   -0.6472 S.3        1 <1>        0.000
      8 C3         -2.0901   -0.9276   -1.3564 C.2        1 <1>        0.000
      9 S6         -2.5744   -0.1822   -2.7939 S.2        1 <1>        0.000
     10 O2         -2.9603   -1.7343   -0.6737 O.3        1 <1>        0.000
     11 H           2.6449   -0.4660    0.7167 H.spc      1 <1>        0.000
     12 H          -2.5290   -2.0743    0.1137 H.spc      1 <1>        0.000
@<TRIPOS>BOND
     1    1    2 1  
     2    1    7 1  
     3    2    3 1  
     4    3    4 1  
     5    4    5 2  
     6    4    6 1  
     7    7    8 1  
     8    8    9 2  
     9    8   10 1  
    10    6   11 1  
    11   10   12 1  
# Name:          frag3-234-3/31924 -- energy: -1.885089
# Creation time: Sat Jun  5 12:52:32 2010


@<TRIPOS>MOLECULE
frag3-234-3/31924 -- energy: -1.885089
   12    11     1     1     1
SMALL
USER_CHARGES


@<TRIPOS>ATOM
      1 S1          0.5576   -0.5433    0.7564 S.3        1 <1>        0.000
      2 S2         -1.0881    0.5572    0.8771 S.3        1 <1>        0.000
      3 S3         -2.4877   -0.8120    0.5946 S.3        1 <1>        0.000
      4 C1         -2.5498   -0.8653   -1.1303 C.2        1 <1>        0.000
      5 S4         -1.4022   -1.6493   -2.1013 S.2        1 <1>        0.000
      6 O1         -3.5532   -0.1574   -1.7291 O.3        1 <1>        0.000
      7 S5          1.5275    0.2855   -0.7596 S.3        1 <1>        0.000
      8 C3          2.6862    1.2274    0.1198 C.2        1 <1>        0.000
      9 S6          2.2907    2.5810    1.0446 S.2        1 <1>        0.000
     10 O2          3.9706    0.7668    0.0979 O.3        1 <1>        0.000
     11 H          -4.1190    0.2261   -1.0551 H.spc      1 <1>        0.000
     12 H           4.0234   -0.0037   -0.4724 H.spc      1 <1>        0.000
@<TRIPOS>BOND
     1    1    2 1  
     2    1    7 1  
     3    2    3 1  
     4    3    4 1  
     5    4    5 2  
     6    4    6 1  
     7    7    8 1  
     8    8    9 2  
     9    8   10 1  
    10    6   11 1  
    11   10   12 1  
# Name:          frag3-234-3/31924 -- energy: -1.961745
# Creation time: Sat Jun  5 12:52:32 2010


@<TRIPOS>MOLECULE
frag3-234-3/31924 -- energy: -1.961745
   12    11     1     1     1
SMALL
USER_CHARGES


@<TRIPOS>ATOM
      1 S1          0.4886    0.1655    1.9341 S.3        1 <1>        0.000
      2 S2         -1.2976   -0.5228    1.5185 S.3        1 <1>        0.000
      3 S3         -1.8385    0.6241   -0.0122 S.3        1 <1>        0.000
      4 C1         -2.0838   -0.5061   -1.2769 C.2        1 <1>        0.000
      5 S4         -1.3652   -0.4398   -2.7922 S.2        1 <1>        0.000
      6 O1         -2.9138   -1.5649   -0.9704 O.3        1 <1>        0.000
      7 S5          1.5690   -0.5247    0.3922 S.3        1 <1>        0.000
      8 C3          2.3045    0.9119   -0.1812 C.2        1 <1>        0.000
      9 S6          1.4277    2.2656   -0.7174 S.2        1 <1>        0.000
     10 O2          3.6608    0.9816   -0.1245 O.3        1 <1>        0.000
     11 H          -3.2450   -1.4617   -0.0753 H.spc      1 <1>        0.000
     12 H           4.0100    0.1463    0.1948 H.spc      1 <1>        0.000
@<TRIPOS>BOND
     1    1    2 1  
     2    1    7 1  
     3    2    3 1  
     4    3    4 1  
     5    4    5 2  
     6    4    6 1  
     7    7    8 1  
     8    8    9 2  
     9    8   10 1  
    10    6   11 1  
    11   10   12 1  
# Name:          frag3-234-3/31924 -- energy: 2.045976
# Creation time: Sat Jun  5 12:52:32 2010


@<TRIPOS>MOLECULE
frag3-234-3/31924 -- energy: 2.045976
   12    11     1     1     1
SMALL
USER_CHARGES


@<TRIPOS>ATOM
      1 S1         -0.8845    1.3064   -0.7271 S.3        1 <1>        0.000
      2 S2          0.7534    0.4453   -1.4995 S.3        1 <1>        0.000
      3 S3          2.1481    1.6668   -0.8059 S.3        1 <1>        0.000
      4 C1          2.3861    0.9791    0.7857 C.2        1 <1>        0.000
      5 S4          2.7324    1.9110    2.1532 S.2        1 <1>        0.000
      6 O1          2.2632   -0.3810    0.8897 O.3        1 <1>        0.000
      7 S5         -2.2881    0.2882   -1.6822 S.3        1 <1>        0.000
      8 C3         -2.3539   -1.1528   -0.6878 C.2        1 <1>        0.000
      9 S6         -2.7668   -2.6758   -1.2923 S.2        1 <1>        0.000
     10 O2         -2.0382   -0.9969    0.6362 O.3        1 <1>        0.000
     11 H           2.0673   -0.7505    0.0256 H.spc      1 <1>        0.000
     12 H          -1.8304   -0.0756    0.8081 H.spc      1 <1>        0.000
@<TRIPOS>BOND
     1    1    2 1  
     2    1    7 1  
     3    2    3 1  
     4    3    4 1  
     5    4    5 2  
     6    4    6 1  
     7    7    8 1  
     8    8    9 2  
     9    8   10 1  
    10    6   11 1  
    11   10   12 1  
# Name:          frag3-234-3/31924 -- energy: 2.042683
# Creation time: Sat Jun  5 12:52:32 2010


@<TRIPOS>MOLECULE
frag3-234-3/31924 -- energy: 2.042683
   12    11     1     1     1
SMALL
USER_CHARGES


@<TRIPOS>ATOM
      1 S1         -0.0235    1.3277    0.0657 S.3        1 <1>        0.000
      2 S2         -1.4380    0.3416    1.0464 S.3        1 <1>        0.000
      3 S3         -2.8405    0.2815   -0.3493 S.3        1 <1>        0.000
      4 C1         -2.3285   -1.0840   -1.3001 C.2        1 <1>        0.000
      5 S4         -2.7920   -1.3482   -2.8956 S.2        1 <1>        0.000
      6 O1         -1.4904   -1.9801   -0.6741 O.3        1 <1>        0.000
      7 S5          1.4370   -0.0276    0.0131 S.3        1 <1>        0.000
      8 C3          2.7633    0.9466    0.5356 C.2        1 <1>        0.000
      9 S6          3.3748    2.2063   -0.4368 S.2        1 <1>        0.000
     10 O2          3.2893    0.7265    1.7651 O.3        1 <1>        0.000
     11 H          -1.3241   -1.6868    0.2247 H.spc      1 <1>        0.000
     12 H           2.8365   -0.0125    2.1780 H.spc      1 <1>        0.000
@<TRIPOS>BOND
     1    1    2 1  
     2    1    7 1  
     3    2    3 1  
     4    3    4 1  
     5    4    5 2  
     6    4    6 1  
     7    7    8 1  
     8    8    9 2  
     9    8   10 1  
    10    6   11 1  
    11   10   12 1  
# Name:          frag3-234-3/31924 -- energy: 1.753264
# Creation time: Sat Jun  5 12:52:32 2010


@<TRIPOS>MOLECULE
frag3-234-3/31924 -- energy: 1.753264
   12    11     1     1     1
SMALL
USER_CHARGES


@<TRIPOS>ATOM
      1 S1          0.2288    2.2167   -0.5332 S.3        1 <1>        0.000
      2 S2         -1.0590    1.0366    0.3988 S.3        1 <1>        0.000
      3 S3         -2.1697    0.4339   -1.1314 S.3        1 <1>        0.000
      4 C1         -2.1849   -1.2754   -0.9524 C.2        1 <1>        0.000
      5 S4         -2.5359   -2.3613   -2.1816 S.2        1 <1>        0.000
      6 O1         -1.8739   -1.7508    0.3076 O.3        1 <1>        0.000
      7 S5          1.6168    0.8700   -1.0422 S.3        1 <1>        0.000
      8 C3          2.4024    0.7060    0.5142 C.2        1 <1>        0.000
      9 S6          3.3016    1.9697    1.1903 S.2        1 <1>        0.000
     10 O2          2.2254   -0.4549    1.1998 O.3        1 <1>        0.000
     11 H          -1.6997   -1.0107    0.8937 H.spc      1 <1>        0.000
     12 H           1.6952   -1.0582    0.6739 H.spc      1 <1>        0.000
@<TRIPOS>BOND
     1    1    2 1  
     2    1    7 1  
     3    2    3 1  
     4    3    4 1  
     5    4    5 2  
     6    4    6 1  
     7    7    8 1  
     8    8    9 2  
     9    8   10 1  
    10    6   11 1  
    11   10   12 1  
# Name:          frag3-234-3/31924 -- energy: -2.540659
# Creation time: Sat Jun  5 12:52:32 2010


@<TRIPOS>MOLECULE
frag3-234-3/31924 -- energy: -2.540659
   12    11     1     1     1
SMALL
USER_CHARGES


@<TRIPOS>ATOM
      1 S1         -0.5274    0.7798   -2.2097 S.3        1 <1>        0.000
      2 S2          0.1305    2.0872   -0.8868 S.3        1 <1>        0.000
      3 S3          2.0242    1.6212   -0.6714 S.3        1 <1>        0.000
      4 C1          1.9363    0.4106    0.5345 C.2        1 <1>        0.000
      5 S4          1.1659    0.6677    2.0261 S.2        1 <1>        0.000
      6 O1          2.4434   -0.8230    0.2812 O.3        1 <1>        0.000
      7 S5         -2.2786    0.2654   -1.5044 S.3        1 <1>        0.000
      8 C3         -1.8343   -0.8316   -0.2607 C.2        1 <1>        0.000
      9 S6         -1.1307   -2.3366   -0.5784 S.2        1 <1>        0.000
     10 O2         -1.9777   -0.4502    1.0396 O.3        1 <1>        0.000
     11 H           2.8476   -0.8290   -0.5896 H.spc      1 <1>        0.000
     12 H          -2.3875    0.4173    1.0741 H.spc      1 <1>        0.000
@<TRIPOS>BOND
     1    1    2 1  
     2    1    7 1  
     3    2    3 1  
     4    3    4 1  
     5    4    5 2  
     6    4    6 1  
     7    7    8 1  
     8    8    9 2  
     9    8   10 1  
    10    6   11 1  
    11   10   12 1  
# Name:          frag3-234-3/31924 -- energy: 1.899556
# Creation time: Sat Jun  5 12:52:32 2010


@<TRIPOS>MOLECULE
frag3-234-3/31924 -- energy: 1.899556
   12    11     1     1     1
SMALL
USER_CHARGES


@<TRIPOS>ATOM
      1 S1          1.0906   -0.6239    1.6525 S.3        1 <1>        0.000
      2 S2         -0.8385   -0.7264    1.2226 S.3        1 <1>        0.000
      3 S3         -0.8024   -1.5118   -0.6005 S.3        1 <1>        0.000
      4 C1         -2.2333   -0.8518   -1.3015 C.2        1 <1>        0.000
      5 S4         -2.3495   -0.3805   -2.9168 S.2        1 <1>        0.000
      6 O1         -3.3057   -0.6892   -0.4593 O.3        1 <1>        0.000
      7 S5          1.3689    1.3387    1.5547 S.3        1 <1>        0.000
      8 C3          2.0868    1.5159   -0.0194 C.2        1 <1>        0.000
      9 S6          3.1523    2.7630   -0.4097 S.2        1 <1>        0.000
     10 O2          1.7823    0.5563   -0.9525 O.3        1 <1>        0.000
     11 H          -3.0739   -1.0057    0.4169 H.spc      1 <1>        0.000
     12 H           1.1668   -0.0746   -0.5720 H.spc      1 <1>        0.000
@<TRIPOS>BOND
     1    1    2 1  
     2    1    7 1  
     3    2    3 1  
     4    3    4 1  
     5    4    5 2  
     6    4    6 1  
     7    7    8 1  
     8    8    9 2  
     9    8   10 1  
    10    6   11 1  
    11   10   12 1  
# Name:          frag3-234-3/31924 -- energy: 0.662284
# Creation time: Sat Jun  5 12:52:33 2010


@<TRIPOS>MOLECULE
frag3-234-3/31924 -- energy: 0.662284
   12    11     1     1     1
SMALL
USER_CHARGES


@<TRIPOS>ATOM
      1 S1         -0.0116    0.3821    1.2047 S.3        1 <1>        0.000
      2 S2         -1.3151    1.3432    0.0605 S.3        1 <1>        0.000
      3 S3         -2.7646    0.0005    0.0104 S.3        1 <1>        0.000
      4 C1         -2.2339   -1.0490   -1.2600 C.2        1 <1>        0.000
      5 S4         -3.1321   -1.3388   -2.6519 S.2        1 <1>        0.000
      6 O1         -0.9842   -1.6110   -1.1391 O.3        1 <1>        0.000
      7 S5          1.3935   -0.1498   -0.1024 S.3        1 <1>        0.000
      8 C3          2.6677    0.9076    0.3953 C.2        1 <1>        0.000
      9 S6          2.5838    2.5902    0.2764 S.2        1 <1>        0.000
     10 O2          3.7480    0.3153    0.9760 O.3        1 <1>        0.000
     11 H          -0.6000   -1.3560   -0.2971 H.spc      1 <1>        0.000
     12 H           3.6353   -0.6380    0.9612 H.spc      1 <1>        0.000
@<TRIPOS>BOND
     1    1    2 1  
     2    1    7 1  
     3    2    3 1  
     4    3    4 1  
     5    4    5 2  
     6    4    6 1  
     7    7    8 1  
     8    8    9 2  
     9    8   10 1  
    10    6   11 1  
    11   10   12 1  
# Name:          frag3-234-3/31924 -- energy: 2.218400
# Creation time: Sat Jun  5 12:52:33 2010


@<TRIPOS>MOLECULE
frag3-234-3/31924 -- energy: 2.218400
   12    11     1     1     1
SMALL
USER_CHARGES


@<TRIPOS>ATOM
      1 S1          0.2967    1.0504   -0.6965 S.3        1 <1>        0.000
      2 S2         -0.8644    0.1727    0.6730 S.3        1 <1>        0.000
      3 S3         -2.6128    0.2879   -0.2327 S.3        1 <1>        0.000
      4 C1         -2.5371   -1.1031   -1.2787 C.2        1 <1>        0.000
      5 S4         -3.8780   -2.0593   -1.6351 S.2        1 <1>        0.000
      6 O1         -1.3037   -1.4403   -1.7828 O.3        1 <1>        0.000
      7 S5          1.9936    0.0586   -0.4231 S.3        1 <1>        0.000
      8 C3          2.7335    1.1009    0.7604 C.2        1 <1>        0.000
      9 S6          3.3790    2.6157    0.3262 S.2        1 <1>        0.000
     10 O2          2.7448    0.7069    2.0593 O.3        1 <1>        0.000
     11 H          -0.6528   -0.7989   -1.4886 H.spc      1 <1>        0.000
     12 H           2.3470   -0.1638    2.1319 H.spc      1 <1>        0.000
@<TRIPOS>BOND
     1    1    2 1  
     2    1    7 1  
     3    2    3 1  
     4    3    4 1  
     5    4    5 2  
     6    4    6 1  
     7    7    8 1  
     8    8    9 2  
     9    8   10 1  
    10    6   11 1  
    11   10   12 1  
# Name:          frag3-234-3/31924 -- energy: -1.779855
# Creation time: Sat Jun  5 12:52:33 2010


@<TRIPOS>MOLECULE
frag3-234-3/31924 -- energy: -1.779855
   12    11     1     1     1
SMALL
USER_CHARGES


@<TRIPOS>ATOM
      1 S1         -0.6013    0.9320   -1.2941 S.3        1 <1>        0.000
      2 S2          0.6976   -0.3412   -0.5215 S.3        1 <1>        0.000
      3 S3          1.0598    0.5108    1.2525 S.3        1 <1>        0.000
      4 C1          2.5729    1.2275    0.9254 C.2        1 <1>        0.000
      5 S4          2.8690    2.3170   -0.3404 S.2        1 <1>        0.000
      6 O1          3.6265    0.8047    1.6765 O.3        1 <1>        0.000
      7 S5         -2.1947    0.4321   -0.1956 S.3        1 <1>        0.000
      8 C3         -2.5842   -1.0827   -0.9522 C.2        1 <1>        0.000
      9 S6         -3.1738   -1.1797   -2.5226 S.2        1 <1>        0.000
     10 O2         -2.3201   -2.2302   -0.2579 O.3        1 <1>        0.000
     11 H           3.3140    0.1965    2.3504 H.spc      1 <1>        0.000
     12 H          -1.9924   -2.0058    0.6161 H.spc      1 <1>        0.000
@<TRIPOS>BOND
     1    1    2 1  
     2    1    7 1  
     3    2    3 1  
     4    3    4 1  
     5    4    5 2  
     6    4    6 1  
     7    7    8 1  
     8    8    9 2  
     9    8   10 1  
    10    6   11 1  
    11   10   12 1  
# Name:          frag3-234-3/31924 -- energy: -1.844378
# Creation time: Sat Jun  5 12:52:33 2010


@<TRIPOS>MOLECULE
frag3-234-3/31924 -- energy: -1.844378
   12    11     1     1     1
SMALL
USER_CHARGES


@<TRIPOS>ATOM
      1 S1         -0.0356    1.8789    1.4417 S.3        1 <1>        0.000
      2 S2         -1.6857    1.0618    0.7558 S.3        1 <1>        0.000
      3 S3         -1.1719   -0.8648    0.5906 S.3        1 <1>        0.000
      4 C1         -1.7359   -1.2313   -0.9945 C.2        1 <1>        0.000
      5 S4         -1.1122   -0.5146   -2.3900 S.2        1 <1>        0.000
      6 O1         -2.7936   -2.0846   -1.0789 O.3        1 <1>        0.000
      7 S5          1.0308    2.0673   -0.2207 S.3        1 <1>        0.000
      8 C3          2.1577    0.7667   -0.1093 C.2        1 <1>        0.000
      9 S6          2.5963   -0.2485   -1.3697 S.2        1 <1>        0.000
     10 O2          2.7017    0.5597    1.1449 O.3        1 <1>        0.000
     11 H          -3.0200   -2.3997   -0.2008 H.spc      1 <1>        0.000
     12 H           2.3564    1.2160    1.7545 H.spc      1 <1>        0.000
@<TRIPOS>BOND
     1    1    2 1  
     2    1    7 1  
     3    2    3 1  
     4    3    4 1  
     5    4    5 2  
     6    4    6 1  
     7    7    8 1  
     8    8    9 2  
     9    8   10 1  
    10    6   11 1  
    11   10   12 1  
# Name:          frag3-234-3/31924 -- energy: 0.570907
# Creation time: Sat Jun  5 12:52:33 2010


@<TRIPOS>MOLECULE
frag3-234-3/31924 -- energy: 0.570907
   12    11     1     1     1
SMALL
USER_CHARGES


@<TRIPOS>ATOM
      1 S1          0.5744    0.1159   -0.8150 S.3        1 <1>        0.000
      2 S2         -1.0556    0.7472    0.1592 S.3        1 <1>        0.000
      3 S3         -2.4111    0.4502   -1.2712 S.3        1 <1>        0.000
      4 C1         -2.5225   -1.2991   -1.1499 C.2        1 <1>        0.000
      5 S4         -3.1936   -2.0453    0.2183 S.2        1 <1>        0.000
      6 O1         -2.0051   -2.0443   -2.1591 O.3        1 <1>        0.000
      7 S5          1.6994    1.7364   -0.6611 S.3        1 <1>        0.000
      8 C3          2.6280    1.3401    0.7601 C.2        1 <1>        0.000
      9 S6          4.2099    1.8682    1.0021 S.2        1 <1>        0.000
     10 O2          2.0279    0.5211    1.6868 O.3        1 <1>        0.000
     11 H          -1.6716   -1.4628   -2.8463 H.spc      1 <1>        0.000
     12 H           1.1354    0.3147    1.3995 H.spc      1 <1>        0.000
@<TRIPOS>BOND
     1    1    2 1  
     2    1    7 1  
     3    2    3 1  
     4    3    4 1  
     5    4    5 2  
     6    4    6 1  
     7    7    8 1  
     8    8    9 2  
     9    8   10 1  
    10    6   11 1  
    11   10   12 1  
# Name:          frag3-234-3/31924 -- energy: -0.851308
# Creation time: Sat Jun  5 12:52:33 2010


@<TRIPOS>MOLECULE
frag3-234-3/31924 -- energy: -0.851308
   12    11     1     1     1
SMALL
USER_CHARGES


@<TRIPOS>ATOM
      1 S1         -0.9675    1.2178   -1.6982 S.3        1 <1>        0.000
      2 S2         -0.2494    2.2483   -0.1579 S.3        1 <1>        0.000
      3 S3          1.6852    2.0784   -0.4359 S.3        1 <1>        0.000
      4 C1          2.0334    0.5940    0.3840 C.2        1 <1>        0.000
      5 S4          3.3613    0.3765    1.3892 S.2        1 <1>        0.000
      6 O1          1.1241   -0.4307    0.2371 O.3        1 <1>        0.000
      7 S5         -2.5058    0.2888   -0.8688 S.3        1 <1>        0.000
      8 C3         -1.7627   -1.2039   -0.4125 C.2        1 <1>        0.000
      9 S6         -1.1320   -2.2784   -1.5742 S.2        1 <1>        0.000
     10 O2         -1.6351   -1.5004    0.9072 O.3        1 <1>        0.000
     11 H           0.4281   -0.1556   -0.3641 H.spc      1 <1>        0.000
     12 H          -2.0375   -0.8037    1.4309 H.spc      1 <1>        0.000
@<TRIPOS>BOND
     1    1    2 1  
     2    1    7 1  
     3    2    3 1  
     4    3    4 1  
     5    4    5 2  
     6    4    6 1  
     7    7    8 1  
     8    8    9 2  
     9    8   10 1  
    10    6   11 1  
    11   10   12 1  
# Name:          frag3-234-3/31924 -- energy: -1.147924
# Creation time: Sat Jun  5 12:52:33 2010


@<TRIPOS>MOLECULE
frag3-234-3/31924 -- energy: -1.147924
   12    11     1     1     1
SMALL
USER_CHARGES


@<TRIPOS>ATOM
      1 S1          0.4996   -0.1398    1.2605 S.3        1 <1>        0.000
      2 S2         -1.2588    0.3165    0.4766 S.3        1 <1>        0.000
      3 S3         -1.0582   -0.4340   -1.3567 S.3        1 <1>        0.000
      4 C1         -2.5589   -1.2853   -1.4981 C.2        1 <1>        0.000
      5 S4         -3.8927   -0.6159   -2.3085 S.2        1 <1>        0.000
      6 O1         -2.6682   -2.4975   -0.8869 O.3        1 <1>        0.000
      7 S5          1.3023    1.6751    1.4134 S.3        1 <1>        0.000
      8 C3          2.7793    1.4780    0.5297 C.2        1 <1>        0.000
      9 S6          3.2102    2.4382   -0.7924 S.2        1 <1>        0.000
     10 O2          3.5970    0.4552    0.9326 O.3        1 <1>        0.000
     11 H          -1.8293   -2.7263   -0.4800 H.spc      1 <1>        0.000
     12 H           3.2066    0.0147    1.6910 H.spc      1 <1>        0.000
@<TRIPOS>BOND
     1    1    2 1  
     2    1    7 1  
     3    2    3 1  
     4    3    4 1  
     5    4    5 2  
     6    4    6 1  
     7    7    8 1  
     8    8    9 2  
     9    8   10 1  
    10    6   11 1  
    11   10   12 1  
# Name:          frag3-234-3/31924 -- energy: -1.561802
# Creation time: Sat Jun  5 12:52:33 2010


@<TRIPOS>MOLECULE
frag3-234-3/31924 -- energy: -1.561802
   12    11     1     1     1
SMALL
USER_CHARGES


@<TRIPOS>ATOM
      1 S1          0.0250    1.3387   -0.5271 S.3        1 <1>        0.000
      2 S2         -1.7720    1.1460    0.2793 S.3        1 <1>        0.000
      3 S3         -1.7897   -0.8266    0.6087 S.3        1 <1>        0.000
      4 C1         -2.3154   -1.3672   -0.9591 C.2        1 <1>        0.000
      5 S4         -1.2692   -1.9892   -2.1368 S.2        1 <1>        0.000
      6 O1         -3.6443   -1.2148   -1.2424 O.3        1 <1>        0.000
      7 S5          1.1585    1.2184    1.1224 S.3        1 <1>        0.000
      8 C3          2.7212    1.0134    0.4405 C.2        1 <1>        0.000
      9 S6          3.6639    2.3293   -0.0731 S.2        1 <1>        0.000
     10 O2          3.1736   -0.2576    0.2576 O.3        1 <1>        0.000
     11 H          -4.0945   -0.8538   -0.4752 H.spc      1 <1>        0.000
     12 H           2.5269   -0.8787    0.6005 H.spc      1 <1>        0.000
@<TRIPOS>BOND
     1    1    2 1  
     2    1    7 1  
     3    2    3 1  
     4    3    4 1  
     5    4    5 2  
     6    4    6 1  
     7    7    8 1  
     8    8    9 2  
     9    8   10 1  
    10    6   11 1  
    11   10   12 1  
# Name:          frag3-234-3/31924 -- energy: -0.832968
# Creation time: Sat Jun  5 12:52:33 2010


@<TRIPOS>MOLECULE
frag3-234-3/31924 -- energy: -0.832968
   12    11     1     1     1
SMALL
USER_CHARGES


@<TRIPOS>ATOM
      1 S1         -1.4282    1.4754   -1.2344 S.3        1 <1>        0.000
      2 S2          0.2618    2.4018   -0.9318 S.3        1 <1>        0.000
      3 S3          1.5933    0.9657   -1.2896 S.3        1 <1>        0.000
      4 C1          2.0433    0.4869    0.2889 C.2        1 <1>        0.000
      5 S4          2.9599    1.4840    1.3038 S.2        1 <1>        0.000
      6 O1          1.5917   -0.6985    0.7818 O.3        1 <1>        0.000
      7 S5         -1.6431    0.3392    0.3903 S.3        1 <1>        0.000
      8 C3         -1.8001   -1.2229   -0.2596 C.2        1 <1>        0.000
      9 S6         -0.6085   -2.0234   -1.1534 S.2        1 <1>        0.000
     10 O2         -3.0184   -1.8178   -0.1261 O.3        1 <1>        0.000
     11 H           1.0909   -1.1562    0.1026 H.spc      1 <1>        0.000
     12 H          -3.5914   -1.2563    0.4012 H.spc      1 <1>        0.000
@<TRIPOS>BOND
     1    1    2 1  
     2    1    7 1  
     3    2    3 1  
     4    3    4 1  
     5    4    5 2  
     6    4    6 1  
     7    7    8 1  
     8    8    9 2  
     9    8   10 1  
    10    6   11 1  
    11   10   12 1  
# Name:          frag3-234-3/31924 -- energy: -0.367586
# Creation time: Sat Jun  5 12:52:33 2010


@<TRIPOS>MOLECULE
frag3-234-3/31924 -- energy: -0.367586
   12    11     1     1     1
SMALL
USER_CHARGES


@<TRIPOS>ATOM
      1 S1         -0.1060    1.9956    0.8475 S.3        1 <1>        0.000
      2 S2         -1.5654    0.6685    1.0072 S.3        1 <1>        0.000
      3 S3         -2.1839    0.5225   -0.8655 S.3        1 <1>        0.000
      4 C1         -1.9618   -1.1688   -1.1924 C.2        1 <1>        0.000
      5 S4         -1.4958   -1.7813   -2.6811 S.2        1 <1>        0.000
      6 O1         -2.1832   -2.0121   -0.1271 O.3        1 <1>        0.000
      7 S5          1.4227    0.9617    1.5834 S.3        1 <1>        0.000
      8 C3          2.3714    0.7225    0.1536 C.2        1 <1>        0.000
      9 S6          3.4923    1.8850   -0.3753 S.2        1 <1>        0.000
     10 O2          2.1614   -0.4032   -0.5802 O.3        1 <1>        0.000
     11 H          -2.4409   -1.4958    0.6401 H.spc      1 <1>        0.000
     12 H           1.5032   -0.9496   -0.1446 H.spc      1 <1>        0.000
@<TRIPOS>BOND
     1    1    2 1  
     2    1    7 1  
     3    2    3 1  
     4    3    4 1  
     5    4    5 2  
     6    4    6 1  
     7    7    8 1  
     8    8    9 2  
     9    8   10 1  
    10    6   11 1  
    11   10   12 1  
# Name:          frag3-234-3/31924 -- energy: -1.460368
# Creation time: Sat Jun  5 12:52:33 2010


@<TRIPOS>MOLECULE
frag3-234-3/31924 -- energy: -1.460368
   12    11     1     1     1
SMALL
USER_CHARGES


@<TRIPOS>ATOM
      1 S1          0.3938    0.0716    1.4863 S.3        1 <1>        0.000
      2 S2         -1.5754   -0.0527    1.3811 S.3        1 <1>        0.000
      3 S3         -1.7707   -1.6898    0.2539 S.3        1 <1>        0.000
      4 C1         -2.2450   -0.9863   -1.2602 C.2        1 <1>        0.000
      5 S4         -1.1760   -0.7532   -2.5545 S.2        1 <1>        0.000
      6 O1         -3.5403   -0.5647   -1.3596 O.3        1 <1>        0.000
      7 S5          0.7918    1.2427   -0.0748 S.3        1 <1>        0.000
      8 C3          2.5131    1.2951   -0.0499 C.2        1 <1>        0.000
      9 S6          3.3973    2.7272   -0.1806 S.2        1 <1>        0.000
     10 O2          3.1630    0.1005    0.1284 O.3        1 <1>        0.000
     11 H          -4.0063   -0.7715   -0.5462 H.spc      1 <1>        0.000
     12 H           2.5180   -0.6084    0.1827 H.spc      1 <1>        0.000
@<TRIPOS>BOND
     1    1    2 1  
     2    1    7 1  
     3    2    3 1  
     4    3    4 1  
     5    4    5 2  
     6    4    6 1  
     7    7    8 1  
     8    8    9 2  
     9    8   10 1  
    10    6   11 1  
    11   10   12 1  
# Name:          frag3-234-3/31924 -- energy: -1.788923
# Creation time: Sat Jun  5 12:52:33 2010


@<TRIPOS>MOLECULE
frag3-234-3/31924 -- energy: -1.788923
   12    11     1     1     1
SMALL
USER_CHARGES


@<TRIPOS>ATOM
      1 S1         -1.1488    0.3288    0.7106 S.3        1 <1>        0.000
      2 S2          0.5369   -0.7063    0.6202 S.3        1 <1>        0.000
      3 S3          1.7390    0.3611    1.7702 S.3        1 <1>        0.000
      4 C1          2.6154    1.2677    0.5888 C.2        1 <1>        0.000
      5 S4          1.9097    2.3960   -0.4470 S.2        1 <1>        0.000
      6 O1          3.9376    0.9589    0.4580 O.3        1 <1>        0.000
      7 S5         -1.5479    0.6186   -1.2002 S.3        1 <1>        0.000
      8 C3         -2.3891   -0.8526   -1.5378 C.2        1 <1>        0.000
      9 S6         -3.9651   -1.1383   -0.9804 S.2        1 <1>        0.000
     10 O2         -1.7361   -1.8435   -2.2124 O.3        1 <1>        0.000
     11 H           4.1794    0.3058    1.1187 H.spc      1 <1>        0.000
     12 H          -0.8616   -1.5363   -2.4623 H.spc      1 <1>        0.000
@<TRIPOS>BOND
     1    1    2 1  
     2    1    7 1  
     3    2    3 1  
     4    3    4 1  
     5    4    5 2  
     6    4    6 1  
     7    7    8 1  
     8    8    9 2  
     9    8   10 1  
    10    6   11 1  
    11   10   12 1  
# Name:          frag3-234-3/31924 -- energy: 2.752042
# Creation time: Sat Jun  5 12:52:33 2010


@<TRIPOS>MOLECULE
frag3-234-3/31924 -- energy: 2.752042
   12    11     1     1     1
SMALL
USER_CHARGES


@<TRIPOS>ATOM
      1 S1          0.2813   -0.0084    0.7069 S.3        1 <1>        0.000
      2 S2         -1.6161    0.5694    0.7911 S.3        1 <1>        0.000
      3 S3         -2.0670    0.4623   -1.1529 S.3        1 <1>        0.000
      4 C1         -2.4951   -1.2290   -1.2600 C.2        1 <1>        0.000
      5 S4         -2.1655   -2.1853   -2.6135 S.2        1 <1>        0.000
      6 O1         -3.1162   -1.7728   -0.1659 O.3        1 <1>        0.000
      7 S5          1.1411    1.7357    0.2438 S.3        1 <1>        0.000
      8 C3          2.8197    1.3338    0.3543 C.2        1 <1>        0.000
      9 S6          4.0204    2.4679    0.7052 S.2        1 <1>        0.000
     10 O2          3.1490    0.0168    0.1612 O.3        1 <1>        0.000
     11 H          -3.2261   -1.0970    0.5070 H.spc      1 <1>        0.000
     12 H           2.3535   -0.4865   -0.0272 H.spc      1 <1>        0.000
@<TRIPOS>BOND
     1    1    2 1  
     2    1    7 1  
     3    2    3 1  
     4    3    4 1  
     5    4    5 2  
     6    4    6 1  
     7    7    8 1  
     8    8    9 2  
     9    8   10 1  
    10    6   11 1  
    11   10   12 1  
# Name:          frag3-234-3/31924 -- energy: -0.481786
# Creation time: Sat Jun  5 12:52:33 2010


@<TRIPOS>MOLECULE
frag3-234-3/31924 -- energy: -0.481786
   12    11     1     1     1
SMALL
USER_CHARGES


@<TRIPOS>ATOM
      1 S1         -0.2898    2.0316    0.4248 S.3        1 <1>        0.000
      2 S2         -1.3740    0.5334    1.1698 S.3        1 <1>        0.000
      3 S3         -2.6012    0.1678   -0.3177 S.3        1 <1>        0.000
      4 C1         -1.6676   -0.9373   -1.2743 C.2        1 <1>        0.000
      5 S4         -2.3192   -2.2900   -2.0296 S.2        1 <1>        0.000
      6 O1         -0.3124   -0.7050   -1.3535 O.3        1 <1>        0.000
      7 S5          1.4320    1.7536    1.3584 S.3        1 <1>        0.000
      8 C3          2.1563    0.5742    0.3112 C.2        1 <1>        0.000
      9 S6          2.6343    0.9645   -1.2756 S.2        1 <1>        0.000
     10 O2          2.2931   -0.7024    0.7564 O.3        1 <1>        0.000
     11 H          -0.0983    0.0994   -0.8752 H.spc      1 <1>        0.000
     12 H           1.9815   -0.7592    1.6627 H.spc      1 <1>        0.000
@<TRIPOS>BOND
     1    1    2 1  
     2    1    7 1  
     3    2    3 1  
     4    3    4 1  
     5    4    5 2  
     6    4    6 1  
     7    7    8 1  
     8    8    9 2  
     9    8   10 1  
    10    6   11 1  
    11   10   12 1  
# Name:          frag3-234-3/31924 -- energy: -0.079235
# Creation time: Sat Jun  5 12:52:33 2010


@<TRIPOS>MOLECULE
frag3-234-3/31924 -- energy: -0.079235
   12    11     1     1     1
SMALL
USER_CHARGES


@<TRIPOS>ATOM
      1 S1         -1.8978    0.7144    1.0541 S.3        1 <1>        0.000
      2 S2         -0.2644    1.7987    0.8502 S.3        1 <1>        0.000
      3 S3          1.1458    0.5976    1.5723 S.3        1 <1>        0.000
      4 C1          2.2406    0.5454    0.2558 C.2        1 <1>        0.000
      5 S4          2.8734    1.9706   -0.4355 S.2        1 <1>        0.000
      6 O1          2.5772   -0.6552   -0.2771 O.3        1 <1>        0.000
      7 S5         -2.4695    0.5112   -0.8161 S.3        1 <1>        0.000
      8 C3         -1.6212   -0.9102   -1.3175 C.2        1 <1>        0.000
      9 S6         -2.2849   -2.0990   -2.2976 S.2        1 <1>        0.000
     10 O2         -0.3477   -1.0831   -0.8186 O.3        1 <1>        0.000
     11 H           2.1456   -1.3558    0.2173 H.spc      1 <1>        0.000
     12 H          -0.1104   -0.3245   -0.2803 H.spc      1 <1>        0.000
@<TRIPOS>BOND
     1    1    2 1  
     2    1    7 1  
     3    2    3 1  
     4    3    4 1  
     5    4    5 2  
     6    4    6 1  
     7    7    8 1  
     8    8    9 2  
     9    8   10 1  
    10    6   11 1  
    11   10   12 1  
# Name:          frag3-234-3/31924 -- energy: -2.215267
# Creation time: Sat Jun  5 12:52:33 2010


@<TRIPOS>MOLECULE
frag3-234-3/31924 -- energy: -2.215267
   12    11     1     1     1
SMALL
USER_CHARGES


@<TRIPOS>ATOM
      1 S1         -0.9846    1.0471   -1.9566 S.3        1 <1>        0.000
      2 S2          0.6859    1.8605   -1.3749 S.3        1 <1>        0.000
      3 S3          1.8871    0.3144   -1.0451 S.3        1 <1>        0.000
      4 C1          2.2981    0.5101    0.5927 C.2        1 <1>        0.000
      5 S4          1.1974    0.4302    1.8761 S.2        1 <1>        0.000
      6 O1          3.5898    0.8520    0.8626 O.3        1 <1>        0.000
      7 S5         -1.9865    0.7525   -0.2650 S.3        1 <1>        0.000
      8 C3         -2.2305   -0.9310   -0.2680 C.2        1 <1>        0.000
      9 S6         -0.9858   -2.0793   -0.3395 S.2        1 <1>        0.000
     10 O2         -3.5194   -1.3661   -0.3123 O.3        1 <1>        0.000
     11 H           4.0955    0.8571    0.0466 H.spc      1 <1>        0.000
     12 H          -4.1122   -0.6126   -0.2632 H.spc      1 <1>        0.000
@<TRIPOS>BOND
     1    1    2 1  
     2    1    7 1  
     3    2    3 1  
     4    3    4 1  
     5    4    5 2  
     6    4    6 1  
     7    7    8 1  
     8    8    9 2  
     9    8   10 1  
    10    6   11 1  
    11   10   12 1  
# Name:          frag3-234-3/31924 -- energy: 0.262153
# Creation time: Sat Jun  5 12:52:33 2010


@<TRIPOS>MOLECULE
frag3-234-3/31924 -- energy: 0.262153
   12    11     1     1     1
SMALL
USER_CHARGES


@<TRIPOS>ATOM
      1 S1         -0.2379   -0.2677   -0.9529 S.3        1 <1>        0.000
      2 S2          0.5826   -0.2085    0.8498 S.3        1 <1>        0.000
      3 S3          1.1195    1.7117    0.9025 S.3        1 <1>        0.000
      4 C1          2.8430    1.5629    0.6629 C.2        1 <1>        0.000
      5 S4          3.7590    2.6609   -0.2162 S.2        1 <1>        0.000
      6 O1          3.4298    0.4579    1.2325 O.3        1 <1>        0.000
      7 S5         -2.1303    0.1912   -0.4585 S.3        1 <1>        0.000
      8 C3         -2.9389   -1.1842   -1.1341 C.2        1 <1>        0.000
      9 S6         -2.9062   -1.4885   -2.8144 S.2        1 <1>        0.000
     10 O2         -3.5690   -2.0453   -0.3016 O.3        1 <1>        0.000
     11 H           2.7624   -0.0556    1.6935 H.spc      1 <1>        0.000
     12 H          -3.4936   -1.7285    0.6015 H.spc      1 <1>        0.000
@<TRIPOS>BOND
     1    1    2 1  
     2    1    7 1  
     3    2    3 1  
     4    3    4 1  
     5    4    5 2  
     6    4    6 1  
     7    7    8 1  
     8    8    9 2  
     9    8   10 1  
    10    6   11 1  
    11   10   12 1  
# Name:          frag3-234-3/31924 -- energy: -1.502542
# Creation time: Sat Jun  5 12:52:33 2010


@<TRIPOS>MOLECULE
frag3-234-3/31924 -- energy: -1.502542
   12    11     1     1     1
SMALL
USER_CHARGES


@<TRIPOS>ATOM
      1 S1          0.1374    1.6356   -0.0485 S.3        1 <1>        0.000
      2 S2         -0.9675    0.1113    0.5756 S.3        1 <1>        0.000
      3 S3         -2.5394    0.3024   -0.6227 S.3        1 <1>        0.000
      4 C1         -2.5852   -1.2547   -1.3714 C.2        1 <1>        0.000
      5 S4         -3.8030   -2.3825   -1.0342 S.2        1 <1>        0.000
      6 O1         -1.5598   -1.5867   -2.2122 O.3        1 <1>        0.000
      7 S5          1.7796    0.6797   -0.6317 S.3        1 <1>        0.000
      8 C3          2.8445    1.0995    0.6876 C.2        1 <1>        0.000
      9 S6          3.8286    2.4726    0.6281 S.2        1 <1>        0.000
     10 O2          2.8164    0.3132    1.7993 O.3        1 <1>        0.000
     11 H          -0.9610   -0.8409   -2.2949 H.spc      1 <1>        0.000
     12 H           2.2082   -0.4161    1.6587 H.spc      1 <1>        0.000
@<TRIPOS>BOND
     1    1    2 1  
     2    1    7 1  
     3    2    3 1  
     4    3    4 1  
     5    4    5 2  
     6    4    6 1  
     7    7    8 1  
     8    8    9 2  
     9    8   10 1  
    10    6   11 1  
    11   10   12 1  
# Name:          frag3-234-3/31924 -- energy: 2.393558
# Creation time: Sat Jun  5 12:52:33 2010


@<TRIPOS>MOLECULE
frag3-234-3/31924 -- energy: 2.393558
   12    11     1     1     1
SMALL
USER_CHARGES


@<TRIPOS>ATOM
      1 S1         -0.1846   -0.4372   -0.4040 S.3        1 <1>        0.000
      2 S2          0.1571    0.6216    1.2380 S.3        1 <1>        0.000
      3 S3          1.1593    2.1365    0.4256 S.3        1 <1>        0.000
      4 C1          2.7654    1.4603    0.4109 C.2        1 <1>        0.000
      5 S4          4.1469    2.3657    0.7429 S.2        1 <1>        0.000
      6 O1          2.8755    0.1129    0.1605 O.3        1 <1>        0.000
      7 S5         -2.0019    0.2583   -0.8837 S.3        1 <1>        0.000
      8 C3         -2.8167   -1.2370   -1.1670 C.2        1 <1>        0.000
      9 S6         -2.2555   -2.3414   -2.3432 S.2        1 <1>        0.000
     10 O2         -3.8938   -1.5491   -0.4101 O.3        1 <1>        0.000
     11 H           2.0039   -0.2522   -0.0088 H.spc      1 <1>        0.000
     12 H          -4.0771   -0.8279    0.1965 H.spc      1 <1>        0.000
@<TRIPOS>BOND
     1    1    2 1  
     2    1    7 1  
     3    2    3 1  
     4    3    4 1  
     5    4    5 2  
     6    4    6 1  
     7    7    8 1  
     8    8    9 2  
     9    8   10 1  
    10    6   11 1  
    11   10   12 1  
# Name:          frag3-234-3/31924 -- energy: -1.117252
# Creation time: Sat Jun  5 12:52:33 2010


@<TRIPOS>MOLECULE
frag3-234-3/31924 -- energy: -1.117252
   12    11     1     1     1
SMALL
USER_CHARGES


@<TRIPOS>ATOM
      1 S1         -1.0832   -0.5480    0.8900 S.3        1 <1>        0.000
      2 S2          0.8273   -0.5055    0.3765 S.3        1 <1>        0.000
      3 S3          1.4076    1.1534    1.3263 S.3        1 <1>        0.000
      4 C1          2.8818    1.5097    0.5006 C.2        1 <1>        0.000
      5 S4          3.0856    2.8900   -0.4594 S.2        1 <1>        0.000
      6 O1          3.8903    0.5941    0.6114 O.3        1 <1>        0.000
      7 S5         -1.8958    0.3558   -0.6929 S.3        1 <1>        0.000
      8 C3         -2.8231   -0.9591   -1.3519 C.2        1 <1>        0.000
      9 S6         -2.5487   -1.6119   -2.8887 S.2        1 <1>        0.000
     10 O2         -3.7902   -1.4881   -0.5418 O.3        1 <1>        0.000
     11 H           3.6105   -0.1203    1.1884 H.spc      1 <1>        0.000
     12 H          -3.8127   -1.0032    0.2864 H.spc      1 <1>        0.000
@<TRIPOS>BOND
     1    1    2 1  
     2    1    7 1  
     3    2    3 1  
     4    3    4 1  
     5    4    5 2  
     6    4    6 1  
     7    7    8 1  
     8    8    9 2  
     9    8   10 1  
    10    6   11 1  
    11   10   12 1  
# Name:          frag3-234-3/31924 -- energy: -0.964239
# Creation time: Sat Jun  5 12:52:33 2010


@<TRIPOS>MOLECULE
frag3-234-3/31924 -- energy: -0.964239
   12    11     1     1     1
SMALL
USER_CHARGES


@<TRIPOS>ATOM
      1 S1         -1.7621    0.8111    0.9599 S.3        1 <1>        0.000
      2 S2          0.0085   -0.0380    1.2705 S.3        1 <1>        0.000
      3 S3          0.9488    0.3940   -0.4260 S.3        1 <1>        0.000
      4 C1          2.3724    1.1565    0.1589 C.2        1 <1>        0.000
      5 S4          3.8810    0.9879   -0.5659 S.2        1 <1>        0.000
      6 O1          2.2505    1.8925    1.3160 O.3        1 <1>        0.000
      7 S5         -2.7340   -0.7836    0.2522 S.3        1 <1>        0.000
      8 C3         -1.8890   -1.0137   -1.2582 C.2        1 <1>        0.000
      9 S6         -2.2738   -0.1181   -2.6467 S.2        1 <1>        0.000
     10 O2         -0.8507   -1.8981   -1.2906 O.3        1 <1>        0.000
     11 H           1.3333    1.8916    1.5994 H.spc      1 <1>        0.000
     12 H          -0.7646   -2.3203   -0.4328 H.spc      1 <1>        0.000
@<TRIPOS>BOND
     1    1    2 1  
     2    1    7 1  
     3    2    3 1  
     4    3    4 1  
     5    4    5 2  
     6    4    6 1  
     7    7    8 1  
     8    8    9 2  
     9    8   10 1  
    10    6   11 1  
    11   10   12 1  
# Name:          frag3-234-3/31924 -- energy: -1.821820
# Creation time: Sat Jun  5 12:52:33 2010


@<TRIPOS>MOLECULE
frag3-234-3/31924 -- energy: -1.821820
   12    11     1     1     1
SMALL
USER_CHARGES


@<TRIPOS>ATOM
      1 S1         -0.7520    1.1479   -0.8263 S.3        1 <1>        0.000
      2 S2          0.0050    0.3026    0.8140 S.3        1 <1>        0.000
      3 S3          1.7403   -0.3667    0.1506 S.3        1 <1>        0.000
      4 C1          2.6891    1.0629    0.3871 C.2        1 <1>        0.000
      5 S4          3.0628    1.6416    1.9412 S.2        1 <1>        0.000
      6 O1          3.0885    1.7754   -0.7010 O.3        1 <1>        0.000
      7 S5         -2.6433    0.6053   -0.6560 S.3        1 <1>        0.000
      8 C3         -2.4964   -1.1008   -0.9512 C.2        1 <1>        0.000
      9 S6         -2.0975   -1.7167   -2.4827 S.2        1 <1>        0.000
     10 O2         -2.6450   -1.9611    0.0943 O.3        1 <1>        0.000
     11 H           2.8053    1.3238   -1.4994 H.spc      1 <1>        0.000
     12 H          -2.8682   -1.4657    0.8857 H.spc      1 <1>        0.000
@<TRIPOS>BOND
     1    1    2 1  
     2    1    7 1  
     3    2    3 1  
     4    3    4 1  
     5    4    5 2  
     6    4    6 1  
     7    7    8 1  
     8    8    9 2  
     9    8   10 1  
    10    6   11 1  
    11   10   12 1  
# Name:          frag3-234-3/31924 -- energy: -1.998531
# Creation time: Sat Jun  5 12:52:33 2010


@<TRIPOS>MOLECULE
frag3-234-3/31924 -- energy: -1.998531
   12    11     1     1     1
SMALL
USER_CHARGES


@<TRIPOS>ATOM
      1 S1         -0.5722   -0.9323    1.0998 S.3        1 <1>        0.000
      2 S2          0.7174    0.2063    2.0700 S.3        1 <1>        0.000
      3 S3          2.3443   -0.1056    0.9428 S.3        1 <1>        0.000
      4 C1          2.1698    1.1864   -0.2052 C.2        1 <1>        0.000
      5 S4          2.3425    2.8156    0.2626 S.2        1 <1>        0.000
      6 O1          1.8384    0.8850   -1.4865 O.3        1 <1>        0.000
      7 S5         -1.2338    0.3183   -0.3034 S.3        1 <1>        0.000
      8 C3         -2.2813   -0.6880   -1.2169 C.2        1 <1>        0.000
      9 S6         -2.0715   -1.0000   -2.8619 S.2        1 <1>        0.000
     10 O2         -3.3020   -1.2954   -0.5312 O.3        1 <1>        0.000
     11 H           1.7812   -0.0682   -1.5853 H.spc      1 <1>        0.000
     12 H          -3.2821   -1.0132    0.3862 H.spc      1 <1>        0.000
@<TRIPOS>BOND
     1    1    2 1  
     2    1    7 1  
     3    2    3 1  
     4    3    4 1  
     5    4    5 2  
     6    4    6 1  
     7    7    8 1  
     8    8    9 2  
     9    8   10 1  
    10    6   11 1  
    11   10   12 1  
# Name:          frag3-234-3/31924 -- energy: -1.481093
# Creation time: Sat Jun  5 12:52:33 2010


@<TRIPOS>MOLECULE
frag3-234-3/31924 -- energy: -1.481093
   12    11     1     1     1
SMALL
USER_CHARGES


@<TRIPOS>ATOM
      1 S1         -0.0781    1.6906    0.9531 S.3        1 <1>        0.000
      2 S2         -0.9323   -0.0691    1.0859 S.3        1 <1>        0.000
      3 S3         -2.5210    0.1686   -0.1071 S.3        1 <1>        0.000
      4 C1         -2.3631   -1.1604   -1.1621 C.2        1 <1>        0.000
      5 S4         -0.8826   -1.6231   -1.8674 S.2        1 <1>        0.000
      6 O1         -3.4591   -1.9252   -1.3854 O.3        1 <1>        0.000
      7 S5          1.0653    1.4567   -0.6405 S.3        1 <1>        0.000
      8 C3          2.5773    1.0237    0.0850 C.2        1 <1>        0.000
      9 S6          4.0068    1.8285   -0.2036 S.2        1 <1>        0.000
     10 O2          2.5384    0.0002    1.0121 O.3        1 <1>        0.000
     11 H          -4.2124   -1.5440   -0.9284 H.spc      1 <1>        0.000
     12 H           1.6477   -0.3550    1.0577 H.spc      1 <1>        0.000
@<TRIPOS>BOND
     1    1    2 1  
     2    1    7 1  
     3    2    3 1  
     4    3    4 1  
     5    4    5 2  
     6    4    6 1  
     7    7    8 1  
     8    8    9 2  
     9    8   10 1  
    10    6   11 1  
    11   10   12 1  
# Name:          frag3-234-3/31924 -- energy: -1.572705
# Creation time: Sat Jun  5 12:52:33 2010


@<TRIPOS>MOLECULE
frag3-234-3/31924 -- energy: -1.572705
   12    11     1     1     1
SMALL
USER_CHARGES


@<TRIPOS>ATOM
      1 S1         -0.9830    0.4018    0.6705 S.3        1 <1>        0.000
      2 S2          0.6017   -0.3131   -0.3020 S.3        1 <1>        0.000
      3 S3          2.0189   -0.1046    1.0638 S.3        1 <1>        0.000
      4 C1          2.8221    1.2886    0.4256 C.2        1 <1>        0.000
      5 S4          2.2231    2.8692    0.5831 S.2        1 <1>        0.000
      6 O1          3.9566    1.0675   -0.2988 O.3        1 <1>        0.000
      7 S5         -2.2144   -1.1446    0.5317 S.3        1 <1>        0.000
      8 C3         -2.7326   -0.9389   -1.1300 C.2        1 <1>        0.000
      9 S6         -1.9094   -1.5847   -2.4533 S.2        1 <1>        0.000
     10 O2         -3.8314   -0.1506   -1.3206 O.3        1 <1>        0.000
     11 H           4.1617    0.1297   -0.2918 H.spc      1 <1>        0.000
     12 H          -4.1743    0.1297   -0.4689 H.spc      1 <1>        0.000
@<TRIPOS>BOND
     1    1    2 1  
     2    1    7 1  
     3    2    3 1  
     4    3    4 1  
     5    4    5 2  
     6    4    6 1  
     7    7    8 1  
     8    8    9 2  
     9    8   10 1  
    10    6   11 1  
    11   10   12 1  
# Name:          frag3-234-3/31924 -- energy: 0.152841
# Creation time: Sat Jun  5 12:52:33 2010


@<TRIPOS>MOLECULE
frag3-234-3/31924 -- energy: 0.152841
   12    11     1     1     1
SMALL
USER_CHARGES


@<TRIPOS>ATOM
      1 S1         -0.4791    0.7660   -1.6824 S.3        1 <1>        0.000
      2 S2         -0.2590    1.8606   -0.0230 S.3        1 <1>        0.000
      3 S3          1.6597    2.3035   -0.1415 S.3        1 <1>        0.000
      4 C1          2.3518    0.8747    0.5813 C.2        1 <1>        0.000
      5 S4          3.4827    0.9465    1.8336 S.2        1 <1>        0.000
      6 O1          1.9053   -0.3409    0.1305 O.3        1 <1>        0.000
      7 S5         -2.3776    0.2356   -1.5074 S.3        1 <1>        0.000
      8 C3         -2.1884   -1.2709   -0.6521 C.2        1 <1>        0.000
      9 S6         -2.0332   -2.7484   -1.4756 S.2        1 <1>        0.000
     10 O2         -2.1107   -1.2363    0.7066 O.3        1 <1>        0.000
     11 H           1.2716   -0.2052   -0.5777 H.spc      1 <1>        0.000
     12 H          -2.2180   -0.3316    1.0092 H.spc      1 <1>        0.000
@<TRIPOS>BOND
     1    1    2 1  
     2    1    7 1  
     3    2    3 1  
     4    3    4 1  
     5    4    5 2  
     6    4    6 1  
     7    7    8 1  
     8    8    9 2  
     9    8   10 1  
    10    6   11 1  
    11   10   12 1  
# Name:          frag3-234-3/31924 -- energy: -0.651607
# Creation time: Sat Jun  5 12:52:33 2010


@<TRIPOS>MOLECULE
frag3-234-3/31924 -- energy: -0.651607
   12    11     1     1     1
SMALL
USER_CHARGES


@<TRIPOS>ATOM
      1 S1         -1.0230   -1.5755    0.9926 S.3        1 <1>        0.000
      2 S2          0.6386   -0.7657    1.6428 S.3        1 <1>        0.000
      3 S3          1.7129   -0.5470   -0.0222 S.3        1 <1>        0.000
      4 C1          2.1252    1.1190    0.0363 C.2        1 <1>        0.000
      5 S4          1.0229    2.3722   -0.1759 S.2        1 <1>        0.000
      6 O1          3.4215    1.4008    0.3611 O.3        1 <1>        0.000
      7 S5         -2.0389    0.0301    0.4005 S.3        1 <1>        0.000
      8 C3         -1.9537   -0.1001   -1.3080 C.2        1 <1>        0.000
      9 S6         -2.9644   -1.1398   -2.1831 S.2        1 <1>        0.000
     10 O2         -0.9895    0.5965   -1.9740 O.3        1 <1>        0.000
     11 H           3.9146    0.5814    0.4449 H.spc      1 <1>        0.000
     12 H          -0.5003    1.1390   -1.3511 H.spc      1 <1>        0.000
@<TRIPOS>BOND
     1    1    2 1  
     2    1    7 1  
     3    2    3 1  
     4    3    4 1  
     5    4    5 2  
     6    4    6 1  
     7    7    8 1  
     8    8    9 2  
     9    8   10 1  
    10    6   11 1  
    11   10   12 1  
# Name:          frag3-234-3/31924 -- energy: -0.931411
# Creation time: Sat Jun  5 12:52:33 2010


@<TRIPOS>MOLECULE
frag3-234-3/31924 -- energy: -0.931411
   12    11     1     1     1
SMALL
USER_CHARGES


@<TRIPOS>ATOM
      1 S1         -1.0154    1.2368   -0.9311 S.3        1 <1>        0.000
      2 S2          0.8345    0.7439   -1.4841 S.3        1 <1>        0.000
      3 S3          1.8955    2.0442   -0.4334 S.3        1 <1>        0.000
      4 C1          2.5499    0.9930    0.7917 C.2        1 <1>        0.000
      5 S4          2.4061    1.3005    2.4495 S.2        1 <1>        0.000
      6 O1          3.1804   -0.1388    0.3522 O.3        1 <1>        0.000
      7 S5         -2.0707   -0.0886   -1.9569 S.3        1 <1>        0.000
      8 C3         -2.5122   -1.1948   -0.6835 C.2        1 <1>        0.000
      9 S6         -2.2211   -2.8598   -0.7597 S.2        1 <1>        0.000
     10 O2         -3.0953   -0.6460    0.4253 O.3        1 <1>        0.000
     11 H           3.1728   -0.1558   -0.6076 H.spc      1 <1>        0.000
     12 H          -3.1860    0.3017    0.3019 H.spc      1 <1>        0.000
@<TRIPOS>BOND
     1    1    2 1  
     2    1    7 1  
     3    2    3 1  
     4    3    4 1  
     5    4    5 2  
     6    4    6 1  
     7    7    8 1  
     8    8    9 2  
     9    8   10 1  
    10    6   11 1  
    11   10   12 1  
# Name:          frag3-234-3/31924 -- energy: -0.716014
# Creation time: Sat Jun  5 12:52:33 2010


@<TRIPOS>MOLECULE
frag3-234-3/31924 -- energy: -0.716014
   12    11     1     1     1
SMALL
USER_CHARGES


@<TRIPOS>ATOM
      1 S1          0.3075   -0.2976    0.6776 S.3        1 <1>        0.000
      2 S2         -1.5593    0.0662    1.2506 S.3        1 <1>        0.000
      3 S3         -2.3421    0.5930   -0.5119 S.3        1 <1>        0.000
      4 C1         -2.3852   -0.9822   -1.2721 C.2        1 <1>        0.000
      5 S4         -1.3532   -1.4295   -2.5405 S.2        1 <1>        0.000
      6 O1         -3.2744   -1.8844   -0.7626 O.3        1 <1>        0.000
      7 S5          1.0625    1.5466    0.7672 S.3        1 <1>        0.000
      8 C3          2.6871    1.2892    0.2487 C.2        1 <1>        0.000
      9 S6          3.5280    2.3702   -0.7369 S.2        1 <1>        0.000
     10 O2          3.2808    0.1188    0.6499 O.3        1 <1>        0.000
     11 H          -3.7775   -1.4723   -0.0564 H.spc      1 <1>        0.000
     12 H           2.6700   -0.3760    1.2010 H.spc      1 <1>        0.000
@<TRIPOS>BOND
     1    1    2 1  
     2    1    7 1  
     3    2    3 1  
     4    3    4 1  
     5    4    5 2  
     6    4    6 1  
     7    7    8 1  
     8    8    9 2  
     9    8   10 1  
    10    6   11 1  
    11   10   12 1  
# Name:          frag3-234-3/31924 -- energy: -0.990815
# Creation time: Sat Jun  5 12:52:33 2010


@<TRIPOS>MOLECULE
frag3-234-3/31924 -- energy: -0.990815
   12    11     1     1     1
SMALL
USER_CHARGES


@<TRIPOS>ATOM
      1 S1          0.6446   -0.6687    0.2812 S.3        1 <1>        0.000
      2 S2         -1.1077   -0.1710    1.0747 S.3        1 <1>        0.000
      3 S3         -2.0349    0.6182   -0.4942 S.3        1 <1>        0.000
      4 C1         -2.6178   -0.8516   -1.2262 C.2        1 <1>        0.000
      5 S4         -1.6398   -1.8708   -2.1733 S.2        1 <1>        0.000
      6 O1         -3.9038   -1.2078   -0.9594 O.3        1 <1>        0.000
      7 S5          1.8800    0.3711    1.4175 S.3        1 <1>        0.000
      8 C3          2.6870    1.3863    0.2639 C.2        1 <1>        0.000
      9 S6          2.9846    3.0186    0.4932 S.2        1 <1>        0.000
     10 O2          3.0594    0.7661   -0.9074 O.3        1 <1>        0.000
     11 H          -4.3163   -0.5311   -0.4176 H.spc      1 <1>        0.000
     12 H           2.8147   -0.1614   -0.8689 H.spc      1 <1>        0.000
@<TRIPOS>BOND
     1    1    2 1  
     2    1    7 1  
     3    2    3 1  
     4    3    4 1  
     5    4    5 2  
     6    4    6 1  
     7    7    8 1  
     8    8    9 2  
     9    8   10 1  
    10    6   11 1  
    11   10   12 1  
# Name:          frag3-234-3/31924 -- energy: 1.193608
# Creation time: Sat Jun  5 12:52:33 2010


@<TRIPOS>MOLECULE
frag3-234-3/31924 -- energy: 1.193608
   12    11     1     1     1
SMALL
USER_CHARGES


@<TRIPOS>ATOM
      1 S1          0.9223    1.2030   -1.2759 S.3        1 <1>        0.000
      2 S2         -0.9164    1.2096   -0.5480 S.3        1 <1>        0.000
      3 S3         -1.8446    0.1290   -1.9242 S.3        1 <1>        0.000
      4 C1         -2.5580   -1.1487   -0.9981 C.2        1 <1>        0.000
      5 S4         -3.8979   -2.0186   -1.4916 S.2        1 <1>        0.000
      6 O1         -1.9835   -1.3925    0.2326 O.3        1 <1>        0.000
      7 S5          1.7896   -0.1916   -0.1397 S.3        1 <1>        0.000
      8 C3          2.6284    0.8449    0.9693 C.2        1 <1>        0.000
      9 S6          1.8302    1.9891    1.9491 S.2        1 <1>        0.000
     10 O2          3.9818    0.7661    0.9964 O.3        1 <1>        0.000
     11 H          -1.2306   -0.8094    0.3542 H.spc      1 <1>        0.000
     12 H           4.2733    0.0782    0.3936 H.spc      1 <1>        0.000
@<TRIPOS>BOND
     1    1    2 1  
     2    1    7 1  
     3    2    3 1  
     4    3    4 1  
     5    4    5 2  
     6    4    6 1  
     7    7    8 1  
     8    8    9 2  
     9    8   10 1  
    10    6   11 1  
    11   10   12 1  
# Name:          frag3-234-3/31924 -- energy: -1.444961
# Creation time: Sat Jun  5 12:52:33 2010


@<TRIPOS>MOLECULE
frag3-234-3/31924 -- energy: -1.444961
   12    11     1     1     1
SMALL
USER_CHARGES


@<TRIPOS>ATOM
      1 S1          0.6814   -0.1538   -0.3321 S.3        1 <1>        0.000
      2 S2         -0.8486   -0.5692    0.8446 S.3        1 <1>        0.000
      3 S3         -2.3232    0.2976   -0.1933 S.3        1 <1>        0.000
      4 C1         -2.7840   -1.0424   -1.1881 C.2        1 <1>        0.000
      5 S4         -1.9332   -1.5260   -2.5737 S.2        1 <1>        0.000
      6 O1         -3.8572   -1.7763   -0.7700 O.3        1 <1>        0.000
      7 S5          1.0976    1.7038    0.2908 S.3        1 <1>        0.000
      8 C3          2.7952    1.5577    0.5617 C.2        1 <1>        0.000
      9 S6          3.8812    1.3254   -0.7156 S.2        1 <1>        0.000
     10 O2          3.2423    1.5737    1.8457 O.3        1 <1>        0.000
     11 H          -4.2281   -1.3771    0.0204 H.spc      1 <1>        0.000
     12 H           2.5014    1.7151    2.4396 H.spc      1 <1>        0.000
@<TRIPOS>BOND
     1    1    2 1  
     2    1    7 1  
     3    2    3 1  
     4    3    4 1  
     5    4    5 2  
     6    4    6 1  
     7    7    8 1  
     8    8    9 2  
     9    8   10 1  
    10    6   11 1  
    11   10   12 1  
# Name:          frag3-234-3/31924 -- energy: -0.812315
# Creation time: Sat Jun  5 12:52:33 2010


@<TRIPOS>MOLECULE
frag3-234-3/31924 -- energy: -0.812315
   12    11     1     1     1
SMALL
USER_CHARGES


@<TRIPOS>ATOM
      1 S1         -1.3218    0.1832    0.8318 S.3        1 <1>        0.000
      2 S2          0.5367   -0.1905    1.3717 S.3        1 <1>        0.000
      3 S3          1.5250    0.3095   -0.2821 S.3        1 <1>        0.000
      4 C1          2.6985    1.4040    0.3584 C.2        1 <1>        0.000
      5 S4          3.0732    2.8937   -0.3355 S.2        1 <1>        0.000
      6 O1          3.3237    1.0109    1.5175 O.3        1 <1>        0.000
      7 S5         -1.7972   -1.5912    0.0209 S.3        1 <1>        0.000
      8 C3         -2.4451   -1.0843   -1.4974 C.2        1 <1>        0.000
      9 S6         -3.8351   -0.0970   -1.5810 S.2        1 <1>        0.000
     10 O2         -1.8062   -1.4479   -2.6344 O.3        1 <1>        0.000
     11 H           2.9994    0.1454    1.7770 H.spc      1 <1>        0.000
     12 H          -1.0509   -1.9978   -2.4138 H.spc      1 <1>        0.000
@<TRIPOS>BOND
     1    1    2 1  
     2    1    7 1  
     3    2    3 1  
     4    3    4 1  
     5    4    5 2  
     6    4    6 1  
     7    7    8 1  
     8    8    9 2  
     9    8   10 1  
    10    6   11 1  
    11   10   12 1  
# Name:          frag3-234-3/31924 -- energy: -1.726959
# Creation time: Sat Jun  5 12:52:33 2010


@<TRIPOS>MOLECULE
frag3-234-3/31924 -- energy: -1.726959
   12    11     1     1     1
SMALL
USER_CHARGES


@<TRIPOS>ATOM
      1 S1          0.1024    2.1823   -0.3004 S.3        1 <1>        0.000
      2 S2         -1.1976    0.9640    0.5064 S.3        1 <1>        0.000
      3 S3         -2.2854    0.4485   -1.0868 S.3        1 <1>        0.000
      4 C1         -2.1176   -1.2406   -1.1089 C.2        1 <1>        0.000
      5 S4         -2.3963   -2.1919    0.2737 S.2        1 <1>        0.000
      6 O1         -1.6958   -1.8547   -2.2412 O.3        1 <1>        0.000
      7 S5          1.4697    0.9097   -0.9755 S.3        1 <1>        0.000
      8 C3          2.4073    0.7091    0.4678 C.2        1 <1>        0.000
      9 S6          3.4333    1.9042    1.0491 S.2        1 <1>        0.000
     10 O2          2.2317   -0.4403    1.1858 O.3        1 <1>        0.000
     11 H          -1.5806   -1.2008   -2.9346 H.spc      1 <1>        0.000
     12 H           1.6201   -1.0162    0.7212 H.spc      1 <1>        0.000
@<TRIPOS>BOND
     1    1    2 1  
     2    1    7 1  
     3    2    3 1  
     4    3    4 1  
     5    4    5 2  
     6    4    6 1  
     7    7    8 1  
     8    8    9 2  
     9    8   10 1  
    10    6   11 1  
    11   10   12 1  
# Name:          frag3-234-3/31924 -- energy: 0.269614
# Creation time: Sat Jun  5 12:52:33 2010


@<TRIPOS>MOLECULE
frag3-234-3/31924 -- energy: 0.269614
   12    11     1     1     1
SMALL
USER_CHARGES


@<TRIPOS>ATOM
      1 S1         -0.0880    1.4445    1.0064 S.3        1 <1>        0.000
      2 S2         -1.2259   -0.1758    0.9883 S.3        1 <1>        0.000
      3 S3         -2.4076    0.2756   -0.5599 S.3        1 <1>        0.000
      4 C1         -2.3330   -1.1866   -1.4872 C.2        1 <1>        0.000
      5 S4         -3.6626   -1.8041   -2.3271 S.2        1 <1>        0.000
      6 O1         -1.1437   -1.8683   -1.4822 O.3        1 <1>        0.000
      7 S5          1.2392    0.9524   -0.4024 S.3        1 <1>        0.000
      8 C3          2.7336    1.1536    0.4721 C.2        1 <1>        0.000
      9 S6          4.1189    1.7956   -0.2349 S.2        1 <1>        0.000
     10 O2          2.7207    0.8034    1.7968 O.3        1 <1>        0.000
     11 H          -0.4996   -1.3821   -0.9622 H.spc      1 <1>        0.000
     12 H           1.8552    0.4576    2.0268 H.spc      1 <1>        0.000
@<TRIPOS>BOND
     1    1    2 1  
     2    1    7 1  
     3    2    3 1  
     4    3    4 1  
     5    4    5 2  
     6    4    6 1  
     7    7    8 1  
     8    8    9 2  
     9    8   10 1  
    10    6   11 1  
    11   10   12 1  
# Name:          frag3-234-3/31924 -- energy: 1.312528
# Creation time: Sat Jun  5 12:52:33 2010


@<TRIPOS>MOLECULE
frag3-234-3/31924 -- energy: 1.312528
   12    11     1     1     1
SMALL
USER_CHARGES


@<TRIPOS>ATOM
      1 S1          0.7295   -1.1004    0.9455 S.3        1 <1>        0.000
      2 S2         -0.9834   -0.1335    1.3019 S.3        1 <1>        0.000
      3 S3         -2.2497   -1.2200    0.2532 S.3        1 <1>        0.000
      4 C1         -2.1209   -0.4587   -1.3187 C.2        1 <1>        0.000
      5 S4         -2.4604   -1.2407   -2.7628 S.2        1 <1>        0.000
      6 O1         -1.7092    0.8534   -1.3140 O.3        1 <1>        0.000
      7 S5          2.0526    0.2336    1.5700 S.3        1 <1>        0.000
      8 C3          2.2394    1.1761    0.1143 C.2        1 <1>        0.000
      9 S6          1.3095    2.5564   -0.2219 S.2        1 <1>        0.000
     10 O2          3.1441    0.7242   -0.7975 O.3        1 <1>        0.000
     11 H          -1.5609    1.1378   -0.4092 H.spc      1 <1>        0.000
     12 H           3.5807   -0.0582   -0.4528 H.spc      1 <1>        0.000
@<TRIPOS>BOND
     1    1    2 1  
     2    1    7 1  
     3    2    3 1  
     4    3    4 1  
     5    4    5 2  
     6    4    6 1  
     7    7    8 1  
     8    8    9 2  
     9    8   10 1  
    10    6   11 1  
    11   10   12 1  
# Name:          frag3-234-3/31924 -- energy: 1.651415
# Creation time: Sat Jun  5 12:52:33 2010


@<TRIPOS>MOLECULE
frag3-234-3/31924 -- energy: 1.651415
   12    11     1     1     1
SMALL
USER_CHARGES


@<TRIPOS>ATOM
      1 S1          0.4834   -0.4987    0.5841 S.3        1 <1>        0.000
      2 S2         -1.2069    0.5535    0.5512 S.3        1 <1>        0.000
      3 S3         -1.6375    0.5026   -1.3716 S.3        1 <1>        0.000
      4 C1         -2.4791   -1.0201   -1.4577 C.2        1 <1>        0.000
      5 S4         -3.8585   -1.2588   -2.3927 S.2        1 <1>        0.000
      6 O1         -1.9979   -2.0463   -0.6759 O.3        1 <1>        0.000
      7 S5          1.6069    0.6240    1.7687 S.3        1 <1>        0.000
      8 C3          2.7341    1.2862    0.6215 C.2        1 <1>        0.000
      9 S6          2.3995    2.6402   -0.3295 S.2        1 <1>        0.000
     10 O2          3.9075    0.6076    0.4719 O.3        1 <1>        0.000
     11 H          -1.2127   -1.7505   -0.2094 H.spc      1 <1>        0.000
     12 H           3.9309   -0.1285    1.0877 H.spc      1 <1>        0.000
@<TRIPOS>BOND
     1    1    2 1  
     2    1    7 1  
     3    2    3 1  
     4    3    4 1  
     5    4    5 2  
     6    4    6 1  
     7    7    8 1  
     8    8    9 2  
     9    8   10 1  
    10    6   11 1  
    11   10   12 1  
# Name:          frag3-234-3/31924 -- energy: 0.384347
# Creation time: Sat Jun  5 12:52:33 2010


@<TRIPOS>MOLECULE
frag3-234-3/31924 -- energy: 0.384347
   12    11     1     1     1
SMALL
USER_CHARGES


@<TRIPOS>ATOM
      1 S1          0.5954   -0.0970   -0.4633 S.3        1 <1>        0.000
      2 S2         -0.9766    0.0449    0.7509 S.3        1 <1>        0.000
      3 S3         -2.3964    0.4544   -0.5974 S.3        1 <1>        0.000
      4 C1         -2.7540   -1.1834   -1.1057 C.2        1 <1>        0.000
      5 S4         -1.7952   -2.0362   -2.2095 S.2        1 <1>        0.000
      6 O1         -3.8300   -1.7780   -0.5223 O.3        1 <1>        0.000
      7 S5          1.3018    1.7516   -0.3027 S.3        1 <1>        0.000
      8 C3          2.8026    1.4624    0.5343 C.2        1 <1>        0.000
      9 S6          4.1697    2.4078    0.3219 S.2        1 <1>        0.000
     10 O2          2.8343    0.3638    1.3638 O.3        1 <1>        0.000
     11 H          -4.2558   -1.1550    0.0711 H.spc      1 <1>        0.000
     12 H           1.9719   -0.0578    1.3677 H.spc      1 <1>        0.000
@<TRIPOS>BOND
     1    1    2 1  
     2    1    7 1  
     3    2    3 1  
     4    3    4 1  
     5    4    5 2  
     6    4    6 1  
     7    7    8 1  
     8    8    9 2  
     9    8   10 1  
    10    6   11 1  
    11   10   12 1  
# Name:          frag3-234-3/31924 -- energy: 1.028486
# Creation time: Sat Jun  5 12:52:33 2010


@<TRIPOS>MOLECULE
frag3-234-3/31924 -- energy: 1.028486
   12    11     1     1     1
SMALL
USER_CHARGES


@<TRIPOS>ATOM
      1 S1         -1.5780    1.5796    0.0659 S.3        1 <1>        0.000
      2 S2         -0.3276    1.3872    1.6004 S.3        1 <1>        0.000
      3 S3          1.3684    1.9902    0.8243 S.3        1 <1>        0.000
      4 C1          1.9086    0.5851   -0.0303 C.2        1 <1>        0.000
      5 S4          2.9985    0.5875   -1.3013 S.2        1 <1>        0.000
      6 O1          1.3724   -0.6155    0.3912 O.3        1 <1>        0.000
      7 S5         -2.4864   -0.1775    0.0727 S.3        1 <1>        0.000
      8 C3         -1.4140   -1.0980   -0.9220 C.2        1 <1>        0.000
      9 S6         -1.2644   -0.8046   -2.5889 S.2        1 <1>        0.000
     10 O2         -0.6259   -2.0436   -0.3420 O.3        1 <1>        0.000
     11 H           0.7696   -0.4567    1.1213 H.spc      1 <1>        0.000
     12 H          -0.8250   -2.0932    0.5958 H.spc      1 <1>        0.000
@<TRIPOS>BOND
     1    1    2 1  
     2    1    7 1  
     3    2    3 1  
     4    3    4 1  
     5    4    5 2  
     6    4    6 1  
     7    7    8 1  
     8    8    9 2  
     9    8   10 1  
    10    6   11 1  
    11   10   12 1  
# Name:          frag3-234-3/31924 -- energy: 2.193835
# Creation time: Sat Jun  5 12:52:33 2010


@<TRIPOS>MOLECULE
frag3-234-3/31924 -- energy: 2.193835
   12    11     1     1     1
SMALL
USER_CHARGES


@<TRIPOS>ATOM
      1 S1          0.5497    0.3446   -1.0541 S.3        1 <1>        0.000
      2 S2         -0.8374    0.4710    0.3838 S.3        1 <1>        0.000
      3 S3         -2.4903    0.4448   -0.7156 S.3        1 <1>        0.000
      4 C1         -2.6533   -1.2806   -0.9078 C.2        1 <1>        0.000
      5 S4         -1.7526   -2.1777   -2.0375 S.2        1 <1>        0.000
      6 O1         -3.5032   -1.9199   -0.0594 O.3        1 <1>        0.000
      7 S5          1.5960    1.9681   -0.6437 S.3        1 <1>        0.000
      8 C3          2.6574    1.3462    0.6065 C.2        1 <1>        0.000
      9 S6          4.2909    1.7148    0.6839 S.2        1 <1>        0.000
     10 O2          2.0944    0.4789    1.5138 O.3        1 <1>        0.000
     11 H          -3.9310   -1.2754    0.5091 H.spc      1 <1>        0.000
     12 H           1.1582    0.3827    1.3243 H.spc      1 <1>        0.000
@<TRIPOS>BOND
     1    1    2 1  
     2    1    7 1  
     3    2    3 1  
     4    3    4 1  
     5    4    5 2  
     6    4    6 1  
     7    7    8 1  
     8    8    9 2  
     9    8   10 1  
    10    6   11 1  
    11   10   12 1  
# Name:          frag3-234-3/31924 -- energy: -0.151330
# Creation time: Sat Jun  5 12:52:33 2010


@<TRIPOS>MOLECULE
frag3-234-3/31924 -- energy: -0.151330
   12    11     1     1     1
SMALL
USER_CHARGES


@<TRIPOS>ATOM
      1 S1          0.9765   -0.7593    0.5341 S.3        1 <1>        0.000
      2 S2         -0.8173    0.0801    0.3788 S.3        1 <1>        0.000
      3 S3         -1.2254   -0.2356   -1.5305 S.3        1 <1>        0.000
      4 C1         -2.7688   -1.0158   -1.4096 C.2        1 <1>        0.000
      5 S4         -4.0058   -0.7766   -2.5338 S.2        1 <1>        0.000
      6 O1         -2.9784   -1.8178   -0.3166 O.3        1 <1>        0.000
      7 S5          1.8640    0.5131    1.7755 S.3        1 <1>        0.000
      8 C3          2.7642    1.4805    0.6424 C.2        1 <1>        0.000
      9 S6          2.1543    2.9097   -0.0417 S.2        1 <1>        0.000
     10 O2          3.9882    1.0121    0.2714 O.3        1 <1>        0.000
     11 H          -2.1803   -1.8457    0.2162 H.spc      1 <1>        0.000
     12 H           4.1780    0.2018    0.7499 H.spc      1 <1>        0.000
@<TRIPOS>BOND
     1    1    2 1  
     2    1    7 1  
     3    2    3 1  
     4    3    4 1  
     5    4    5 2  
     6    4    6 1  
     7    7    8 1  
     8    8    9 2  
     9    8   10 1  
    10    6   11 1  
    11   10   12 1  
# Name:          frag3-234-3/31924 -- energy: -1.163276
# Creation time: Sat Jun  5 12:52:33 2010


@<TRIPOS>MOLECULE
frag3-234-3/31924 -- energy: -1.163276
   12    11     1     1     1
SMALL
USER_CHARGES


@<TRIPOS>ATOM
      1 S1         -0.1122    0.9845    1.0943 S.3        1 <1>        0.000
      2 S2         -1.9221    1.3463    0.3810 S.3        1 <1>        0.000
      3 S3         -2.6701   -0.4912    0.3740 S.3        1 <1>        0.000
      4 C1         -2.0247   -1.1145   -1.1186 C.2        1 <1>        0.000
      5 S4         -1.3816   -2.6627   -1.2934 S.2        1 <1>        0.000
      6 O1         -2.0333   -0.2521   -2.1891 O.3        1 <1>        0.000
      7 S5          1.0163    1.1821   -0.5428 S.3        1 <1>        0.000
      8 C3          2.5741    0.8423    0.1011 C.2        1 <1>        0.000
      9 S6          3.3077    1.8482    1.2648 S.2        1 <1>        0.000
     10 O2          3.1975   -0.2927   -0.3012 O.3        1 <1>        0.000
     11 H          -2.4304    0.5809   -1.9244 H.spc      1 <1>        0.000
     12 H           2.6548   -0.7401   -0.9546 H.spc      1 <1>        0.000
@<TRIPOS>BOND
     1    1    2 1  
     2    1    7 1  
     3    2    3 1  
     4    3    4 1  
     5    4    5 2  
     6    4    6 1  
     7    7    8 1  
     8    8    9 2  
     9    8   10 1  
    10    6   11 1  
    11   10   12 1  
# Name:          frag3-234-3/31924 -- energy: -0.131420
# Creation time: Sat Jun  5 12:52:33 2010


@<TRIPOS>MOLECULE
frag3-234-3/31924 -- energy: -0.131420
   12    11     1     1     1
SMALL
USER_CHARGES


@<TRIPOS>ATOM
      1 S1         -0.0611    1.4074    0.8955 S.3        1 <1>        0.000
      2 S2         -1.3616    1.1343   -0.5624 S.3        1 <1>        0.000
      3 S3         -0.8805   -0.7064   -1.1461 S.3        1 <1>        0.000
      4 C1         -2.4145   -1.4961   -1.0337 C.2        1 <1>        0.000
      5 S4         -2.9188   -2.6855   -2.1173 S.2        1 <1>        0.000
      6 O1         -3.2589   -1.0769   -0.0344 O.3        1 <1>        0.000
      7 S5          1.4697    2.1619   -0.1630 S.3        1 <1>        0.000
      8 C3          2.7634    1.1601    0.3914 C.2        1 <1>        0.000
      9 S6          3.2334    1.1501    2.0326 S.2        1 <1>        0.000
     10 O2          3.3804    0.3415   -0.4927 O.3        1 <1>        0.000
     11 H          -2.8221   -0.4017    0.4898 H.spc      1 <1>        0.000
     12 H           3.0006    0.4700   -1.3650 H.spc      1 <1>        0.000
@<TRIPOS>BOND
     1    1    2 1  
     2    1    7 1  
     3    2    3 1  
     4    3    4 1  
     5    4    5 2  
     6    4    6 1  
     7    7    8 1  
     8    8    9 2  
     9    8   10 1  
    10    6   11 1  
    11   10   12 1  
# Name:          frag3-234-3/31924 -- energy: -0.268861
# Creation time: Sat Jun  5 12:52:33 2010


@<TRIPOS>MOLECULE
frag3-234-3/31924 -- energy: -0.268861
   12    11     1     1     1
SMALL
USER_CHARGES


@<TRIPOS>ATOM
      1 S1          0.6140    1.7647   -1.3472 S.3        1 <1>        0.000
      2 S2         -1.2005    1.0624   -0.9948 S.3        1 <1>        0.000
      3 S3         -0.7962   -0.8463   -0.5686 S.3        1 <1>        0.000
      4 C1         -2.3626   -1.5512   -0.7128 C.2        1 <1>        0.000
      5 S4         -2.7643   -2.6597   -1.9276 S.2        1 <1>        0.000
      6 O1         -3.3113   -1.1383    0.1808 O.3        1 <1>        0.000
      7 S5          1.1478    2.2378    0.5193 S.3        1 <1>        0.000
      8 C3          2.4423    1.1147    0.7985 C.2        1 <1>        0.000
      9 S6          4.0137    1.6226    1.1696 S.2        1 <1>        0.000
     10 O2          2.1687   -0.2162    0.6528 O.3        1 <1>        0.000
     11 H          -2.9193   -0.5152    0.7969 H.spc      1 <1>        0.000
     12 H           1.2383   -0.3296    0.4453 H.spc      1 <1>        0.000
@<TRIPOS>BOND
     1    1    2 1  
     2    1    7 1  
     3    2    3 1  
     4    3    4 1  
     5    4    5 2  
     6    4    6 1  
     7    7    8 1  
     8    8    9 2  
     9    8   10 1  
    10    6   11 1  
    11   10   12 1  
# Name:          frag3-234-3/31924 -- energy: 1.374093
# Creation time: Sat Jun  5 12:52:33 2010


@<TRIPOS>MOLECULE
frag3-234-3/31924 -- energy: 1.374093
   12    11     1     1     1
SMALL
USER_CHARGES


@<TRIPOS>ATOM
      1 S1         -0.4886    0.4676   -0.7806 S.3        1 <1>        0.000
      2 S2          0.6151   -0.3927    0.6487 S.3        1 <1>        0.000
      3 S3          2.4293   -0.0347   -0.0531 S.3        1 <1>        0.000
      4 C1          2.6937    1.5704    0.5865 C.2        1 <1>        0.000
      5 S4          4.1820    2.0605    1.2208 S.2        1 <1>        0.000
      6 O1          1.6236    2.4248    0.6022 O.3        1 <1>        0.000
      7 S5         -2.3065    0.0894   -0.0942 S.3        1 <1>        0.000
      8 C3         -2.7526   -1.2519   -1.1150 C.2        1 <1>        0.000
      9 S6         -4.0981   -1.1895   -2.1429 S.2        1 <1>        0.000
     10 O2         -1.9463   -2.3534   -1.1024 O.3        1 <1>        0.000
     11 H           0.8637    1.9914    0.2068 H.spc      1 <1>        0.000
     12 H          -1.2376   -2.2226   -0.4682 H.spc      1 <1>        0.000
@<TRIPOS>BOND
     1    1    2 1  
     2    1    7 1  
     3    2    3 1  
     4    3    4 1  
     5    4    5 2  
     6    4    6 1  
     7    7    8 1  
     8    8    9 2  
     9    8   10 1  
    10    6   11 1  
    11   10   12 1  
# Name:          frag3-234-3/31924 -- energy: -2.237808
# Creation time: Sat Jun  5 12:52:33 2010


@<TRIPOS>MOLECULE
frag3-234-3/31924 -- energy: -2.237808
   12    11     1     1     1
SMALL
USER_CHARGES


@<TRIPOS>ATOM
      1 S1         -1.1452    0.9725    0.7989 S.3        1 <1>        0.000
      2 S2          0.1090    2.3234    0.1481 S.3        1 <1>        0.000
      3 S3          1.3114    1.2693   -1.0227 S.3        1 <1>        0.000
      4 C1          2.3780    0.6020    0.1432 C.2        1 <1>        0.000
      5 S4          2.2961   -0.9294    0.8246 S.2        1 <1>        0.000
      6 O1          3.3381    1.4654    0.6139 O.3        1 <1>        0.000
      7 S5         -2.2186    0.5788   -0.8428 S.3        1 <1>        0.000
      8 C3         -2.1264   -1.1070   -0.9637 C.2        1 <1>        0.000
      9 S6         -0.6898   -1.9956   -0.9777 S.2        1 <1>        0.000
     10 O2         -3.3010   -1.7891   -0.9518 O.3        1 <1>        0.000
     11 H           3.2756    2.2994    0.1426 H.spc      1 <1>        0.000
     12 H          -4.0314   -1.1662   -0.9447 H.spc      1 <1>        0.000
@<TRIPOS>BOND
     1    1    2 1  
     2    1    7 1  
     3    2    3 1  
     4    3    4 1  
     5    4    5 2  
     6    4    6 1  
     7    7    8 1  
     8    8    9 2  
     9    8   10 1  
    10    6   11 1  
    11   10   12 1  
# Name:          frag3-234-3/31924 -- energy: -1.032289
# Creation time: Sat Jun  5 12:52:33 2010


@<TRIPOS>MOLECULE
frag3-234-3/31924 -- energy: -1.032289
   12    11     1     1     1
SMALL
USER_CHARGES


@<TRIPOS>ATOM
      1 S1          0.3482    0.0345    1.7795 S.3        1 <1>        0.000
      2 S2         -0.8561    0.5746    0.2902 S.3        1 <1>        0.000
      3 S3         -0.6454   -0.9644   -0.9594 S.3        1 <1>        0.000
      4 C1         -2.3052   -1.2566   -1.3367 C.2        1 <1>        0.000
      5 S4         -3.2131   -0.1420   -2.2546 S.2        1 <1>        0.000
      6 O1         -2.8985   -2.3727   -0.8485 O.3        1 <1>        0.000
      7 S5          1.5947    1.5749    1.7682 S.3        1 <1>        0.000
      8 C3          2.4113    1.3314    0.2406 C.2        1 <1>        0.000
      9 S6          2.8151    2.5803   -0.8175 S.2        1 <1>        0.000
     10 O2          2.7006    0.0304   -0.0919 O.3        1 <1>        0.000
     11 H          -2.2535   -2.8886   -0.3592 H.spc      1 <1>        0.000
     12 H           2.4076   -0.5516    0.6131 H.spc      1 <1>        0.000
@<TRIPOS>BOND
     1    1    2 1  
     2    1    7 1  
     3    2    3 1  
     4    3    4 1  
     5    4    5 2  
     6    4    6 1  
     7    7    8 1  
     8    8    9 2  
     9    8   10 1  
    10    6   11 1  
    11   10   12 1  
# Name:          frag3-234-3/31924 -- energy: -1.551779
# Creation time: Sat Jun  5 12:52:33 2010


@<TRIPOS>MOLECULE
frag3-234-3/31924 -- energy: -1.551779
   12    11     1     1     1
SMALL
USER_CHARGES


@<TRIPOS>ATOM
      1 S1          0.0876    1.1363   -0.3096 S.3        1 <1>        0.000
      2 S2         -0.4585   -0.5761    0.5458 S.3        1 <1>        0.000
      3 S3         -2.4268   -0.4067    0.4824 S.3        1 <1>        0.000
      4 C1         -2.7205   -0.9952   -1.1225 C.2        1 <1>        0.000
      5 S4         -2.4707   -2.6282   -1.5314 S.2        1 <1>        0.000
      6 O1         -3.1042   -0.1152   -2.0847 O.3        1 <1>        0.000
      7 S5          1.9173    0.6988   -0.9102 S.3        1 <1>        0.000
      8 C3          2.8077    1.1961    0.4933 C.2        1 <1>        0.000
      9 S6          3.0470    2.8382    0.8622 S.2        1 <1>        0.000
     10 O2          3.2728    0.2425    1.3447 O.3        1 <1>        0.000
     11 H          -3.2023    0.7578   -1.6976 H.spc      1 <1>        0.000
     12 H           3.0598   -0.6266    0.9971 H.spc      1 <1>        0.000
@<TRIPOS>BOND
     1    1    2 1  
     2    1    7 1  
     3    2    3 1  
     4    3    4 1  
     5    4    5 2  
     6    4    6 1  
     7    7    8 1  
     8    8    9 2  
     9    8   10 1  
    10    6   11 1  
    11   10   12 1  
# Name:          frag3-234-3/31924 -- energy: 2.567109
# Creation time: Sat Jun  5 12:52:33 2010


@<TRIPOS>MOLECULE
frag3-234-3/31924 -- energy: 2.567109
   12    11     1     1     1
SMALL
USER_CHARGES


@<TRIPOS>ATOM
      1 S1          0.3152    0.0766    0.4247 S.3        1 <1>        0.000
      2 S2         -1.2688    1.0795   -0.2314 S.3        1 <1>        0.000
      3 S3         -1.6355    0.0216   -1.8802 S.3        1 <1>        0.000
      4 C1         -2.6121   -1.2667   -1.2075 C.2        1 <1>        0.000
      5 S4         -3.9062   -1.9535   -2.0211 S.2        1 <1>        0.000
      6 O1         -2.2967   -1.6711    0.0701 O.3        1 <1>        0.000
      7 S5          1.7632    1.0008   -0.6080 S.3        1 <1>        0.000
      8 C3          2.9117    1.2570    0.6547 C.2        1 <1>        0.000
      9 S6          2.6582    2.3721    1.9142 S.2        1 <1>        0.000
     10 O2          4.0226    0.4741    0.6546 O.3        1 <1>        0.000
     11 H          -1.5344   -1.1777    0.3817 H.spc      1 <1>        0.000
     12 H           4.0123   -0.0940   -0.1192 H.spc      1 <1>        0.000
@<TRIPOS>BOND
     1    1    2 1  
     2    1    7 1  
     3    2    3 1  
     4    3    4 1  
     5    4    5 2  
     6    4    6 1  
     7    7    8 1  
     8    8    9 2  
     9    8   10 1  
    10    6   11 1  
    11   10   12 1  
# Name:          frag3-234-3/31924 -- energy: 1.076850
# Creation time: Sat Jun  5 12:52:33 2010


@<TRIPOS>MOLECULE
frag3-234-3/31924 -- energy: 1.076850
   12    11     1     1     1
SMALL
USER_CHARGES


@<TRIPOS>ATOM
      1 S1         -1.1641    0.0741    0.7714 S.3        1 <1>        0.000
      2 S2          0.6021   -0.0490   -0.1211 S.3        1 <1>        0.000
      3 S3          1.2391    1.8361    0.1318 S.3        1 <1>        0.000
      4 C1          2.8590    1.5147    0.6653 C.2        1 <1>        0.000
      5 S4          3.9799    0.7369   -0.3488 S.2        1 <1>        0.000
      6 O1          3.1993    1.8629    1.9289 O.3        1 <1>        0.000
      7 S5         -2.3033    0.4288   -0.8229 S.3        1 <1>        0.000
      8 C3         -2.7027   -1.2041   -1.2883 C.2        1 <1>        0.000
      9 S6         -2.9992   -1.6820   -2.8761 S.2        1 <1>        0.000
     10 O2         -2.7584   -2.1280   -0.2703 O.3        1 <1>        0.000
     11 H           2.4516    2.2885    2.3547 H.spc      1 <1>        0.000
     12 H          -2.5661   -1.6947    0.5645 H.spc      1 <1>        0.000
@<TRIPOS>BOND
     1    1    2 1  
     2    1    7 1  
     3    2    3 1  
     4    3    4 1  
     5    4    5 2  
     6    4    6 1  
     7    7    8 1  
     8    8    9 2  
     9    8   10 1  
    10    6   11 1  
    11   10   12 1  
# Name:          frag3-234-3/31924 -- energy: 1.029805
# Creation time: Sat Jun  5 12:52:33 2010


@<TRIPOS>MOLECULE
frag3-234-3/31924 -- energy: 1.029805
   12    11     1     1     1
SMALL
USER_CHARGES


@<TRIPOS>ATOM
      1 S1          1.0897   -0.9557    0.5272 S.3        1 <1>        0.000
      2 S2         -0.8372   -0.7716    0.8688 S.3        1 <1>        0.000
      3 S3         -1.4345    0.2969   -0.6858 S.3        1 <1>        0.000
      4 C1         -2.6649   -0.7052   -1.3466 C.2        1 <1>        0.000
      5 S4         -3.0924   -0.7542   -2.9684 S.2        1 <1>        0.000
      6 O1         -3.3222   -1.5200   -0.4454 O.3        1 <1>        0.000
      7 S5          1.8070    0.5370    1.6517 S.3        1 <1>        0.000
      8 C3          2.6170    1.4837    0.4649 C.2        1 <1>        0.000
      9 S6          1.8397    2.0938   -0.9223 S.2        1 <1>        0.000
     10 O2          3.9494    1.6858    0.6260 O.3        1 <1>        0.000
     11 H          -2.9653   -1.3758    0.4341 H.spc      1 <1>        0.000
     12 H           4.2354    1.2848    1.4500 H.spc      1 <1>        0.000
@<TRIPOS>BOND
     1    1    2 1  
     2    1    7 1  
     3    2    3 1  
     4    3    4 1  
     5    4    5 2  
     6    4    6 1  
     7    7    8 1  
     8    8    9 2  
     9    8   10 1  
    10    6   11 1  
    11   10   12 1  
# Name:          frag3-234-3/31924 -- energy: -0.087282
# Creation time: Sat Jun  5 12:52:33 2010


@<TRIPOS>MOLECULE
frag3-234-3/31924 -- energy: -0.087282
   12    11     1     1     1
SMALL
USER_CHARGES


@<TRIPOS>ATOM
      1 S1         -1.0884    0.3628    0.1628 S.3        1 <1>        0.000
      2 S2          0.7707    0.3360   -0.5410 S.3        1 <1>        0.000
      3 S3          1.4307    2.0755    0.1852 S.3        1 <1>        0.000
      4 C1          2.8797    1.5208    0.9688 C.2        1 <1>        0.000
      5 S4          4.3257    1.3001    0.0931 S.2        1 <1>        0.000
      6 O1          2.8256    1.2181    2.2891 O.3        1 <1>        0.000
      7 S5         -2.0903    0.1683   -1.5450 S.3        1 <1>        0.000
      8 C3         -2.7702   -1.4226   -1.3253 C.2        1 <1>        0.000
      9 S6         -4.3163   -1.8323   -1.8764 S.2        1 <1>        0.000
     10 O2         -2.0155   -2.3363   -0.6413 O.3        1 <1>        0.000
     11 H           1.9441    1.4011    2.6223 H.spc      1 <1>        0.000
     12 H          -1.1731   -1.9412   -0.4051 H.spc      1 <1>        0.000
@<TRIPOS>BOND
     1    1    2 1  
     2    1    7 1  
     3    2    3 1  
     4    3    4 1  
     5    4    5 2  
     6    4    6 1  
     7    7    8 1  
     8    8    9 2  
     9    8   10 1  
    10    6   11 1  
    11   10   12 1  
# Name:          frag3-234-3/31924 -- energy: -0.930009
# Creation time: Sat Jun  5 12:52:33 2010


@<TRIPOS>MOLECULE
frag3-234-3/31924 -- energy: -0.930009
   12    11     1     1     1
SMALL
USER_CHARGES


@<TRIPOS>ATOM
      1 S1         -0.7721   -0.2568    0.6228 S.3        1 <1>        0.000
      2 S2          0.0626    1.5009    0.9758 S.3        1 <1>        0.000
      3 S3          1.4013    1.5470   -0.5161 S.3        1 <1>        0.000
      4 C1          2.8591    1.3198    0.3990 C.2        1 <1>        0.000
      5 S4          3.6567   -0.1719    0.5168 S.2        1 <1>        0.000
      6 O1          3.3294    2.4042    1.0815 O.3        1 <1>        0.000
      7 S5         -1.9129    0.2244   -0.9506 S.3        1 <1>        0.000
      8 C3         -2.6856   -1.2795   -1.2915 C.2        1 <1>        0.000
      9 S6         -2.8100   -1.9212   -2.8492 S.2        1 <1>        0.000
     10 O2         -3.1769   -1.9765   -0.2185 O.3        1 <1>        0.000
     11 H           2.7656    3.1610    0.9053 H.spc      1 <1>        0.000
     12 H          -3.0255   -1.4734    0.5850 H.spc      1 <1>        0.000
@<TRIPOS>BOND
     1    1    2 1  
     2    1    7 1  
     3    2    3 1  
     4    3    4 1  
     5    4    5 2  
     6    4    6 1  
     7    7    8 1  
     8    8    9 2  
     9    8   10 1  
    10    6   11 1  
    11   10   12 1  
# Name:          frag3-234-3/31924 -- energy: -1.642033
# Creation time: Sat Jun  5 12:52:33 2010


@<TRIPOS>MOLECULE
frag3-234-3/31924 -- energy: -1.642033
   12    11     1     1     1
SMALL
USER_CHARGES


@<TRIPOS>ATOM
      1 S1          0.9162   -0.2688   -0.8448 S.3        1 <1>        0.000
      2 S2         -0.6290    0.9827   -0.8024 S.3        1 <1>        0.000
      3 S3         -1.8283    0.1425   -2.1254 S.3        1 <1>        0.000
      4 C1         -2.6028   -1.0349   -1.1239 C.2        1 <1>        0.000
      5 S4         -3.5073   -0.5859    0.2475 S.2        1 <1>        0.000
      6 O1         -2.4400   -2.3536   -1.4068 O.3        1 <1>        0.000
      7 S5          1.5353   -0.2521    1.0251 S.3        1 <1>        0.000
      8 C3          2.5743    1.1334    0.9742 C.2        1 <1>        0.000
      9 S6          2.0234    2.7367    0.9929 S.2        1 <1>        0.000
     10 O2          3.9099    0.8905    0.8336 O.3        1 <1>        0.000
     11 H          -1.9116   -2.4461   -2.2030 H.spc      1 <1>        0.000
     12 H           4.0642   -0.0570    0.8414 H.spc      1 <1>        0.000
@<TRIPOS>BOND
     1    1    2 1  
     2    1    7 1  
     3    2    3 1  
     4    3    4 1  
     5    4    5 2  
     6    4    6 1  
     7    7    8 1  
     8    8    9 2  
     9    8   10 1  
    10    6   11 1  
    11   10   12 1  
# Name:          frag3-234-3/31924 -- energy: -1.664647
# Creation time: Sat Jun  5 12:52:33 2010


@<TRIPOS>MOLECULE
frag3-234-3/31924 -- energy: -1.664647
   12    11     1     1     1
SMALL
USER_CHARGES


@<TRIPOS>ATOM
      1 S1         -0.2278   -0.9862    0.4267 S.3        1 <1>        0.000
      2 S2         -0.1533    0.9859    0.1228 S.3        1 <1>        0.000
      3 S3          1.2113    1.5012    1.4567 S.3        1 <1>        0.000
      4 C1          2.6309    1.2722    0.4881 C.2        1 <1>        0.000
      5 S4          2.9794    2.2798   -0.8373 S.2        1 <1>        0.000
      6 O1          3.4527    0.2239    0.7628 O.3        1 <1>        0.000
      7 S5         -2.1916   -1.2423    0.4868 S.3        1 <1>        0.000
      8 C3         -2.5436   -0.9217   -1.1905 C.2        1 <1>        0.000
      9 S6         -1.9075   -1.8861   -2.4407 S.2        1 <1>        0.000
     10 O2         -3.2988    0.1637   -1.5055 O.3        1 <1>        0.000
     11 H           3.1249   -0.2448    1.5338 H.spc      1 <1>        0.000
     12 H          -3.5814    0.6005   -0.6987 H.spc      1 <1>        0.000
@<TRIPOS>BOND
     1    1    2 1  
     2    1    7 1  
     3    2    3 1  
     4    3    4 1  
     5    4    5 2  
     6    4    6 1  
     7    7    8 1  
     8    8    9 2  
     9    8   10 1  
    10    6   11 1  
    11   10   12 1  
# Name:          frag3-234-3/31924 -- energy: -2.387065
# Creation time: Sat Jun  5 12:52:33 2010


@<TRIPOS>MOLECULE
frag3-234-3/31924 -- energy: -2.387065
   12    11     1     1     1
SMALL
USER_CHARGES


@<TRIPOS>ATOM
      1 S1         -1.6667   -0.2443    1.4385 S.3        1 <1>        0.000
      2 S2         -0.0650    0.8144    1.7872 S.3        1 <1>        0.000
      3 S3          1.4032   -0.3051    1.0475 S.3        1 <1>        0.000
      4 C1          2.1402    0.7537   -0.0574 C.2        1 <1>        0.000
      5 S4          2.5994    2.3338    0.3767 S.2        1 <1>        0.000
      6 O1          2.3163    0.3584   -1.3417 O.3        1 <1>        0.000
      7 S5         -2.3148    0.5228   -0.2680 S.3        1 <1>        0.000
      8 C3         -1.6528   -0.5657   -1.4311 C.2        1 <1>        0.000
      9 S6         -2.2535   -2.1197   -1.6498 S.2        1 <1>        0.000
     10 O2         -0.5547   -0.1578   -2.1319 O.3        1 <1>        0.000
     11 H           2.0157   -0.5480   -1.4404 H.spc      1 <1>        0.000
     12 H          -0.3424    0.7476   -1.8935 H.spc      1 <1>        0.000
@<TRIPOS>BOND
     1    1    2 1  
     2    1    7 1  
     3    2    3 1  
     4    3    4 1  
     5    4    5 2  
     6    4    6 1  
     7    7    8 1  
     8    8    9 2  
     9    8   10 1  
    10    6   11 1  
    11   10   12 1  
# Name:          frag3-234-3/31924 -- energy: -0.590380
# Creation time: Sat Jun  5 12:52:33 2010


@<TRIPOS>MOLECULE
frag3-234-3/31924 -- energy: -0.590380
   12    11     1     1     1
SMALL
USER_CHARGES


@<TRIPOS>ATOM
      1 S1          0.1657   -0.0360    0.8092 S.3        1 <1>        0.000
      2 S2         -1.0958    0.9305   -0.3910 S.3        1 <1>        0.000
      3 S3         -1.1512   -0.3137   -1.9386 S.3        1 <1>        0.000
      4 C1         -2.4096   -1.3796   -1.3738 C.2        1 <1>        0.000
      5 S4         -4.0222   -0.8461   -1.2319 S.2        1 <1>        0.000
      6 O1         -2.0774   -2.6391   -0.9942 O.3        1 <1>        0.000
      7 S5          1.1765    1.4779    1.5742 S.3        1 <1>        0.000
      8 C3          2.6845    1.3785    0.7039 C.2        1 <1>        0.000
      9 S6          3.5314    2.7124    0.1423 S.2        1 <1>        0.000
     10 O2          3.1497    0.1055    0.4699 O.3        1 <1>        0.000
     11 H          -1.1385   -2.7782   -1.1378 H.spc      1 <1>        0.000
     12 H           2.5456   -0.5313    0.8588 H.spc      1 <1>        0.000
@<TRIPOS>BOND
     1    1    2 1  
     2    1    7 1  
     3    2    3 1  
     4    3    4 1  
     5    4    5 2  
     6    4    6 1  
     7    7    8 1  
     8    8    9 2  
     9    8   10 1  
    10    6   11 1  
    11   10   12 1  
# Name:          frag3-234-3/31924 -- energy: -1.715114
# Creation time: Sat Jun  5 12:52:33 2010


@<TRIPOS>MOLECULE
frag3-234-3/31924 -- energy: -1.715114
   12    11     1     1     1
SMALL
USER_CHARGES


@<TRIPOS>ATOM
      1 S1         -1.8172    1.3477   -0.1106 S.3        1 <1>        0.000
      2 S2         -0.1476    1.4089    0.9380 S.3        1 <1>        0.000
      3 S3          1.1249    0.4840   -0.2904 S.3        1 <1>        0.000
      4 C1          2.6336    0.8919    0.4230 C.2        1 <1>        0.000
      5 S4          3.7241    1.9785   -0.2765 S.2        1 <1>        0.000
      6 O1          2.9140    0.3301    1.6391 O.3        1 <1>        0.000
      7 S5         -2.4186   -0.5131    0.3427 S.3        1 <1>        0.000
      8 C3         -2.0691   -1.3293   -1.1466 C.2        1 <1>        0.000
      9 S6         -2.9605   -1.0055   -2.5626 S.2        1 <1>        0.000
     10 O2         -1.0319   -2.2027   -1.1862 O.3        1 <1>        0.000
     11 H           2.1985   -0.2582    1.8912 H.spc      1 <1>        0.000
     12 H          -0.6395   -2.2716   -0.3128 H.spc      1 <1>        0.000
@<TRIPOS>BOND
     1    1    2 1  
     2    1    7 1  
     3    2    3 1  
     4    3    4 1  
     5    4    5 2  
     6    4    6 1  
     7    7    8 1  
     8    8    9 2  
     9    8   10 1  
    10    6   11 1  
    11   10   12 1  
# Name:          frag3-234-3/31924 -- energy: -0.923626
# Creation time: Sat Jun  5 12:52:33 2010


@<TRIPOS>MOLECULE
frag3-234-3/31924 -- energy: -0.923626
   12    11     1     1     1
SMALL
USER_CHARGES


@<TRIPOS>ATOM
      1 S1          0.0693    0.1722    1.1251 S.3        1 <1>        0.000
      2 S2         -0.8454    1.0549   -0.4158 S.3        1 <1>        0.000
      3 S3         -2.6284    0.2275   -0.2881 S.3        1 <1>        0.000
      4 C1         -2.4050   -1.1465   -1.3334 C.2        1 <1>        0.000
      5 S4         -3.4681   -1.5181   -2.5902 S.2        1 <1>        0.000
      6 O1         -1.2796   -1.9088   -1.1419 O.3        1 <1>        0.000
      7 S5          1.3673    1.5813    1.6416 S.3        1 <1>        0.000
      8 C3          2.7000    1.1137    0.6217 C.2        1 <1>        0.000
      9 S6          2.6571    1.2489   -1.0762 S.2        1 <1>        0.000
     10 O2          3.7843    0.5653    1.2272 O.3        1 <1>        0.000
     11 H          -0.7868   -1.5671   -0.3923 H.spc      1 <1>        0.000
     12 H           3.6515    0.5630    2.1780 H.spc      1 <1>        0.000
@<TRIPOS>BOND
     1    1    2 1  
     2    1    7 1  
     3    2    3 1  
     4    3    4 1  
     5    4    5 2  
     6    4    6 1  
     7    7    8 1  
     8    8    9 2  
     9    8   10 1  
    10    6   11 1  
    11   10   12 1  
# Name:          frag3-234-3/31924 -- energy: 0.249571
# Creation time: Sat Jun  5 12:52:33 2010


@<TRIPOS>MOLECULE
frag3-234-3/31924 -- energy: 0.249571
   12    11     1     1     1
SMALL
USER_CHARGES


@<TRIPOS>ATOM
      1 S1          0.3916    0.1585   -0.3116 S.3        1 <1>        0.000
      2 S2         -1.3413    1.1398   -0.1768 S.3        1 <1>        0.000
      3 S3         -2.3006    0.3120   -1.7073 S.3        1 <1>        0.000
      4 C1         -2.6234   -1.2691   -1.0202 C.2        1 <1>        0.000
      5 S4         -2.6189   -2.6921   -1.9314 S.2        1 <1>        0.000
      6 O1         -2.8696   -1.3128    0.3274 O.3        1 <1>        0.000
      7 S5          1.6509    1.6872   -0.4864 S.3        1 <1>        0.000
      8 C3          2.8835    1.2152    0.6535 C.2        1 <1>        0.000
      9 S6          3.2644    2.1219    2.0232 S.2        1 <1>        0.000
     10 O2          3.5150    0.0298    0.3995 O.3        1 <1>        0.000
     11 H          -2.8348   -0.4233    0.6869 H.spc      1 <1>        0.000
     12 H           3.1741   -0.3448   -0.4160 H.spc      1 <1>        0.000
@<TRIPOS>BOND
     1    1    2 1  
     2    1    7 1  
     3    2    3 1  
     4    3    4 1  
     5    4    5 2  
     6    4    6 1  
     7    7    8 1  
     8    8    9 2  
     9    8   10 1  
    10    6   11 1  
    11   10   12 1  
# Name:          frag3-234-3/31924 -- energy: -1.955885
# Creation time: Sat Jun  5 12:52:33 2010


@<TRIPOS>MOLECULE
frag3-234-3/31924 -- energy: -1.955885
   12    11     1     1     1
SMALL
USER_CHARGES


@<TRIPOS>ATOM
      1 S1          0.1059    2.0488   -0.6263 S.3        1 <1>        0.000
      2 S2         -1.2721    1.2155   -1.7544 S.3        1 <1>        0.000
      3 S3         -2.5368    0.4760   -0.4258 S.3        1 <1>        0.000
      4 C1         -2.0726   -1.1810   -0.4053 C.2        1 <1>        0.000
      5 S4         -0.7037   -1.7731    0.3930 S.2        1 <1>        0.000
      6 O1         -2.8308   -2.0380   -1.1500 O.3        1 <1>        0.000
      7 S5          1.7316    1.0148   -1.0922 S.3        1 <1>        0.000
      8 C3          2.3290    0.5871    0.4530 C.2        1 <1>        0.000
      9 S6          2.9585    1.7472    1.5243 S.2        1 <1>        0.000
     10 O2          2.2426   -0.7069    0.8536 O.3        1 <1>        0.000
     11 H          -3.5664   -1.5583   -1.5377 H.spc      1 <1>        0.000
     12 H           1.8703   -1.2361    0.1444 H.spc      1 <1>        0.000
@<TRIPOS>BOND
     1    1    2 1  
     2    1    7 1  
     3    2    3 1  
     4    3    4 1  
     5    4    5 2  
     6    4    6 1  
     7    7    8 1  
     8    8    9 2  
     9    8   10 1  
    10    6   11 1  
    11   10   12 1  
# Name:          frag3-234-3/31924 -- energy: -0.405414
# Creation time: Sat Jun  5 12:52:33 2010


@<TRIPOS>MOLECULE
frag3-234-3/31924 -- energy: -0.405414
   12    11     1     1     1
SMALL
USER_CHARGES


@<TRIPOS>ATOM
      1 S1          0.3943   -0.2136    0.6063 S.3        1 <1>        0.000
      2 S2         -1.4113    0.6043    0.7924 S.3        1 <1>        0.000
      3 S3         -2.5440   -0.9881    0.4641 S.3        1 <1>        0.000
      4 C1         -2.5211   -1.0480   -1.2810 C.2        1 <1>        0.000
      5 S4         -2.4530   -2.4860   -2.1631 S.2        1 <1>        0.000
      6 O1         -2.5383    0.1593   -1.9327 O.3        1 <1>        0.000
      7 S5          1.3158    1.1253   -0.5310 S.3        1 <1>        0.000
      8 C3          2.8173    1.3057    0.3329 C.2        1 <1>        0.000
      9 S6          3.3173    2.7584    1.0226 S.2        1 <1>        0.000
     10 O2          3.5746    0.1731    0.4596 O.3        1 <1>        0.000
     11 H          -2.5779    0.8693   -1.2877 H.spc      1 <1>        0.000
     12 H           3.1396   -0.5536    0.0075 H.spc      1 <1>        0.000
@<TRIPOS>BOND
     1    1    2 1  
     2    1    7 1  
     3    2    3 1  
     4    3    4 1  
     5    4    5 2  
     6    4    6 1  
     7    7    8 1  
     8    8    9 2  
     9    8   10 1  
    10    6   11 1  
    11   10   12 1  
# Name:          frag3-234-3/31924 -- energy: -0.877335
# Creation time: Sat Jun  5 12:52:33 2010


@<TRIPOS>MOLECULE
frag3-234-3/31924 -- energy: -0.877335
   12    11     1     1     1
SMALL
USER_CHARGES


@<TRIPOS>ATOM
      1 S1         -0.2994    0.3151   -1.7322 S.3        1 <1>        0.000
      2 S2          0.0929    1.0305    0.0804 S.3        1 <1>        0.000
      3 S3          1.6082   -0.1295    0.6361 S.3        1 <1>        0.000
      4 C1          2.8146    1.0844    0.8956 C.2        1 <1>        0.000
      5 S4          2.6870    2.1947    2.1844 S.2        1 <1>        0.000
      6 O1          3.8476    1.1767    0.0232 O.3        1 <1>        0.000
      7 S5         -2.2738    0.4354   -1.7235 S.3        1 <1>        0.000
      8 C3         -2.6952   -1.0966   -1.0095 C.2        1 <1>        0.000
      9 S6         -3.6833   -2.2211   -1.7931 S.2        1 <1>        0.000
     10 O2         -2.1468   -1.3991    0.2087 O.3        1 <1>        0.000
     11 H           3.7714    0.4828   -0.6358 H.spc      1 <1>        0.000
     12 H          -1.6169   -0.6585    0.5126 H.spc      1 <1>        0.000
@<TRIPOS>BOND
     1    1    2 1  
     2    1    7 1  
     3    2    3 1  
     4    3    4 1  
     5    4    5 2  
     6    4    6 1  
     7    7    8 1  
     8    8    9 2  
     9    8   10 1  
    10    6   11 1  
    11   10   12 1  
# Name:          frag3-234-3/31924 -- energy: 2.101413
# Creation time: Sat Jun  5 12:52:33 2010


@<TRIPOS>MOLECULE
frag3-234-3/31924 -- energy: 2.101413
   12    11     1     1     1
SMALL
USER_CHARGES


@<TRIPOS>ATOM
      1 S1          0.2229    2.1545   -1.0515 S.3        1 <1>        0.000
      2 S2         -1.2285    1.7682    0.2523 S.3        1 <1>        0.000
      3 S3         -2.3616    0.5765   -0.8509 S.3        1 <1>        0.000
      4 C1         -1.5838   -0.9600   -0.7272 C.2        1 <1>        0.000
      5 S4         -1.7179   -2.2270   -1.8019 S.2        1 <1>        0.000
      6 O1         -0.7751   -1.1205    0.3848 O.3        1 <1>        0.000
      7 S5          1.1441    0.4023   -1.1454 S.3        1 <1>        0.000
      8 C3          1.8719    0.3184    0.4227 C.2        1 <1>        0.000
      9 S6          2.0924   -1.0561    1.3510 S.2        1 <1>        0.000
     10 O2          2.2872    1.5342    0.9360 O.3        1 <1>        0.000
     11 H          -0.7929   -0.3175    0.9106 H.spc      1 <1>        0.000
     12 H           2.0999    2.2292    0.3008 H.spc      1 <1>        0.000
@<TRIPOS>BOND
     1    1    2 1  
     2    1    7 1  
     3    2    3 1  
     4    3    4 1  
     5    4    5 2  
     6    4    6 1  
     7    7    8 1  
     8    8    9 2  
     9    8   10 1  
    10    6   11 1  
    11   10   12 1  
# Name:          frag3-234-3/31924 -- energy: 1.956446
# Creation time: Sat Jun  5 12:52:33 2010


@<TRIPOS>MOLECULE
frag3-234-3/31924 -- energy: 1.956446
   12    11     1     1     1
SMALL
USER_CHARGES


@<TRIPOS>ATOM
      1 S1         -1.3804    0.3573    0.7031 S.3        1 <1>        0.000
      2 S2          0.2929    0.7889   -0.2650 S.3        1 <1>        0.000
      3 S3          1.6501    0.1941    1.0869 S.3        1 <1>        0.000
      4 C1          2.9531    1.2420    0.6742 C.2        1 <1>        0.000
      5 S4          2.7991    2.9407    0.7188 S.2        1 <1>        0.000
      6 O1          4.1098    0.6794    0.2477 O.3        1 <1>        0.000
      7 S5         -1.6658   -1.4918    0.0220 S.3        1 <1>        0.000
      8 C3         -2.6175   -1.1569   -1.3995 C.2        1 <1>        0.000
      9 S6         -3.7404   -2.2400   -2.0345 S.2        1 <1>        0.000
     10 O2         -2.4492    0.0768   -1.9836 O.3        1 <1>        0.000
     11 H           4.0317   -0.2767    0.2840 H.spc      1 <1>        0.000
     12 H          -1.7776    0.5676   -1.5043 H.spc      1 <1>        0.000
@<TRIPOS>BOND
     1    1    2 1  
     2    1    7 1  
     3    2    3 1  
     4    3    4 1  
     5    4    5 2  
     6    4    6 1  
     7    7    8 1  
     8    8    9 2  
     9    8   10 1  
    10    6   11 1  
    11   10   12 1  
# Name:          frag3-234-3/31924 -- energy: -1.229956
# Creation time: Sat Jun  5 12:52:33 2010


@<TRIPOS>MOLECULE
frag3-234-3/31924 -- energy: -1.229956
   12    11     1     1     1
SMALL
USER_CHARGES


@<TRIPOS>ATOM
      1 S1         -1.3188    0.9086   -0.5389 S.3        1 <1>        0.000
      2 S2          0.2227    0.5547    0.6507 S.3        1 <1>        0.000
      3 S3          1.7011    1.3043   -0.4722 S.3        1 <1>        0.000
      4 C1          2.9752    1.3868    0.6893 C.2        1 <1>        0.000
      5 S4          3.5514    2.8530    1.3141 S.2        1 <1>        0.000
      6 O1          3.4862    0.2016    1.1360 O.3        1 <1>        0.000
      7 S5         -1.2103   -0.7261   -1.6959 S.3        1 <1>        0.000
      8 C3         -2.6747   -1.5214   -1.2019 C.2        1 <1>        0.000
      9 S6         -4.1676   -1.1625   -1.9360 S.2        1 <1>        0.000
     10 O2         -2.6136   -2.4086   -0.1751 O.3        1 <1>        0.000
     11 H           3.0522   -0.5242    0.6817 H.spc      1 <1>        0.000
     12 H          -1.7038   -2.4934    0.1193 H.spc      1 <1>        0.000
@<TRIPOS>BOND
     1    1    2 1  
     2    1    7 1  
     3    2    3 1  
     4    3    4 1  
     5    4    5 2  
     6    4    6 1  
     7    7    8 1  
     8    8    9 2  
     9    8   10 1  
    10    6   11 1  
    11   10   12 1  
# Name:          frag3-234-3/31924 -- energy: -0.431510
# Creation time: Sat Jun  5 12:52:33 2010


@<TRIPOS>MOLECULE
frag3-234-3/31924 -- energy: -0.431510
   12    11     1     1     1
SMALL
USER_CHARGES


@<TRIPOS>ATOM
      1 S1         -0.4529   -0.4868    0.5306 S.3        1 <1>        0.000
      2 S2          0.0347    1.1596    1.5287 S.3        1 <1>        0.000
      3 S3          1.0987    2.0839    0.1088 S.3        1 <1>        0.000
      4 C1          2.6435    1.3044    0.3493 C.2        1 <1>        0.000
      5 S4          3.6312    0.7860   -0.9194 S.2        1 <1>        0.000
      6 O1          3.0272    1.0995    1.6498 O.3        1 <1>        0.000
      7 S5         -1.9165    0.2467   -0.6218 S.3        1 <1>        0.000
      8 C3         -2.5392   -1.2003   -1.3483 C.2        1 <1>        0.000
      9 S6         -2.7930   -1.3532   -3.0055 S.2        1 <1>        0.000
     10 O2         -2.7822   -2.2493   -0.5023 O.3        1 <1>        0.000
     11 H           2.3566    1.4520    2.2394 H.spc      1 <1>        0.000
     12 H          -2.5841   -1.9846    0.3990 H.spc      1 <1>        0.000
@<TRIPOS>BOND
     1    1    2 1  
     2    1    7 1  
     3    2    3 1  
     4    3    4 1  
     5    4    5 2  
     6    4    6 1  
     7    7    8 1  
     8    8    9 2  
     9    8   10 1  
    10    6   11 1  
    11   10   12 1  
# Name:          frag3-234-3/31924 -- energy: -1.477060
# Creation time: Sat Jun  5 12:52:33 2010


@<TRIPOS>MOLECULE
frag3-234-3/31924 -- energy: -1.477060
   12    11     1     1     1
SMALL
USER_CHARGES


@<TRIPOS>ATOM
      1 S1         -0.5520   -1.2278    0.5623 S.3        1 <1>        0.000
      2 S2          0.3211    0.3014   -0.3510 S.3        1 <1>        0.000
      3 S3          1.1129    1.2528    1.2077 S.3        1 <1>        0.000
      4 C1          2.7358    1.4048    0.6637 C.2        1 <1>        0.000
      5 S4          3.1468    2.4200   -0.6401 S.2        1 <1>        0.000
      6 O1          3.6993    0.6522    1.2549 O.3        1 <1>        0.000
      7 S5         -2.4490   -0.6190    0.4396 S.3        1 <1>        0.000
      8 C3         -2.6594   -0.7967   -1.2835 C.2        1 <1>        0.000
      9 S6         -2.5169   -2.3107   -2.0504 S.2        1 <1>        0.000
     10 O2         -2.8870    0.3133   -2.0330 O.3        1 <1>        0.000
     11 H           3.3109    0.1391    1.9673 H.spc      1 <1>        0.000
     12 H          -2.9417    1.0804   -1.4584 H.spc      1 <1>        0.000
@<TRIPOS>BOND
     1    1    2 1  
     2    1    7 1  
     3    2    3 1  
     4    3    4 1  
     5    4    5 2  
     6    4    6 1  
     7    7    8 1  
     8    8    9 2  
     9    8   10 1  
    10    6   11 1  
    11   10   12 1  
# Name:          frag3-234-3/31924 -- energy: -1.487978
# Creation time: Sat Jun  5 12:52:33 2010


@<TRIPOS>MOLECULE
frag3-234-3/31924 -- energy: -1.487978
   12    11     1     1     1
SMALL
USER_CHARGES


@<TRIPOS>ATOM
      1 S1          0.8378   -1.1833    1.3116 S.3        1 <1>        0.000
      2 S2         -1.1377   -1.3650    1.4426 S.3        1 <1>        0.000
      3 S3         -1.5986   -1.7476   -0.4479 S.3        1 <1>        0.000
      4 C1         -1.6307   -0.1349   -1.1286 C.2        1 <1>        0.000
      5 S4         -0.9726    0.2634   -2.6181 S.2        1 <1>        0.000
      6 O1         -2.2210    0.8264   -0.3427 O.3        1 <1>        0.000
      7 S5          1.0546    0.7870    1.4090 S.3        1 <1>        0.000
      8 C3          1.7132    1.1674   -0.1562 C.2        1 <1>        0.000
      9 S6          1.2851    2.5179   -1.0507 S.2        1 <1>        0.000
     10 O2          2.6215    0.2592   -0.6490 O.3        1 <1>        0.000
     11 H          -2.5405    0.4235    0.4680 H.spc      1 <1>        0.000
     12 H           2.7469   -0.4455   -0.0093 H.spc      1 <1>        0.000
@<TRIPOS>BOND
     1    1    2 1  
     2    1    7 1  
     3    2    3 1  
     4    3    4 1  
     5    4    5 2  
     6    4    6 1  
     7    7    8 1  
     8    8    9 2  
     9    8   10 1  
    10    6   11 1  
    11   10   12 1  
# Name:          frag3-234-3/31924 -- energy: -0.963394
# Creation time: Sat Jun  5 12:52:33 2010


@<TRIPOS>MOLECULE
frag3-234-3/31924 -- energy: -0.963394
   12    11     1     1     1
SMALL
USER_CHARGES


@<TRIPOS>ATOM
      1 S1         -1.3552    0.7910    0.6380 S.3        1 <1>        0.000
      2 S2          0.0572    1.2019    1.9535 S.3        1 <1>        0.000
      3 S3          1.2822    2.2738    0.8073 S.3        1 <1>        0.000
      4 C1          2.2306    1.0298    0.0473 C.2        1 <1>        0.000
      5 S4          2.7739    1.0884   -1.5440 S.2        1 <1>        0.000
      6 O1          2.5178   -0.0703    0.8261 O.3        1 <1>        0.000
      7 S5         -0.5672   -0.7889   -0.3165 S.3        1 <1>        0.000
      8 C3         -1.9127   -1.3054   -1.2418 C.2        1 <1>        0.000
      9 S6         -2.6319   -0.3049   -2.4196 S.2        1 <1>        0.000
     10 O2         -2.4431   -2.5250   -0.9803 O.3        1 <1>        0.000
     11 H           2.1402    0.0506    1.7004 H.spc      1 <1>        0.000
     12 H          -1.9252   -2.9583   -0.2979 H.spc      1 <1>        0.000
@<TRIPOS>BOND
     1    1    2 1  
     2    1    7 1  
     3    2    3 1  
     4    3    4 1  
     5    4    5 2  
     6    4    6 1  
     7    7    8 1  
     8    8    9 2  
     9    8   10 1  
    10    6   11 1  
    11   10   12 1  
# Name:          frag3-234-3/31924 -- energy: -1.590089
# Creation time: Sat Jun  5 12:52:33 2010


@<TRIPOS>MOLECULE
frag3-234-3/31924 -- energy: -1.590089
   12    11     1     1     1
SMALL
USER_CHARGES


@<TRIPOS>ATOM
      1 S1          0.0621    1.3651    1.4930 S.3        1 <1>        0.000
      2 S2         -1.6179    0.6950    0.7027 S.3        1 <1>        0.000
      3 S3         -1.0392   -1.1103    0.0646 S.3        1 <1>        0.000
      4 C1         -2.2229   -1.4306   -1.1479 C.2        1 <1>        0.000
      5 S4         -1.8661   -1.4420   -2.8035 S.2        1 <1>        0.000
      6 O1         -3.5058   -1.6299   -0.7215 O.3        1 <1>        0.000
      7 S5          1.0189    1.9355   -0.1676 S.3        1 <1>        0.000
      8 C3          2.5555    1.1639    0.0377 C.2        1 <1>        0.000
      9 S6          4.0017    2.0387    0.1304 S.2        1 <1>        0.000
     10 O2          2.5654   -0.1952    0.1821 O.3        1 <1>        0.000
     11 H          -3.5325   -1.5927    0.2374 H.spc      1 <1>        0.000
     12 H           1.6695   -0.5308    0.1029 H.spc      1 <1>        0.000
@<TRIPOS>BOND
     1    1    2 1  
     2    1    7 1  
     3    2    3 1  
     4    3    4 1  
     5    4    5 2  
     6    4    6 1  
     7    7    8 1  
     8    8    9 2  
     9    8   10 1  
    10    6   11 1  
    11   10   12 1  
# Name:          frag3-234-3/31924 -- energy: -1.511928
# Creation time: Sat Jun  5 12:52:33 2010


@<TRIPOS>MOLECULE
frag3-234-3/31924 -- energy: -1.511928
   12    11     1     1     1
SMALL
USER_CHARGES


@<TRIPOS>ATOM
      1 S1         -1.3878    0.8147    0.5302 S.3        1 <1>        0.000
      2 S2          0.3649    0.4615    1.3265 S.3        1 <1>        0.000
      3 S3          1.5029    0.1661   -0.2809 S.3        1 <1>        0.000
      4 C1          2.7467    1.3011    0.0175 C.2        1 <1>        0.000
      5 S4          3.8550    1.0986    1.2911 S.2        1 <1>        0.000
      6 O1          2.8086    2.4257   -0.7436 O.3        1 <1>        0.000
      7 S5         -2.1922   -1.0147    0.5446 S.3        1 <1>        0.000
      8 C3         -2.5404   -1.2517   -1.1155 C.2        1 <1>        0.000
      9 S6         -1.3600   -1.2030   -2.3375 S.2        1 <1>        0.000
     10 O2         -3.8460   -1.4078   -1.4623 O.3        1 <1>        0.000
     11 H           2.1238    2.3940   -1.4156 H.spc      1 <1>        0.000
     12 H          -4.3876   -1.4162   -0.6697 H.spc      1 <1>        0.000
@<TRIPOS>BOND
     1    1    2 1  
     2    1    7 1  
     3    2    3 1  
     4    3    4 1  
     5    4    5 2  
     6    4    6 1  
     7    7    8 1  
     8    8    9 2  
     9    8   10 1  
    10    6   11 1  
    11   10   12 1  
# Name:          frag3-234-3/31924 -- energy: 2.647512
# Creation time: Sat Jun  5 12:52:33 2010


@<TRIPOS>MOLECULE
frag3-234-3/31924 -- energy: 2.647512
   12    11     1     1     1
SMALL
USER_CHARGES


@<TRIPOS>ATOM
      1 S1         -1.9992    0.9164    1.0533 S.3        1 <1>        0.000
      2 S2         -0.2628    1.8520    1.0007 S.3        1 <1>        0.000
      3 S3          1.0201    0.3767    1.3873 S.3        1 <1>        0.000
      4 C1          2.0815    0.4852    0.0338 C.2        1 <1>        0.000
      5 S4          3.1041    1.8132   -0.1863 S.2        1 <1>        0.000
      6 O1          2.0311   -0.5025   -0.8988 O.3        1 <1>        0.000
      7 S5         -2.3081    0.5707   -0.8648 S.3        1 <1>        0.000
      8 C3         -1.4821   -0.9255   -1.1317 C.2        1 <1>        0.000
      9 S6         -1.1803   -1.6066   -2.6298 S.2        1 <1>        0.000
     10 O2         -1.0527   -1.5891    0.0063 O.3        1 <1>        0.000
     11 H           1.4047   -1.1739   -0.6187 H.spc      1 <1>        0.000
     12 H          -1.2960   -1.0802    0.7831 H.spc      1 <1>        0.000
@<TRIPOS>BOND
     1    1    2 1  
     2    1    7 1  
     3    2    3 1  
     4    3    4 1  
     5    4    5 2  
     6    4    6 1  
     7    7    8 1  
     8    8    9 2  
     9    8   10 1  
    10    6   11 1  
    11   10   12 1  
# Name:          frag3-234-3/31924 -- energy: -0.117420
# Creation time: Sat Jun  5 12:52:34 2010


@<TRIPOS>MOLECULE
frag3-234-3/31924 -- energy: -0.117420
   12    11     1     1     1
SMALL
USER_CHARGES


@<TRIPOS>ATOM
      1 S1          0.0560    0.6599    0.7262 S.3        1 <1>        0.000
      2 S2         -1.1867    1.2998   -0.6801 S.3        1 <1>        0.000
      3 S3         -2.7830    0.2193   -0.2451 S.3        1 <1>        0.000
      4 C1         -2.4975   -1.2101   -1.1912 C.2        1 <1>        0.000
      5 S4         -3.7044   -1.9773   -2.0827 S.2        1 <1>        0.000
      6 O1         -1.2084   -1.6847   -1.2377 O.3        1 <1>        0.000
      7 S5          1.6852    0.2189   -0.3277 S.3        1 <1>        0.000
      8 C3          2.8848    0.9915    0.6426 C.2        1 <1>        0.000
      9 S6          2.9004    2.6729    0.9163 S.2        1 <1>        0.000
     10 O2          3.8053    0.2002    1.2495 O.3        1 <1>        0.000
     11 H          -0.6481   -1.1410   -0.6791 H.spc      1 <1>        0.000
     12 H           3.6599   -0.7132    0.9922 H.spc      1 <1>        0.000
@<TRIPOS>BOND
     1    1    2 1  
     2    1    7 1  
     3    2    3 1  
     4    3    4 1  
     5    4    5 2  
     6    4    6 1  
     7    7    8 1  
     8    8    9 2  
     9    8   10 1  
    10    6   11 1  
    11   10   12 1  
# Name:          frag3-234-3/31924 -- energy: -1.375230
# Creation time: Sat Jun  5 12:52:34 2010


@<TRIPOS>MOLECULE
frag3-234-3/31924 -- energy: -1.375230
   12    11     1     1     1
SMALL
USER_CHARGES


@<TRIPOS>ATOM
      1 S1          0.7002    0.3125   -0.9891 S.3        1 <1>        0.000
      2 S2         -0.8669    0.8090    0.1421 S.3        1 <1>        0.000
      3 S3         -2.3295    0.6873   -1.1669 S.3        1 <1>        0.000
      4 C1         -2.7337   -0.9989   -1.0546 C.2        1 <1>        0.000
      5 S4         -2.7994   -2.0463   -2.3741 S.2        1 <1>        0.000
      6 O1         -2.9750   -1.4792    0.2102 O.3        1 <1>        0.000
      7 S5          1.9515   -0.4213    0.3641 S.3        1 <1>        0.000
      8 C3          2.8141    1.0353    0.7605 C.2        1 <1>        0.000
      9 S6          2.0443    2.4292    1.3720 S.2        1 <1>        0.000
     10 O2          4.1458    1.0627    0.5059 O.3        1 <1>        0.000
     11 H          -2.8994   -0.7617    0.8435 H.spc      1 <1>        0.000
     12 H           4.4237    0.2077    0.1693 H.spc      1 <1>        0.000
@<TRIPOS>BOND
     1    1    2 1  
     2    1    7 1  
     3    2    3 1  
     4    3    4 1  
     5    4    5 2  
     6    4    6 1  
     7    7    8 1  
     8    8    9 2  
     9    8   10 1  
    10    6   11 1  
    11   10   12 1  
# Name:          frag3-234-3/31924 -- energy: -1.309799
# Creation time: Sat Jun  5 12:52:34 2010


@<TRIPOS>MOLECULE
frag3-234-3/31924 -- energy: -1.309799
   12    11     1     1     1
SMALL
USER_CHARGES


@<TRIPOS>ATOM
      1 S1         -0.1071    1.8623   -0.0925 S.3        1 <1>        0.000
      2 S2         -1.6733    0.9994    0.7679 S.3        1 <1>        0.000
      3 S3         -2.6940    0.3872   -0.8033 S.3        1 <1>        0.000
      4 C1         -1.9775   -1.1745   -1.0708 C.2        1 <1>        0.000
      5 S4         -1.3270   -1.6736   -2.5452 S.2        1 <1>        0.000
      6 O1         -1.9262   -2.0111    0.0167 O.3        1 <1>        0.000
      7 S5          1.2929    1.6051    1.2919 S.3        1 <1>        0.000
      8 C3          2.4462    0.6771    0.4004 C.2        1 <1>        0.000
      9 S6          3.2085    1.3107   -0.9885 S.2        1 <1>        0.000
     10 O2          2.7091   -0.5922    0.7935 O.3        1 <1>        0.000
     11 H          -2.3362   -1.5801    0.7702 H.spc      1 <1>        0.000
     12 H           2.2039   -0.7920    1.5850 H.spc      1 <1>        0.000
@<TRIPOS>BOND
     1    1    2 1  
     2    1    7 1  
     3    2    3 1  
     4    3    4 1  
     5    4    5 2  
     6    4    6 1  
     7    7    8 1  
     8    8    9 2  
     9    8   10 1  
    10    6   11 1  
    11   10   12 1  
# Name:          frag3-234-3/31924 -- energy: 1.287052
# Creation time: Sat Jun  5 12:52:34 2010


@<TRIPOS>MOLECULE
frag3-234-3/31924 -- energy: 1.287052
   12    11     1     1     1
SMALL
USER_CHARGES


@<TRIPOS>ATOM
      1 S1          0.1413    2.1177   -0.5985 S.3        1 <1>        0.000
      2 S2         -1.4298    1.1250    0.1012 S.3        1 <1>        0.000
      3 S3         -2.0552    0.1823   -1.5246 S.3        1 <1>        0.000
      4 C1         -2.2260   -1.4353   -0.9274 C.2        1 <1>        0.000
      5 S4         -1.5122   -2.7775   -1.6683 S.2        1 <1>        0.000
      6 O1         -2.9582   -1.5895    0.2190 O.3        1 <1>        0.000
      7 S5          1.3283    2.0802    0.9844 S.3        1 <1>        0.000
      8 C3          2.4960    0.8806    0.5060 C.2        1 <1>        0.000
      9 S6          4.0706    0.8408    1.1133 S.2        1 <1>        0.000
     10 O2          2.0967   -0.0338   -0.4350 O.3        1 <1>        0.000
     11 H          -3.2890   -0.7344    0.5035 H.spc      1 <1>        0.000
     12 H           1.1801    0.1293   -0.6694 H.spc      1 <1>        0.000
@<TRIPOS>BOND
     1    1    2 1  
     2    1    7 1  
     3    2    3 1  
     4    3    4 1  
     5    4    5 2  
     6    4    6 1  
     7    7    8 1  
     8    8    9 2  
     9    8   10 1  
    10    6   11 1  
    11   10   12 1  
# Name:          frag3-234-3/31924 -- energy: 0.795606
# Creation time: Sat Jun  5 12:52:34 2010


@<TRIPOS>MOLECULE
frag3-234-3/31924 -- energy: 0.795606
   12    11     1     1     1
SMALL
USER_CHARGES


@<TRIPOS>ATOM
      1 S1          0.4485    1.7781   -1.0736 S.3        1 <1>        0.000
      2 S2         -0.7444    0.7282    0.1313 S.3        1 <1>        0.000
      3 S3         -2.2938    0.4204   -1.0664 S.3        1 <1>        0.000
      4 C1         -2.5293   -1.2944   -0.8981 C.2        1 <1>        0.000
      5 S4         -2.8085   -2.3226   -2.1986 S.2        1 <1>        0.000
      6 O1         -2.4531   -1.7855    0.3804 O.3        1 <1>        0.000
      7 S5          2.0926    0.6756   -0.9790 S.3        1 <1>        0.000
      8 C3          2.5867    1.0201    0.6683 C.2        1 <1>        0.000
      9 S6          3.3603   -0.1030    1.6622 S.2        1 <1>        0.000
     10 O2          2.2926    2.2735    1.1437 O.3        1 <1>        0.000
     11 H          -2.2903   -1.0624    0.9906 H.spc      1 <1>        0.000
     12 H           1.8569    2.7815    0.4554 H.spc      1 <1>        0.000
@<TRIPOS>BOND
     1    1    2 1  
     2    1    7 1  
     3    2    3 1  
     4    3    4 1  
     5    4    5 2  
     6    4    6 1  
     7    7    8 1  
     8    8    9 2  
     9    8   10 1  
    10    6   11 1  
    11   10   12 1  
# Name:          frag3-234-3/31924 -- energy: -1.418069
# Creation time: Sat Jun  5 12:52:34 2010


@<TRIPOS>MOLECULE
frag3-234-3/31924 -- energy: -1.418069
   12    11     1     1     1
SMALL
USER_CHARGES


@<TRIPOS>ATOM
      1 S1         -0.1045   -0.8353   -0.1999 S.3        1 <1>        0.000
      2 S2          0.7043   -0.2768    1.5091 S.3        1 <1>        0.000
      3 S3          1.0449    1.6520    1.1114 S.3        1 <1>        0.000
      4 C1          2.6132    1.5199    0.3797 C.2        1 <1>        0.000
      5 S4          2.8831    1.5499   -1.2897 S.2        1 <1>        0.000
      6 O1          3.6658    1.3229    1.2327 O.3        1 <1>        0.000
      7 S5         -1.9642   -0.1102    0.0342 S.3        1 <1>        0.000
      8 C3         -2.7818   -0.9220   -1.2323 C.2        1 <1>        0.000
      9 S6         -2.3250   -0.7334   -2.8642 S.2        1 <1>        0.000
     10 O2         -3.7840   -1.7767   -0.9110 O.3        1 <1>        0.000
     11 H           3.3483    1.3327    2.1386 H.spc      1 <1>        0.000
     12 H          -3.9179   -1.7681    0.0396 H.spc      1 <1>        0.000
@<TRIPOS>BOND
     1    1    2 1  
     2    1    7 1  
     3    2    3 1  
     4    3    4 1  
     5    4    5 2  
     6    4    6 1  
     7    7    8 1  
     8    8    9 2  
     9    8   10 1  
    10    6   11 1  
    11   10   12 1  
# Name:          frag3-234-3/31924 -- energy: -1.660099
# Creation time: Sat Jun  5 12:52:34 2010


@<TRIPOS>MOLECULE
frag3-234-3/31924 -- energy: -1.660099
   12    11     1     1     1
SMALL
USER_CHARGES


@<TRIPOS>ATOM
      1 S1          0.1499    0.6819    1.8032 S.3        1 <1>        0.000
      2 S2         -1.0903    1.0438    0.3249 S.3        1 <1>        0.000
      3 S3         -2.1567   -0.6302    0.2954 S.3        1 <1>        0.000
      4 C1         -2.2007   -1.0205   -1.3547 C.2        1 <1>        0.000
      5 S4         -3.1107   -0.1321   -2.4719 S.2        1 <1>        0.000
      6 O1         -1.4161   -2.0373   -1.8074 O.3        1 <1>        0.000
      7 S5          1.5605   -0.4045    0.9109 S.3        1 <1>        0.000
      8 C3          2.5068    0.8699    0.2397 C.2        1 <1>        0.000
      9 S6          1.9531    1.9785   -0.9212 S.2        1 <1>        0.000
     10 O2          3.7559    1.0409    0.7511 O.3        1 <1>        0.000
     11 H          -0.9639   -2.4457   -1.0656 H.spc      1 <1>        0.000
     12 H           3.9362    0.3481    1.3908 H.spc      1 <1>        0.000
@<TRIPOS>BOND
     1    1    2 1  
     2    1    7 1  
     3    2    3 1  
     4    3    4 1  
     5    4    5 2  
     6    4    6 1  
     7    7    8 1  
     8    8    9 2  
     9    8   10 1  
    10    6   11 1  
    11   10   12 1  
# Name:          frag3-234-3/31924 -- energy: -1.327850
# Creation time: Sat Jun  5 12:52:34 2010


@<TRIPOS>MOLECULE
frag3-234-3/31924 -- energy: -1.327850
   12    11     1     1     1
SMALL
USER_CHARGES


@<TRIPOS>ATOM
      1 S1          0.6124    1.0014   -1.0454 S.3        1 <1>        0.000
      2 S2         -0.4919   -0.2040    0.0661 S.3        1 <1>        0.000
      3 S3         -2.3281    0.2677   -0.5624 S.3        1 <1>        0.000
      4 C1         -2.8848   -1.3004   -1.0028 C.2        1 <1>        0.000
      5 S4         -1.9180   -2.4056   -1.8773 S.2        1 <1>        0.000
      6 O1         -4.1144   -1.6807   -0.5819 O.3        1 <1>        0.000
      7 S5          1.3046    2.2071    0.3723 S.3        1 <1>        0.000
      8 C3          2.7846    1.3833    0.7549 C.2        1 <1>        0.000
      9 S6          4.2598    1.8047    0.0386 S.2        1 <1>        0.000
     10 O2          2.7275    0.3169    1.6078 O.3        1 <1>        0.000
     11 H          -4.5284   -0.9547   -0.1096 H.spc      1 <1>        0.000
     12 H           1.8280    0.2109    1.9260 H.spc      1 <1>        0.000
@<TRIPOS>BOND
     1    1    2 1  
     2    1    7 1  
     3    2    3 1  
     4    3    4 1  
     5    4    5 2  
     6    4    6 1  
     7    7    8 1  
     8    8    9 2  
     9    8   10 1  
    10    6   11 1  
    11   10   12 1  
# Name:          frag3-234-3/31924 -- energy: -1.604560
# Creation time: Sat Jun  5 12:52:34 2010


@<TRIPOS>MOLECULE
frag3-234-3/31924 -- energy: -1.604560
   12    11     1     1     1
SMALL
USER_CHARGES


@<TRIPOS>ATOM
      1 S1         -0.9885   -0.0282    0.7776 S.3        1 <1>        0.000
      2 S2          0.8134   -0.6767    1.2485 S.3        1 <1>        0.000
      3 S3          1.6825    1.0161    1.8376 S.3        1 <1>        0.000
      4 C1          2.5844    1.4225    0.4235 C.2        1 <1>        0.000
      5 S4          1.8653    1.8187   -1.0647 S.2        1 <1>        0.000
      6 O1          3.9398    1.3489    0.5086 O.3        1 <1>        0.000
      7 S5         -0.9899   -0.1924   -1.1922 S.3        1 <1>        0.000
      8 C3         -2.5034   -0.9391   -1.4828 C.2        1 <1>        0.000
      9 S6         -3.6682   -0.2984   -2.5161 S.2        1 <1>        0.000
     10 O2         -2.7837   -2.0811   -0.7700 O.3        1 <1>        0.000
     11 H           4.1909    1.1171    1.4057 H.spc      1 <1>        0.000
     12 H          -2.0240   -2.3157   -0.2320 H.spc      1 <1>        0.000
@<TRIPOS>BOND
     1    1    2 1  
     2    1    7 1  
     3    2    3 1  
     4    3    4 1  
     5    4    5 2  
     6    4    6 1  
     7    7    8 1  
     8    8    9 2  
     9    8   10 1  
    10    6   11 1  
    11   10   12 1  
# Name:          frag3-234-3/31924 -- energy: -1.354749
# Creation time: Sat Jun  5 12:52:34 2010


@<TRIPOS>MOLECULE
frag3-234-3/31924 -- energy: -1.354749
   12    11     1     1     1
SMALL
USER_CHARGES


@<TRIPOS>ATOM
      1 S1         -0.6059    0.5178   -1.0995 S.3        1 <1>        0.000
      2 S2          0.1643    0.6432    0.7245 S.3        1 <1>        0.000
      3 S3          1.9627   -0.1209    0.4350 S.3        1 <1>        0.000
      4 C1          2.9254    1.3170    0.5436 C.2        1 <1>        0.000
      5 S4          3.8377    1.6840    1.9234 S.2        1 <1>        0.000
      6 O1          2.8839    2.1976   -0.4995 O.3        1 <1>        0.000
      7 S5         -2.5411    0.4058   -0.6705 S.3        1 <1>        0.000
      8 C3         -2.8347   -1.2682   -1.0095 C.2        1 <1>        0.000
      9 S6         -2.7495   -1.8766   -2.6000 S.2        1 <1>        0.000
     10 O2         -3.0912   -2.1092    0.0225 O.3        1 <1>        0.000
     11 H           2.3276    1.8410   -1.1959 H.spc      1 <1>        0.000
     12 H          -3.1053   -1.6116    0.8434 H.spc      1 <1>        0.000
@<TRIPOS>BOND
     1    1    2 1  
     2    1    7 1  
     3    2    3 1  
     4    3    4 1  
     5    4    5 2  
     6    4    6 1  
     7    7    8 1  
     8    8    9 2  
     9    8   10 1  
    10    6   11 1  
    11   10   12 1  
# Name:          frag3-234-3/31924 -- energy: 2.243949
# Creation time: Sat Jun  5 12:52:34 2010


@<TRIPOS>MOLECULE
frag3-234-3/31924 -- energy: 2.243949
   12    11     1     1     1
SMALL
USER_CHARGES


@<TRIPOS>ATOM
      1 S1         -1.9447    0.8702    0.7160 S.3        1 <1>        0.000
      2 S2         -0.1732    1.7446    0.7150 S.3        1 <1>        0.000
      3 S3          1.0357    0.1593    0.6247 S.3        1 <1>        0.000
      4 C1          2.5678    0.9020    0.3708 C.2        1 <1>        0.000
      5 S4          3.9779    0.3992    1.1513 S.2        1 <1>        0.000
      6 O1          2.6000    1.9751   -0.4827 O.3        1 <1>        0.000
      7 S5         -2.1414    0.5178   -1.2390 S.3        1 <1>        0.000
      8 C3         -1.9825   -1.2113   -1.3036 C.2        1 <1>        0.000
      9 S6         -2.8149   -2.1674   -2.4171 S.2        1 <1>        0.000
     10 O2         -1.1732   -1.7992   -0.3655 O.3        1 <1>        0.000
     11 H           1.7213    2.1260   -0.8386 H.spc      1 <1>        0.000
     12 H          -0.7776   -1.1196    0.1852 H.spc      1 <1>        0.000
@<TRIPOS>BOND
     1    1    2 1  
     2    1    7 1  
     3    2    3 1  
     4    3    4 1  
     5    4    5 2  
     6    4    6 1  
     7    7    8 1  
     8    8    9 2  
     9    8   10 1  
    10    6   11 1  
    11   10   12 1  
# Name:          frag3-234-3/31924 -- energy: -1.485121
# Creation time: Sat Jun  5 12:52:34 2010


@<TRIPOS>MOLECULE
frag3-234-3/31924 -- energy: -1.485121
   12    11     1     1     1
SMALL
USER_CHARGES


@<TRIPOS>ATOM
      1 S1         -1.2785    0.3774    0.9553 S.3        1 <1>        0.000
      2 S2          0.5648   -0.0379    1.4388 S.3        1 <1>        0.000
      3 S3          1.5225    0.0610   -0.2993 S.3        1 <1>        0.000
      4 C1          2.7028    1.2423    0.0458 C.2        1 <1>        0.000
      5 S4          2.4725    2.9064   -0.1009 S.2        1 <1>        0.000
      6 O1          3.8852    0.7775    0.5591 O.3        1 <1>        0.000
      7 S5         -1.9246   -1.4098    0.3122 S.3        1 <1>        0.000
      8 C3         -2.5270   -1.0250   -1.2366 C.2        1 <1>        0.000
      9 S6         -1.7142   -0.0026   -2.3306 S.2        1 <1>        0.000
     10 O2         -3.7518   -1.4988   -1.5739 O.3        1 <1>        0.000
     11 H           3.8683   -0.1821    0.5804 H.spc      1 <1>        0.000
     12 H          -4.0839   -2.0564   -0.8665 H.spc      1 <1>        0.000
@<TRIPOS>BOND
     1    1    2 1  
     2    1    7 1  
     3    2    3 1  
     4    3    4 1  
     5    4    5 2  
     6    4    6 1  
     7    7    8 1  
     8    8    9 2  
     9    8   10 1  
    10    6   11 1  
    11   10   12 1  
# Name:          frag3-234-3/31924 -- energy: -1.890166
# Creation time: Sat Jun  5 12:52:34 2010


@<TRIPOS>MOLECULE
frag3-234-3/31924 -- energy: -1.890166
   12    11     1     1     1
SMALL
USER_CHARGES


@<TRIPOS>ATOM
      1 S1         -1.0509   -0.3090    1.3825 S.3        1 <1>        0.000
      2 S2          0.2563    1.1019    1.7761 S.3        1 <1>        0.000
      3 S3          1.9710    0.2076    1.3441 S.3        1 <1>        0.000
      4 C1          2.3000    0.8654   -0.2097 C.2        1 <1>        0.000
      5 S4          2.5480    2.5341   -0.4387 S.2        1 <1>        0.000
      6 O1          2.3065    0.0427   -1.2894 O.3        1 <1>        0.000
      7 S5         -2.1517    0.4691   -0.0672 S.3        1 <1>        0.000
      8 C3         -2.1433   -0.7911   -1.2365 C.2        1 <1>        0.000
      9 S6         -0.7850   -1.2239   -2.1332 S.2        1 <1>        0.000
     10 O2         -3.2993   -1.5063   -1.3580 O.3        1 <1>        0.000
     11 H           2.1547   -0.8608   -1.0027 H.spc      1 <1>        0.000
     12 H          -3.9692   -1.1298   -0.7826 H.spc      1 <1>        0.000
@<TRIPOS>BOND
     1    1    2 1  
     2    1    7 1  
     3    2    3 1  
     4    3    4 1  
     5    4    5 2  
     6    4    6 1  
     7    7    8 1  
     8    8    9 2  
     9    8   10 1  
    10    6   11 1  
    11   10   12 1  
# Name:          frag3-234-3/31924 -- energy: 1.451787
# Creation time: Sat Jun  5 12:52:34 2010


@<TRIPOS>MOLECULE
frag3-234-3/31924 -- energy: 1.451787
   12    11     1     1     1
SMALL
USER_CHARGES


@<TRIPOS>ATOM
      1 S1         -1.6268   -0.2623    1.3194 S.3        1 <1>        0.000
      2 S2          0.0193    0.8009    1.5287 S.3        1 <1>        0.000
      3 S3          1.2744   -0.1580    0.2985 S.3        1 <1>        0.000
      4 C1          2.5854    0.9456    0.2421 C.2        1 <1>        0.000
      5 S4          2.5835    2.3151   -0.7630 S.2        1 <1>        0.000
      6 O1          3.6278    0.7280    1.0896 O.3        1 <1>        0.000
      7 S5         -2.3205    0.5136   -0.3796 S.3        1 <1>        0.000
      8 C3         -2.0760   -0.7834   -1.5020 C.2        1 <1>        0.000
      9 S6         -3.1098   -1.0950   -2.7940 S.2        1 <1>        0.000
     10 O2         -1.0056   -1.6141   -1.2698 O.3        1 <1>        0.000
     11 H           3.4747   -0.0817    1.5821 H.spc      1 <1>        0.000
     12 H          -0.5197   -1.3014   -0.5032 H.spc      1 <1>        0.000
@<TRIPOS>BOND
     1    1    2 1  
     2    1    7 1  
     3    2    3 1  
     4    3    4 1  
     5    4    5 2  
     6    4    6 1  
     7    7    8 1  
     8    8    9 2  
     9    8   10 1  
    10    6   11 1  
    11   10   12 1  
# Name:          frag3-234-3/31924 -- energy: -1.588288
# Creation time: Sat Jun  5 12:52:34 2010


@<TRIPOS>MOLECULE
frag3-234-3/31924 -- energy: -1.588288
   12    11     1     1     1
SMALL
USER_CHARGES


@<TRIPOS>ATOM
      1 S1          0.5344   -0.5921    0.6774 S.3        1 <1>        0.000
      2 S2         -0.2833    0.4492   -0.8066 S.3        1 <1>        0.000
      3 S3         -2.1829    0.4276   -0.2549 S.3        1 <1>        0.000
      4 C1         -2.6871   -0.9853   -1.1048 C.2        1 <1>        0.000
      5 S4         -2.6861   -1.0596   -2.8027 S.2        1 <1>        0.000
      6 O1         -3.0371   -2.0942   -0.3976 O.3        1 <1>        0.000
      7 S5          1.3648    0.8699    1.7236 S.3        1 <1>        0.000
      8 C3          2.6399    1.3179    0.6138 C.2        1 <1>        0.000
      9 S6          2.4604    2.3942   -0.6667 S.2        1 <1>        0.000
     10 O2          3.8285    0.6629    0.7887 O.3        1 <1>        0.000
     11 H          -2.9910   -1.9011    0.5416 H.spc      1 <1>        0.000
     12 H           3.7672    0.0908    1.5571 H.spc      1 <1>        0.000
@<TRIPOS>BOND
     1    1    2 1  
     2    1    7 1  
     3    2    3 1  
     4    3    4 1  
     5    4    5 2  
     6    4    6 1  
     7    7    8 1  
     8    8    9 2  
     9    8   10 1  
    10    6   11 1  
    11   10   12 1  
# Name:          frag3-234-3/31924 -- energy: 2.716343
# Creation time: Sat Jun  5 12:52:34 2010


@<TRIPOS>MOLECULE
frag3-234-3/31924 -- energy: 2.716343
   12    11     1     1     1
SMALL
USER_CHARGES


@<TRIPOS>ATOM
      1 S1          0.0278    0.4298    0.8601 S.3        1 <1>        0.000
      2 S2         -1.7295    1.0473    0.1667 S.3        1 <1>        0.000
      3 S3         -1.6702    0.2018   -1.6403 S.3        1 <1>        0.000
      4 C1         -2.3194   -1.3732   -1.2500 C.2        1 <1>        0.000
      5 S4         -3.1681   -2.3132   -2.3658 S.2        1 <1>        0.000
      6 O1         -2.1468   -1.8181    0.0365 O.3        1 <1>        0.000
      7 S5          1.1976    1.8839    0.1460 S.3        1 <1>        0.000
      8 C3          2.7798    1.2463    0.4707 C.2        1 <1>        0.000
      9 S6          3.9759    2.1344    1.2565 S.2        1 <1>        0.000
     10 O2          3.0045   -0.0487    0.0895 O.3        1 <1>        0.000
     11 H          -1.6463   -1.1676    0.5344 H.spc      1 <1>        0.000
     12 H           2.2194   -0.3952   -0.3408 H.spc      1 <1>        0.000
@<TRIPOS>BOND
     1    1    2 1  
     2    1    7 1  
     3    2    3 1  
     4    3    4 1  
     5    4    5 2  
     6    4    6 1  
     7    7    8 1  
     8    8    9 2  
     9    8   10 1  
    10    6   11 1  
    11   10   12 1  
# Name:          frag3-234-3/31924 -- energy: 0.390229
# Creation time: Sat Jun  5 12:52:34 2010


@<TRIPOS>MOLECULE
frag3-234-3/31924 -- energy: 0.390229
   12    11     1     1     1
SMALL
USER_CHARGES


@<TRIPOS>ATOM
      1 S1         -1.1225    1.0169    0.1149 S.3        1 <1>        0.000
      2 S2          0.3320    1.0716   -1.2554 S.3        1 <1>        0.000
      3 S3          1.6245    2.2516   -0.3565 S.3        1 <1>        0.000
      4 C1          2.5259    1.0830    0.5690 C.2        1 <1>        0.000
      5 S4          4.2000    1.1518    0.7524 S.2        1 <1>        0.000
      6 O1          1.8199    0.0403    1.1203 O.3        1 <1>        0.000
      7 S5         -2.6397    0.3545   -0.9743 S.3        1 <1>        0.000
      8 C3         -2.4048   -1.3594   -0.7682 C.2        1 <1>        0.000
      9 S6         -1.1115   -2.2084   -1.4803 S.2        1 <1>        0.000
     10 O2         -3.2723   -2.0114    0.0482 O.3        1 <1>        0.000
     11 H           0.8861    0.1497    0.9264 H.spc      1 <1>        0.000
     12 H          -3.9371   -1.3952    0.3644 H.spc      1 <1>        0.000
@<TRIPOS>BOND
     1    1    2 1  
     2    1    7 1  
     3    2    3 1  
     4    3    4 1  
     5    4    5 2  
     6    4    6 1  
     7    7    8 1  
     8    8    9 2  
     9    8   10 1  
    10    6   11 1  
    11   10   12 1  
# Name:          frag3-234-3/31924 -- energy: -0.547917
# Creation time: Sat Jun  5 12:52:34 2010


@<TRIPOS>MOLECULE
frag3-234-3/31924 -- energy: -0.547917
   12    11     1     1     1
SMALL
USER_CHARGES


@<TRIPOS>ATOM
      1 S1          0.2150    0.0519    1.1051 S.3        1 <1>        0.000
      2 S2         -1.7301    0.4596    1.0983 S.3        1 <1>        0.000
      3 S3         -2.4451   -1.2653    0.4263 S.3        1 <1>        0.000
      4 C1         -2.2453   -1.0438   -1.2955 C.2        1 <1>        0.000
      5 S4         -1.6762   -2.2565   -2.3268 S.2        1 <1>        0.000
      6 O1         -2.5538    0.1949   -1.7918 O.3        1 <1>        0.000
      7 S5          0.9430    1.6191    0.1274 S.3        1 <1>        0.000
      8 C3          2.6349    1.2586    0.1145 C.2        1 <1>        0.000
      9 S6          3.8190    2.3922    0.5305 S.2        1 <1>        0.000
     10 O2          2.9902   -0.0202   -0.2180 O.3        1 <1>        0.000
     11 H          -2.8596    0.7578   -1.0768 H.spc      1 <1>        0.000
     12 H           2.2014   -0.5267   -0.4249 H.spc      1 <1>        0.000
@<TRIPOS>BOND
     1    1    2 1  
     2    1    7 1  
     3    2    3 1  
     4    3    4 1  
     5    4    5 2  
     6    4    6 1  
     7    7    8 1  
     8    8    9 2  
     9    8   10 1  
    10    6   11 1  
    11   10   12 1  
# Name:          frag3-234-3/31924 -- energy: -1.294934
# Creation time: Sat Jun  5 12:52:34 2010


@<TRIPOS>MOLECULE
frag3-234-3/31924 -- energy: -1.294934
   12    11     1     1     1
SMALL
USER_CHARGES


@<TRIPOS>ATOM
      1 S1         -0.2896   -0.1331   -0.7916 S.3        1 <1>        0.000
      2 S2          0.5805   -0.1225    0.9807 S.3        1 <1>        0.000
      3 S3          1.1818    1.7825    1.0709 S.3        1 <1>        0.000
      4 C1          2.8475    1.5580    0.6562 C.2        1 <1>        0.000
      5 S4          3.3582    0.9868   -0.8642 S.2        1 <1>        0.000
      6 O1          3.7687    1.7870    1.6310 O.3        1 <1>        0.000
      7 S5         -2.2003    0.0645   -0.2421 S.3        1 <1>        0.000
      8 C3         -2.9186   -1.1806   -1.2046 C.2        1 <1>        0.000
      9 S6         -3.0246   -1.0473   -2.8900 S.2        1 <1>        0.000
     10 O2         -3.3521   -2.3049   -0.5763 O.3        1 <1>        0.000
     11 H           3.3248    2.1035    2.4212 H.spc      1 <1>        0.000
     12 H          -3.2191   -2.2128    0.3700 H.spc      1 <1>        0.000
@<TRIPOS>BOND
     1    1    2 1  
     2    1    7 1  
     3    2    3 1  
     4    3    4 1  
     5    4    5 2  
     6    4    6 1  
     7    7    8 1  
     8    8    9 2  
     9    8   10 1  
    10    6   11 1  
    11   10   12 1  
# Name:          frag3-234-3/31924 -- energy: 0.797419
# Creation time: Sat Jun  5 12:52:34 2010


@<TRIPOS>MOLECULE
frag3-234-3/31924 -- energy: 0.797419
   12    11     1     1     1
SMALL
USER_CHARGES


@<TRIPOS>ATOM
      1 S1         -0.8494    0.0416    0.4574 S.3        1 <1>        0.000
      2 S2          0.1359    1.7540    0.3430 S.3        1 <1>        0.000
      3 S3          1.7247    1.1379   -0.7199 S.3        1 <1>        0.000
      4 C1          2.9179    1.1598    0.5460 C.2        1 <1>        0.000
      5 S4          3.5775    2.6291    1.1072 S.2        1 <1>        0.000
      6 O1          3.2868   -0.0143    1.1135 O.3        1 <1>        0.000
      7 S5         -1.8078    0.0890   -1.2967 S.3        1 <1>        0.000
      8 C3         -2.7435   -1.3623   -1.2209 C.2        1 <1>        0.000
      9 S6         -3.1918   -2.2446   -2.5890 S.2        1 <1>        0.000
     10 O2         -3.0987   -1.7999    0.0294 O.3        1 <1>        0.000
     11 H           2.8248   -0.7364    0.6814 H.spc      1 <1>        0.000
     12 H          -2.7666   -1.1859    0.6884 H.spc      1 <1>        0.000
@<TRIPOS>BOND
     1    1    2 1  
     2    1    7 1  
     3    2    3 1  
     4    3    4 1  
     5    4    5 2  
     6    4    6 1  
     7    7    8 1  
     8    8    9 2  
     9    8   10 1  
    10    6   11 1  
    11   10   12 1  
# Name:          frag3-234-3/31924 -- energy: 0.561683
# Creation time: Sat Jun  5 12:52:34 2010


@<TRIPOS>MOLECULE
frag3-234-3/31924 -- energy: 0.561683
   12    11     1     1     1
SMALL
USER_CHARGES


@<TRIPOS>ATOM
      1 S1         -0.2864   -0.6885    0.3888 S.3        1 <1>        0.000
      2 S2         -0.0264    1.1891   -0.2453 S.3        1 <1>        0.000
      3 S3          1.0278    1.9242    1.2674 S.3        1 <1>        0.000
      4 C1          2.6288    1.4320    0.7578 C.2        1 <1>        0.000
      5 S4          3.3681    2.1244   -0.6038 S.2        1 <1>        0.000
      6 O1          3.2466    0.4441    1.4518 O.3        1 <1>        0.000
      7 S5         -0.8353   -1.5716   -1.2861 S.3        1 <1>        0.000
      8 C3         -2.5513   -1.2540   -1.2704 C.2        1 <1>        0.000
      9 S6         -3.4821   -1.0533   -2.6600 S.2        1 <1>        0.000
     10 O2         -3.1381   -1.1559   -0.0302 O.3        1 <1>        0.000
     11 H           2.6893    0.1729    2.1850 H.spc      1 <1>        0.000
     12 H          -2.4738   -1.2949    0.6488 H.spc      1 <1>        0.000
@<TRIPOS>BOND
     1    1    2 1  
     2    1    7 1  
     3    2    3 1  
     4    3    4 1  
     5    4    5 2  
     6    4    6 1  
     7    7    8 1  
     8    8    9 2  
     9    8   10 1  
    10    6   11 1  
    11   10   12 1  
# Name:          frag3-234-3/31924 -- energy: 2.162712
# Creation time: Sat Jun  5 12:52:34 2010


@<TRIPOS>MOLECULE
frag3-234-3/31924 -- energy: 2.162712
   12    11     1     1     1
SMALL
USER_CHARGES


@<TRIPOS>ATOM
      1 S1          0.1208    0.9721    0.7697 S.3        1 <1>        0.000
      2 S2         -0.5661   -0.8304    0.3317 S.3        1 <1>        0.000
      3 S3         -1.3300   -0.4593   -1.4825 S.3        1 <1>        0.000
      4 C1         -2.8329   -1.3130   -1.3837 C.2        1 <1>        0.000
      5 S4         -4.1854   -0.9205   -2.3145 S.2        1 <1>        0.000
      6 O1         -2.8909   -2.3478   -0.4842 O.3        1 <1>        0.000
      7 S5          1.7092    1.0073   -0.4548 S.3        1 <1>        0.000
      8 C3          2.9420    1.5376    0.6425 C.2        1 <1>        0.000
      9 S6          3.8790    2.9178    0.3487 S.2        1 <1>        0.000
     10 O2          3.1059    0.8266    1.7972 O.3        1 <1>        0.000
     11 H          -2.0428   -2.4346   -0.0429 H.spc      1 <1>        0.000
     12 H           2.5006    0.0815    1.8015 H.spc      1 <1>        0.000
@<TRIPOS>BOND
     1    1    2 1  
     2    1    7 1  
     3    2    3 1  
     4    3    4 1  
     5    4    5 2  
     6    4    6 1  
     7    7    8 1  
     8    8    9 2  
     9    8   10 1  
    10    6   11 1  
    11   10   12 1  
# Name:          frag3-234-3/31924 -- energy: -0.412325
# Creation time: Sat Jun  5 12:52:34 2010


@<TRIPOS>MOLECULE
frag3-234-3/31924 -- energy: -0.412325
   12    11     1     1     1
SMALL
USER_CHARGES


@<TRIPOS>ATOM
      1 S1          0.2141    1.0931   -0.0702 S.3        1 <1>        0.000
      2 S2         -1.3536    0.2089    0.7446 S.3        1 <1>        0.000
      3 S3         -1.3397   -1.5142   -0.2589 S.3        1 <1>        0.000
      4 C1         -2.7362   -1.2924   -1.2691 C.2        1 <1>        0.000
      5 S4         -2.7845   -1.7140   -2.9028 S.2        1 <1>        0.000
      6 O1         -3.8314   -0.7174   -0.6741 O.3        1 <1>        0.000
      7 S5          1.6519    0.4717    1.1868 S.3        1 <1>        0.000
      8 C3          3.0157    1.2974    0.5282 C.2        1 <1>        0.000
      9 S6          3.1250    2.9998    0.5387 S.2        1 <1>        0.000
     10 O2          3.9904    0.5575   -0.0533 O.3        1 <1>        0.000
     11 H          -3.6372   -0.5422    0.2496 H.spc      1 <1>        0.000
     12 H           3.7751   -0.3744    0.0287 H.spc      1 <1>        0.000
@<TRIPOS>BOND
     1    1    2 1  
     2    1    7 1  
     3    2    3 1  
     4    3    4 1  
     5    4    5 2  
     6    4    6 1  
     7    7    8 1  
     8    8    9 2  
     9    8   10 1  
    10    6   11 1  
    11   10   12 1  
# Name:          frag3-234-3/31924 -- energy: 0.966260
# Creation time: Sat Jun  5 12:52:34 2010


@<TRIPOS>MOLECULE
frag3-234-3/31924 -- energy: 0.966260
   12    11     1     1     1
SMALL
USER_CHARGES


@<TRIPOS>ATOM
      1 S1         -0.0499    0.3414    0.6928 S.3        1 <1>        0.000
      2 S2         -1.7852    1.0793    0.0767 S.3        1 <1>        0.000
      3 S3         -1.8043    0.3025   -1.7748 S.3        1 <1>        0.000
      4 C1         -2.1882   -1.3481   -1.3472 C.2        1 <1>        0.000
      5 S4         -3.7131   -1.7634   -0.7077 S.2        1 <1>        0.000
      6 O1         -1.2297   -2.2977   -1.4860 O.3        1 <1>        0.000
      7 S5          1.1950    1.6963   -0.0766 S.3        1 <1>        0.000
      8 C3          2.7078    1.2150    0.5942 C.2        1 <1>        0.000
      9 S6          3.9923    2.2740    0.8542 S.2        1 <1>        0.000
     10 O2          2.8266   -0.1090    0.9443 O.3        1 <1>        0.000
     11 H          -0.4386   -1.9004   -1.8573 H.spc      1 <1>        0.000
     12 H           2.0118   -0.5696    0.7309 H.spc      1 <1>        0.000
@<TRIPOS>BOND
     1    1    2 1  
     2    1    7 1  
     3    2    3 1  
     4    3    4 1  
     5    4    5 2  
     6    4    6 1  
     7    7    8 1  
     8    8    9 2  
     9    8   10 1  
    10    6   11 1  
    11   10   12 1  
# Name:          frag3-234-3/31924 -- energy: 1.602798
# Creation time: Sat Jun  5 12:52:34 2010


@<TRIPOS>MOLECULE
frag3-234-3/31924 -- energy: 1.602798
   12    11     1     1     1
SMALL
USER_CHARGES


@<TRIPOS>ATOM
      1 S1         -0.0001    1.5440    1.6062 S.3        1 <1>        0.000
      2 S2         -1.4394    0.3072    1.0673 S.3        1 <1>        0.000
      3 S3         -1.1424    0.2133   -0.9036 S.3        1 <1>        0.000
      4 C1         -2.0431   -1.1860   -1.3396 C.2        1 <1>        0.000
      5 S4         -2.6622   -1.4496   -2.8842 S.2        1 <1>        0.000
      6 O1         -2.2769   -2.1019   -0.3412 O.3        1 <1>        0.000
      7 S5          1.5725    0.3109    1.4445 S.3        1 <1>        0.000
      8 C3          2.3773    0.9890    0.0644 C.2        1 <1>        0.000
      9 S6          3.5938    2.1622    0.2314 S.2        1 <1>        0.000
     10 O2          1.9720    0.6014   -1.1754 O.3        1 <1>        0.000
     11 H          -1.8585   -1.8035    0.4697 H.spc      1 <1>        0.000
     12 H           1.2838   -0.0628   -1.0928 H.spc      1 <1>        0.000
@<TRIPOS>BOND
     1    1    2 1  
     2    1    7 1  
     3    2    3 1  
     4    3    4 1  
     5    4    5 2  
     6    4    6 1  
     7    7    8 1  
     8    8    9 2  
     9    8   10 1  
    10    6   11 1  
    11   10   12 1  
# Name:          frag3-234-3/31924 -- energy: -1.179796
# Creation time: Sat Jun  5 12:52:34 2010


@<TRIPOS>MOLECULE
frag3-234-3/31924 -- energy: -1.179796
   12    11     1     1     1
SMALL
USER_CHARGES


@<TRIPOS>ATOM
      1 S1         -1.0541    0.3359    0.7861 S.3        1 <1>        0.000
      2 S2          0.6736   -0.6229    0.5169 S.3        1 <1>        0.000
      3 S3          1.9078    0.5430    1.5247 S.3        1 <1>        0.000
      4 C1          2.7007    1.3764    0.2092 C.2        1 <1>        0.000
      5 S4          2.8506    3.0486    0.1238 S.2        1 <1>        0.000
      6 O1          3.1805    0.5780   -0.7981 O.3        1 <1>        0.000
      7 S5         -2.3430   -1.1532    0.5196 S.3        1 <1>        0.000
      8 C3         -2.6438   -0.9555   -1.1870 C.2        1 <1>        0.000
      9 S6         -1.4847   -1.3417   -2.3749 S.2        1 <1>        0.000
     10 O2         -3.8359   -0.4183   -1.5504 O.3        1 <1>        0.000
     11 H           3.0102   -0.3422   -0.5842 H.spc      1 <1>        0.000
     12 H          -4.3676   -0.2623   -0.7665 H.spc      1 <1>        0.000
@<TRIPOS>BOND
     1    1    2 1  
     2    1    7 1  
     3    2    3 1  
     4    3    4 1  
     5    4    5 2  
     6    4    6 1  
     7    7    8 1  
     8    8    9 2  
     9    8   10 1  
    10    6   11 1  
    11   10   12 1  
# Name:          frag3-234-3/31924 -- energy: 2.713389
# Creation time: Sat Jun  5 12:52:34 2010


@<TRIPOS>MOLECULE
frag3-234-3/31924 -- energy: 2.713389
   12    11     1     1     1
SMALL
USER_CHARGES


@<TRIPOS>ATOM
      1 S1          0.4196    0.7979   -0.7950 S.3        1 <1>        0.000
      2 S2         -0.8872    0.2814    0.6229 S.3        1 <1>        0.000
      3 S3         -2.5770    0.4211   -0.3841 S.3        1 <1>        0.000
      4 C1         -2.6206   -1.1322   -1.1926 C.2        1 <1>        0.000
      5 S4         -3.5233   -1.4408   -2.5704 S.2        1 <1>        0.000
      6 O1         -1.8522   -2.1224   -0.6231 O.3        1 <1>        0.000
      7 S5          2.0448   -0.1482   -0.1539 S.3        1 <1>        0.000
      8 C3          2.7715    1.1438    0.7613 C.2        1 <1>        0.000
      9 S6          3.3105    2.5710   -0.0020 S.2        1 <1>        0.000
     10 O2          2.8655    1.0187    2.1068 O.3        1 <1>        0.000
     11 H          -1.4062   -1.7737    0.1522 H.spc      1 <1>        0.000
     12 H           2.5210    0.1629    2.3723 H.spc      1 <1>        0.000
@<TRIPOS>BOND
     1    1    2 1  
     2    1    7 1  
     3    2    3 1  
     4    3    4 1  
     5    4    5 2  
     6    4    6 1  
     7    7    8 1  
     8    8    9 2  
     9    8   10 1  
    10    6   11 1  
    11   10   12 1  
# Name:          frag3-234-3/31924 -- energy: -1.530129
# Creation time: Sat Jun  5 12:52:34 2010


@<TRIPOS>MOLECULE
frag3-234-3/31924 -- energy: -1.530129
   12    11     1     1     1
SMALL
USER_CHARGES


@<TRIPOS>ATOM
      1 S1          0.0255    0.4008    0.7354 S.3        1 <1>        0.000
      2 S2         -1.7550    1.1711    0.3570 S.3        1 <1>        0.000
      3 S3         -2.0458    0.4613   -1.4827 S.3        1 <1>        0.000
      4 C1         -2.3332   -1.2140   -1.0952 C.2        1 <1>        0.000
      5 S4         -1.2387   -2.4605   -1.4217 S.2        1 <1>        0.000
      6 O1         -3.5021   -1.4933   -0.4375 O.3        1 <1>        0.000
      7 S5          1.2092    1.7752   -0.1191 S.3        1 <1>        0.000
      8 C3          2.7562    1.1269    0.2261 C.2        1 <1>        0.000
      9 S6          3.2746    0.8252    1.8219 S.2        1 <1>        0.000
     10 O2          3.5610    0.7977   -0.8141 O.3        1 <1>        0.000
     11 H          -4.0089   -0.6850   -0.3307 H.spc      1 <1>        0.000
     12 H           3.1275    1.0298   -1.6386 H.spc      1 <1>        0.000
@<TRIPOS>BOND
     1    1    2 1  
     2    1    7 1  
     3    2    3 1  
     4    3    4 1  
     5    4    5 2  
     6    4    6 1  
     7    7    8 1  
     8    8    9 2  
     9    8   10 1  
    10    6   11 1  
    11   10   12 1  
# Name:          frag3-234-3/31924 -- energy: -0.597027
# Creation time: Sat Jun  5 12:52:34 2010


@<TRIPOS>MOLECULE
frag3-234-3/31924 -- energy: -0.597027
   12    11     1     1     1
SMALL
USER_CHARGES


@<TRIPOS>ATOM
      1 S1          0.1925   -0.0524    1.7148 S.3        1 <1>        0.000
      2 S2         -1.2402    0.8709    0.6776 S.3        1 <1>        0.000
      3 S3         -2.4140   -0.6491    0.2296 S.3        1 <1>        0.000
      4 C1         -2.0325   -0.8872   -1.4573 C.2        1 <1>        0.000
      5 S4         -3.1651   -1.4049   -2.5838 S.2        1 <1>        0.000
      6 O1         -0.7497   -0.5846   -1.8427 O.3        1 <1>        0.000
      7 S5          1.5948    1.3461    1.7451 S.3        1 <1>        0.000
      8 C3          2.4051    0.9909    0.2414 C.2        1 <1>        0.000
      9 S6          1.9879    1.7266   -1.2310 S.2        1 <1>        0.000
     10 O2          3.3729    0.0341    0.2762 O.3        1 <1>        0.000
     11 H          -0.2431   -0.3081   -1.0756 H.spc      1 <1>        0.000
     12 H           3.4837   -0.2747    1.1784 H.spc      1 <1>        0.000
@<TRIPOS>BOND
     1    1    2 1  
     2    1    7 1  
     3    2    3 1  
     4    3    4 1  
     5    4    5 2  
     6    4    6 1  
     7    7    8 1  
     8    8    9 2  
     9    8   10 1  
    10    6   11 1  
    11   10   12 1  
# Name:          frag3-234-3/31924 -- energy: -1.781379
# Creation time: Sat Jun  5 12:52:34 2010


@<TRIPOS>MOLECULE
frag3-234-3/31924 -- energy: -1.781379
   12    11     1     1     1
SMALL
USER_CHARGES


@<TRIPOS>ATOM
      1 S1         -0.0482    1.2903    1.3817 S.3        1 <1>        0.000
      2 S2         -1.5639    0.0282    1.4388 S.3        1 <1>        0.000
      3 S3         -2.5311    0.4739   -0.2213 S.3        1 <1>        0.000
      4 C1         -1.9720   -0.7524   -1.3034 C.2        1 <1>        0.000
      5 S4         -1.2915   -0.4592   -2.8124 S.2        1 <1>        0.000
      6 O1         -2.0797   -2.0485   -0.8466 O.3        1 <1>        0.000
      7 S5          1.5245    0.0782    1.3433 S.3        1 <1>        0.000
      8 C3          2.4274    0.7344    0.0253 C.2        1 <1>        0.000
      9 S6          1.9419    0.6015   -1.5837 S.2        1 <1>        0.000
     10 O2          3.5442    1.4440    0.3485 O.3        1 <1>        0.000
     11 H          -2.4858   -2.0473    0.0233 H.spc      1 <1>        0.000
     12 H           3.6747    1.4177    1.2992 H.spc      1 <1>        0.000
@<TRIPOS>BOND
     1    1    2 1  
     2    1    7 1  
     3    2    3 1  
     4    3    4 1  
     5    4    5 2  
     6    4    6 1  
     7    7    8 1  
     8    8    9 2  
     9    8   10 1  
    10    6   11 1  
    11   10   12 1  
# Name:          frag3-234-3/31924 -- energy: -0.151353
# Creation time: Sat Jun  5 12:52:34 2010


@<TRIPOS>MOLECULE
frag3-234-3/31924 -- energy: -0.151353
   12    11     1     1     1
SMALL
USER_CHARGES


@<TRIPOS>ATOM
      1 S1         -1.2233    1.2536   -1.1650 S.3        1 <1>        0.000
      2 S2          0.7521    1.2353   -1.3804 S.3        1 <1>        0.000
      3 S3          1.3152    2.2138    0.2460 S.3        1 <1>        0.000
      4 C1          2.3699    1.0498    0.9850 C.2        1 <1>        0.000
      5 S4          3.8288    1.4843    1.7224 S.2        1 <1>        0.000
      6 O1          1.9996   -0.2660    0.9122 O.3        1 <1>        0.000
      7 S5         -1.7097   -0.4030   -2.1343 S.3        1 <1>        0.000
      8 C3         -2.2440   -1.4136   -0.8219 C.2        1 <1>        0.000
      9 S6         -3.5540   -2.4729   -0.9647 S.2        1 <1>        0.000
     10 O2         -1.5831   -1.2909    0.3707 O.3        1 <1>        0.000
     11 H           1.1521   -0.3346    0.4664 H.spc      1 <1>        0.000
     12 H          -0.8719   -0.6529    0.2770 H.spc      1 <1>        0.000
@<TRIPOS>BOND
     1    1    2 1  
     2    1    7 1  
     3    2    3 1  
     4    3    4 1  
     5    4    5 2  
     6    4    6 1  
     7    7    8 1  
     8    8    9 2  
     9    8   10 1  
    10    6   11 1  
    11   10   12 1  
# Name:          frag3-234-3/31924 -- energy: -1.130423
# Creation time: Sat Jun  5 12:52:34 2010


@<TRIPOS>MOLECULE
frag3-234-3/31924 -- energy: -1.130423
   12    11     1     1     1
SMALL
USER_CHARGES


@<TRIPOS>ATOM
      1 S1          0.7441   -0.1465    0.8307 S.3        1 <1>        0.000
      2 S2         -1.0283    0.3265    0.0952 S.3        1 <1>        0.000
      3 S3         -1.2392   -1.1468   -1.2439 S.3        1 <1>        0.000
      4 C1         -2.9607   -1.2953   -1.2782 C.2        1 <1>        0.000
      5 S4         -3.8779   -0.8539   -2.6344 S.2        1 <1>        0.000
      6 O1         -3.5798   -1.7328   -0.1433 O.3        1 <1>        0.000
      7 S5          1.9250    0.7613   -0.5132 S.3        1 <1>        0.000
      8 C3          3.0446    1.5439    0.5526 C.2        1 <1>        0.000
      9 S6          2.7741    3.0964    1.1876 S.2        1 <1>        0.000
     10 O2          4.1497    0.8375    0.9169 O.3        1 <1>        0.000
     11 H          -2.9186   -1.9388    0.5215 H.spc      1 <1>        0.000
     12 H           4.1471   -0.0118    0.4694 H.spc      1 <1>        0.000
@<TRIPOS>BOND
     1    1    2 1  
     2    1    7 1  
     3    2    3 1  
     4    3    4 1  
     5    4    5 2  
     6    4    6 1  
     7    7    8 1  
     8    8    9 2  
     9    8   10 1  
    10    6   11 1  
    11   10   12 1  
# Name:          frag3-234-3/31924 -- energy: -1.514564
# Creation time: Sat Jun  5 12:52:34 2010


@<TRIPOS>MOLECULE
frag3-234-3/31924 -- energy: -1.514564
   12    11     1     1     1
SMALL
USER_CHARGES


@<TRIPOS>ATOM
      1 S1         -0.9002    0.4041    0.6587 S.3        1 <1>        0.000
      2 S2          0.0625    2.1026    0.4170 S.3        1 <1>        0.000
      3 S3          1.4598    1.5121   -0.8934 S.3        1 <1>        0.000
      4 C1          2.6333    0.9096    0.2287 C.2        1 <1>        0.000
      5 S4          3.4146    1.9373    1.3383 S.2        1 <1>        0.000
      6 O1          2.8929   -0.4236    0.2600 O.3        1 <1>        0.000
      7 S5         -1.9873    0.3527   -1.0255 S.3        1 <1>        0.000
      8 C3         -2.4698   -1.2830   -1.0712 C.2        1 <1>        0.000
      9 S6         -1.3730   -2.5605   -1.3005 S.2        1 <1>        0.000
     10 O2         -3.7812   -1.5609   -0.8422 O.3        1 <1>        0.000
     11 H           2.3800   -0.8644   -0.4213 H.spc      1 <1>        0.000
     12 H          -4.2670   -0.7400   -0.7343 H.spc      1 <1>        0.000
@<TRIPOS>BOND
     1    1    2 1  
     2    1    7 1  
     3    2    3 1  
     4    3    4 1  
     5    4    5 2  
     6    4    6 1  
     7    7    8 1  
     8    8    9 2  
     9    8   10 1  
    10    6   11 1  
    11   10   12 1  
# Name:          frag3-234-3/31924 -- energy: -0.088420
# Creation time: Sat Jun  5 12:52:34 2010


@<TRIPOS>MOLECULE
frag3-234-3/31924 -- energy: -0.088420
   12    11     1     1     1
SMALL
USER_CHARGES


@<TRIPOS>ATOM
      1 S1          0.3205   -0.2604    1.5497 S.3        1 <1>        0.000
      2 S2         -1.6450   -0.5160    1.6084 S.3        1 <1>        0.000
      3 S3         -1.8611   -1.7656    0.0707 S.3        1 <1>        0.000
      4 C1         -1.8374   -0.6535   -1.2744 C.2        1 <1>        0.000
      5 S4         -1.2541   -1.0470   -2.8055 S.2        1 <1>        0.000
      6 O1         -2.3136    0.6123   -1.0255 O.3        1 <1>        0.000
      7 S5          0.4805    1.1766    0.1734 S.3        1 <1>        0.000
      8 C3          2.1845    1.2131   -0.1148 C.2        1 <1>        0.000
      9 S6          3.0891    2.6288   -0.0780 S.2        1 <1>        0.000
     10 O2          2.7884    0.0020   -0.3338 O.3        1 <1>        0.000
     11 H          -2.6051    0.6695   -0.1126 H.spc      1 <1>        0.000
     12 H           2.1251   -0.6919   -0.3219 H.spc      1 <1>        0.000
@<TRIPOS>BOND
     1    1    2 1  
     2    1    7 1  
     3    2    3 1  
     4    3    4 1  
     5    4    5 2  
     6    4    6 1  
     7    7    8 1  
     8    8    9 2  
     9    8   10 1  
    10    6   11 1  
    11   10   12 1  
# Name:          frag3-234-3/31924 -- energy: -2.625360
# Creation time: Sat Jun  5 12:52:34 2010


@<TRIPOS>MOLECULE
frag3-234-3/31924 -- energy: -2.625360
   12    11     1     1     1
SMALL
USER_CHARGES


@<TRIPOS>ATOM
      1 S1         -1.4755    1.6012    0.2326 S.3        1 <1>        0.000
      2 S2         -0.2422    0.9734    1.6626 S.3        1 <1>        0.000
      3 S3          1.4816    1.7364    1.1177 S.3        1 <1>        0.000
      4 C1          2.0381    0.5548   -0.0120 C.2        1 <1>        0.000
      5 S4          1.9717    0.7160   -1.6865 S.2        1 <1>        0.000
      6 O1          2.5039   -0.6187    0.5277 O.3        1 <1>        0.000
      7 S5         -2.6125    0.0117   -0.0340 S.3        1 <1>        0.000
      8 C3         -1.5611   -0.9662   -1.0008 C.2        1 <1>        0.000
      9 S6         -1.1458   -0.5375   -2.5896 S.2        1 <1>        0.000
     10 O2         -1.0067   -2.0806   -0.4477 O.3        1 <1>        0.000
     11 H           2.4821   -0.5599    1.4856 H.spc      1 <1>        0.000
     12 H          -1.3362   -2.1901    0.4473 H.spc      1 <1>        0.000
@<TRIPOS>BOND
     1    1    2 1  
     2    1    7 1  
     3    2    3 1  
     4    3    4 1  
     5    4    5 2  
     6    4    6 1  
     7    7    8 1  
     8    8    9 2  
     9    8   10 1  
    10    6   11 1  
    11   10   12 1  
# Name:          frag3-234-3/31924 -- energy: -1.086439
# Creation time: Sat Jun  5 12:52:34 2010


@<TRIPOS>MOLECULE
frag3-234-3/31924 -- energy: -1.086439
   12    11     1     1     1
SMALL
USER_CHARGES


@<TRIPOS>ATOM
      1 S1         -0.0064    2.2044    0.1385 S.3        1 <1>        0.000
      2 S2         -1.3320    0.8128    0.6311 S.3        1 <1>        0.000
      3 S3         -2.2190    0.4782   -1.0965 S.3        1 <1>        0.000
      4 C1         -1.9709   -1.2191   -1.2981 C.2        1 <1>        0.000
      5 S4         -3.1559   -2.2581   -1.8969 S.2        1 <1>        0.000
      6 O1         -0.7586   -1.7244   -0.8936 O.3        1 <1>        0.000
      7 S5          1.4205    1.8425    1.4716 S.3        1 <1>        0.000
      8 C3          2.3735    0.6972    0.5744 C.2        1 <1>        0.000
      9 S6          3.0966    1.1208   -0.9124 S.2        1 <1>        0.000
     10 O2          2.5039   -0.5639    1.0518 O.3        1 <1>        0.000
     11 H          -0.2021   -1.0069   -0.5819 H.spc      1 <1>        0.000
     12 H           2.0425   -0.6367    1.8905 H.spc      1 <1>        0.000
@<TRIPOS>BOND
     1    1    2 1  
     2    1    7 1  
     3    2    3 1  
     4    3    4 1  
     5    4    5 2  
     6    4    6 1  
     7    7    8 1  
     8    8    9 2  
     9    8   10 1  
    10    6   11 1  
    11   10   12 1  
# Name:          frag3-234-3/31924 -- energy: 1.962093
# Creation time: Sat Jun  5 12:52:34 2010


@<TRIPOS>MOLECULE
frag3-234-3/31924 -- energy: 1.962093
   12    11     1     1     1
SMALL
USER_CHARGES


@<TRIPOS>ATOM
      1 S1         -0.1219    1.1393    0.1508 S.3        1 <1>        0.000
      2 S2          0.0557   -0.3535   -1.1746 S.3        1 <1>        0.000
      3 S3         -1.7184   -0.2098   -2.0551 S.3        1 <1>        0.000
      4 C1         -2.6452   -1.2913   -1.0266 C.2        1 <1>        0.000
      5 S4         -3.7657   -2.3842   -1.6482 S.2        1 <1>        0.000
      6 O1         -2.3882   -1.2371    0.3173 O.3        1 <1>        0.000
      7 S5          1.5360    2.1432   -0.2821 S.3        1 <1>        0.000
      8 C3          2.6602    1.3587    0.8187 C.2        1 <1>        0.000
      9 S6          3.8055    2.2214    1.7019 S.2        1 <1>        0.000
     10 O2          2.5337    0.0038    0.9679 O.3        1 <1>        0.000
     11 H          -1.7281   -0.5614    0.4887 H.spc      1 <1>        0.000
     12 H           1.8369   -0.3169    0.3906 H.spc      1 <1>        0.000
@<TRIPOS>BOND
     1    1    2 1  
     2    1    7 1  
     3    2    3 1  
     4    3    4 1  
     5    4    5 2  
     6    4    6 1  
     7    7    8 1  
     8    8    9 2  
     9    8   10 1  
    10    6   11 1  
    11   10   12 1  
# Name:          frag3-234-3/31924 -- energy: -1.511302
# Creation time: Sat Jun  5 12:52:34 2010


@<TRIPOS>MOLECULE
frag3-234-3/31924 -- energy: -1.511302
   12    11     1     1     1
SMALL
USER_CHARGES


@<TRIPOS>ATOM
      1 S1         -0.9452    1.1053   -1.3215 S.3        1 <1>        0.000
      2 S2          0.5548    0.0883   -0.5372 S.3        1 <1>        0.000
      3 S3          0.9625    1.1924    1.0836 S.3        1 <1>        0.000
      4 C1          2.6781    1.2316    0.9913 C.2        1 <1>        0.000
      5 S4          3.5147    1.6860   -0.4094 S.2        1 <1>        0.000
      6 O1          3.3635    0.7968    2.0819 O.3        1 <1>        0.000
      7 S5         -2.4303    0.3193   -0.2469 S.3        1 <1>        0.000
      8 C3         -2.5250   -1.2433   -1.0018 C.2        1 <1>        0.000
      9 S6         -3.5241   -1.5509   -2.3289 S.2        1 <1>        0.000
     10 O2         -1.6973   -2.2352   -0.5411 O.3        1 <1>        0.000
     11 H           2.7440    0.5815    2.7829 H.spc      1 <1>        0.000
     12 H          -1.1973   -1.9096    0.2110 H.spc      1 <1>        0.000
@<TRIPOS>BOND
     1    1    2 1  
     2    1    7 1  
     3    2    3 1  
     4    3    4 1  
     5    4    5 2  
     6    4    6 1  
     7    7    8 1  
     8    8    9 2  
     9    8   10 1  
    10    6   11 1  
    11   10   12 1  
# Name:          frag3-234-3/31924 -- energy: -1.497651
# Creation time: Sat Jun  5 12:52:34 2010


@<TRIPOS>MOLECULE
frag3-234-3/31924 -- energy: -1.497651
   12    11     1     1     1
SMALL
USER_CHARGES


@<TRIPOS>ATOM
      1 S1         -1.0528    1.1195   -0.1124 S.3        1 <1>        0.000
      2 S2          0.5512    1.8810   -0.9674 S.3        1 <1>        0.000
      3 S3          1.8378    0.3636   -0.7468 S.3        1 <1>        0.000
      4 C1          2.4668    0.7921    0.8192 C.2        1 <1>        0.000
      5 S4          2.9789    2.3739    1.1664 S.2        1 <1>        0.000
      6 O1          2.5053   -0.1595    1.7836 O.3        1 <1>        0.000
      7 S5         -1.9003    0.2373   -1.6843 S.3        1 <1>        0.000
      8 C3         -2.3013   -1.3061   -1.0631 C.2        1 <1>        0.000
      9 S6         -3.7788   -1.6206   -0.2995 S.2        1 <1>        0.000
     10 O2         -1.3552   -2.2907   -1.1256 O.3        1 <1>        0.000
     11 H           2.1843   -0.9901    1.4250 H.spc      1 <1>        0.000
     12 H          -0.5804   -1.9597   -1.5857 H.spc      1 <1>        0.000
@<TRIPOS>BOND
     1    1    2 1  
     2    1    7 1  
     3    2    3 1  
     4    3    4 1  
     5    4    5 2  
     6    4    6 1  
     7    7    8 1  
     8    8    9 2  
     9    8   10 1  
    10    6   11 1  
    11   10   12 1  
# Name:          frag3-234-3/31924 -- energy: -1.805441
# Creation time: Sat Jun  5 12:52:34 2010


@<TRIPOS>MOLECULE
frag3-234-3/31924 -- energy: -1.805441
   12    11     1     1     1
SMALL
USER_CHARGES


@<TRIPOS>ATOM
      1 S1         -1.3207   -0.2343    1.2816 S.3        1 <1>        0.000
      2 S2         -0.1359    1.2597    0.7977 S.3        1 <1>        0.000
      3 S3          1.1571    0.3825   -0.4468 S.3        1 <1>        0.000
      4 C1          2.6396    0.9057    0.2534 C.2        1 <1>        0.000
      5 S4          2.9651    2.5503    0.5145 S.2        1 <1>        0.000
      6 O1          3.5352   -0.0335    0.6495 O.3        1 <1>        0.000
      7 S5         -2.7864    0.0778   -0.0346 S.3        1 <1>        0.000
      8 C3         -2.2088   -0.8380   -1.3954 C.2        1 <1>        0.000
      9 S6         -2.2212   -2.5256   -1.4023 S.2        1 <1>        0.000
     10 O2         -1.6724   -0.1542   -2.4474 O.3        1 <1>        0.000
     11 H           3.2007   -0.9060    0.4294 H.spc      1 <1>        0.000
     12 H          -1.7453    0.7892   -2.2850 H.spc      1 <1>        0.000
@<TRIPOS>BOND
     1    1    2 1  
     2    1    7 1  
     3    2    3 1  
     4    3    4 1  
     5    4    5 2  
     6    4    6 1  
     7    7    8 1  
     8    8    9 2  
     9    8   10 1  
    10    6   11 1  
    11   10   12 1  
# Name:          frag3-234-3/31924 -- energy: 0.235554
# Creation time: Sat Jun  5 12:52:34 2010


@<TRIPOS>MOLECULE
frag3-234-3/31924 -- energy: 0.235554
   12    11     1     1     1
SMALL
USER_CHARGES


@<TRIPOS>ATOM
      1 S1          0.5127   -0.4469    0.1504 S.3        1 <1>        0.000
      2 S2         -0.7210    0.9220   -0.6393 S.3        1 <1>        0.000
      3 S3         -1.4476   -0.1106   -2.1623 S.3        1 <1>        0.000
      4 C1         -2.5290   -1.1887   -1.2917 C.2        1 <1>        0.000
      5 S4         -4.2058   -1.0587   -1.4108 S.2        1 <1>        0.000
      6 O1         -1.9582   -2.1140   -0.4637 O.3        1 <1>        0.000
      7 S5          1.2737    0.5739    1.6597 S.3        1 <1>        0.000
      8 C3          2.6363    1.3272    0.8694 C.2        1 <1>        0.000
      9 S6          2.8763    2.9999    0.8190 S.2        1 <1>        0.000
     10 O2          3.5142    0.4862    0.2394 O.3        1 <1>        0.000
     11 H          -1.0023   -2.0472   -0.5217 H.spc      1 <1>        0.000
     12 H           3.2321   -0.4226    0.3664 H.spc      1 <1>        0.000
@<TRIPOS>BOND
     1    1    2 1  
     2    1    7 1  
     3    2    3 1  
     4    3    4 1  
     5    4    5 2  
     6    4    6 1  
     7    7    8 1  
     8    8    9 2  
     9    8   10 1  
    10    6   11 1  
    11   10   12 1  
# Name:          frag3-234-3/31924 -- energy: -1.784150
# Creation time: Sat Jun  5 12:52:34 2010


@<TRIPOS>MOLECULE
frag3-234-3/31924 -- energy: -1.784150
   12    11     1     1     1
SMALL
USER_CHARGES


@<TRIPOS>ATOM
      1 S1         -0.1434    0.8123    1.4058 S.3        1 <1>        0.000
      2 S2         -1.6320   -0.4896    1.5629 S.3        1 <1>        0.000
      3 S3         -2.7368    0.0843    0.0035 S.3        1 <1>        0.000
      4 C1         -1.9002   -0.7247   -1.3090 C.2        1 <1>        0.000
      5 S4         -1.3471    0.0680   -2.6864 S.2        1 <1>        0.000
      6 O1         -1.6808   -2.0673   -1.1383 O.3        1 <1>        0.000
      7 S5          1.0660   -0.1437    0.1388 S.3        1 <1>        0.000
      8 C3          2.3908    0.9524    0.0266 C.2        1 <1>        0.000
      9 S6          3.0492    1.4600   -1.4427 S.2        1 <1>        0.000
     10 O2          2.8860    1.4387    1.2089 O.3        1 <1>        0.000
     11 H          -2.0620   -2.3491   -0.3035 H.spc      1 <1>        0.000
     12 H           2.4022    1.0498    1.9412 H.spc      1 <1>        0.000
@<TRIPOS>BOND
     1    1    2 1  
     2    1    7 1  
     3    2    3 1  
     4    3    4 1  
     5    4    5 2  
     6    4    6 1  
     7    7    8 1  
     8    8    9 2  
     9    8   10 1  
    10    6   11 1  
    11   10   12 1  
# Name:          frag3-234-3/31924 -- energy: -1.426733
# Creation time: Sat Jun  5 12:52:34 2010


@<TRIPOS>MOLECULE
frag3-234-3/31924 -- energy: -1.426733
   12    11     1     1     1
SMALL
USER_CHARGES


@<TRIPOS>ATOM
      1 S1          0.6848   -0.4800    0.1336 S.3        1 <1>        0.000
      2 S2         -1.0323   -0.8585    1.0298 S.3        1 <1>        0.000
      3 S3         -2.2550    0.3225   -0.0303 S.3        1 <1>        0.000
      4 C1         -2.7124   -0.8089   -1.2618 C.2        1 <1>        0.000
      5 S4         -1.6208   -1.4306   -2.4110 S.2        1 <1>        0.000
      6 O1         -3.9958   -1.2566   -1.2489 O.3        1 <1>        0.000
      7 S5          1.2312    1.1856    1.0886 S.3        1 <1>        0.000
      8 C3          2.7820    1.4681    0.4233 C.2        1 <1>        0.000
      9 S6          3.0251    2.3934   -0.9750 S.2        1 <1>        0.000
     10 O2          3.8449    0.8554    1.0216 O.3        1 <1>        0.000
     11 H          -4.4810   -0.8137   -0.5489 H.spc      1 <1>        0.000
     12 H           3.5418    0.3747    1.7953 H.spc      1 <1>        0.000
@<TRIPOS>BOND
     1    1    2 1  
     2    1    7 1  
     3    2    3 1  
     4    3    4 1  
     5    4    5 2  
     6    4    6 1  
     7    7    8 1  
     8    8    9 2  
     9    8   10 1  
    10    6   11 1  
    11   10   12 1  
# Name:          frag3-234-3/31924 -- energy: -1.080984
# Creation time: Sat Jun  5 12:52:34 2010


@<TRIPOS>MOLECULE
frag3-234-3/31924 -- energy: -1.080984
   12    11     1     1     1
SMALL
USER_CHARGES


@<TRIPOS>ATOM
      1 S1         -1.1792    0.3295    0.5461 S.3        1 <1>        0.000
      2 S2          0.3908    0.9277   -0.5136 S.3        1 <1>        0.000
      3 S3          1.3621    1.9979    0.8588 S.3        1 <1>        0.000
      4 C1          2.9270    1.2592    0.7356 C.2        1 <1>        0.000
      5 S4          3.8855    1.4575   -0.6637 S.2        1 <1>        0.000
      6 O1          3.3614    0.4793    1.7531 O.3        1 <1>        0.000
      7 S5         -2.5896    0.3790   -0.8481 S.3        1 <1>        0.000
      8 C3         -2.7235   -1.3229   -1.2038 C.2        1 <1>        0.000
      9 S6         -2.4354   -1.9766   -2.7380 S.2        1 <1>        0.000
     10 O2         -3.0475   -2.1403   -0.1563 O.3        1 <1>        0.000
     11 H           2.7068    0.4774    2.4553 H.spc      1 <1>        0.000
     12 H          -3.1764   -1.6103    0.6337 H.spc      1 <1>        0.000
@<TRIPOS>BOND
     1    1    2 1  
     2    1    7 1  
     3    2    3 1  
     4    3    4 1  
     5    4    5 2  
     6    4    6 1  
     7    7    8 1  
     8    8    9 2  
     9    8   10 1  
    10    6   11 1  
    11   10   12 1  
# Name:          frag3-234-3/31924 -- energy: -1.723074
# Creation time: Sat Jun  5 12:52:34 2010


@<TRIPOS>MOLECULE
frag3-234-3/31924 -- energy: -1.723074
   12    11     1     1     1
SMALL
USER_CHARGES


@<TRIPOS>ATOM
      1 S1         -1.0877    0.8041    0.4993 S.3        1 <1>        0.000
      2 S2          0.1649    1.3818   -0.9402 S.3        1 <1>        0.000
      3 S3          1.5206    2.3443    0.1126 S.3        1 <1>        0.000
      4 C1          2.5587    1.0168    0.5268 C.2        1 <1>        0.000
      5 S4          3.7513    0.4468   -0.5364 S.2        1 <1>        0.000
      6 O1          2.3567    0.3781    1.7154 O.3        1 <1>        0.000
      7 S5         -2.7104    0.3624   -0.5388 S.3        1 <1>        0.000
      8 C3         -2.3728   -1.3019   -0.8968 C.2        1 <1>        0.000
      9 S6         -1.0563   -1.8055   -1.8520 S.2        1 <1>        0.000
     10 O2         -3.1733   -2.2364   -0.3199 O.3        1 <1>        0.000
     11 H           1.6538    0.8186    2.1987 H.spc      1 <1>        0.000
     12 H          -3.8644   -1.7982    0.1821 H.spc      1 <1>        0.000
@<TRIPOS>BOND
     1    1    2 1  
     2    1    7 1  
     3    2    3 1  
     4    3    4 1  
     5    4    5 2  
     6    4    6 1  
     7    7    8 1  
     8    8    9 2  
     9    8   10 1  
    10    6   11 1  
    11   10   12 1  
# Name:          frag3-234-3/31924 -- energy: -1.266042
# Creation time: Sat Jun  5 12:52:34 2010


@<TRIPOS>MOLECULE
frag3-234-3/31924 -- energy: -1.266042
   12    11     1     1     1
SMALL
USER_CHARGES


@<TRIPOS>ATOM
      1 S1          0.4312    0.0372    0.5997 S.3        1 <1>        0.000
      2 S2         -1.4800    0.5135    0.6051 S.3        1 <1>        0.000
      3 S3         -1.9121    0.3183   -1.3380 S.3        1 <1>        0.000
      4 C1         -2.6884   -1.2295   -1.2892 C.2        1 <1>        0.000
      5 S4         -1.8531   -2.6786   -0.9775 S.2        1 <1>        0.000
      6 O1         -4.0394   -1.2515   -1.4451 O.3        1 <1>        0.000
      7 S5          1.2559    1.8467    0.3627 S.3        1 <1>        0.000
      8 C3          2.9222    1.4435    0.3499 C.2        1 <1>        0.000
      9 S6          3.7036    0.7797    1.7100 S.2        1 <1>        0.000
     10 O2          3.6116    1.6109   -0.8075 O.3        1 <1>        0.000
     11 H          -4.3555   -0.3608   -1.6134 H.spc      1 <1>        0.000
     12 H           3.0326    1.9928   -1.4712 H.spc      1 <1>        0.000
@<TRIPOS>BOND
     1    1    2 1  
     2    1    7 1  
     3    2    3 1  
     4    3    4 1  
     5    4    5 2  
     6    4    6 1  
     7    7    8 1  
     8    8    9 2  
     9    8   10 1  
    10    6   11 1  
    11   10   12 1  
# Name:          frag3-234-3/31924 -- energy: 0.395563
# Creation time: Sat Jun  5 12:52:34 2010


@<TRIPOS>MOLECULE
frag3-234-3/31924 -- energy: 0.395563
   12    11     1     1     1
SMALL
USER_CHARGES


@<TRIPOS>ATOM
      1 S1         -1.8186    0.8417    0.7347 S.3        1 <1>        0.000
      2 S2         -0.0074    1.2372    1.3748 S.3        1 <1>        0.000
      3 S3          0.9554    1.6288   -0.3103 S.3        1 <1>        0.000
      4 C1          2.5456    1.0808    0.0130 C.2        1 <1>        0.000
      5 S4          3.9235    1.7072   -0.7147 S.2        1 <1>        0.000
      6 O1          2.6702    0.0919    0.9668 O.3        1 <1>        0.000
      7 S5         -1.7621   -1.1504    0.5698 S.3        1 <1>        0.000
      8 C3         -2.1217   -1.3521   -1.1015 C.2        1 <1>        0.000
      9 S6         -1.2107   -0.6178   -2.3394 S.2        1 <1>        0.000
     10 O2         -3.2226   -2.0770   -1.4234 O.3        1 <1>        0.000
     11 H           1.7989   -0.1572    1.2836 H.spc      1 <1>        0.000
     12 H          -3.6225   -2.4224   -0.6219 H.spc      1 <1>        0.000
@<TRIPOS>BOND
     1    1    2 1  
     2    1    7 1  
     3    2    3 1  
     4    3    4 1  
     5    4    5 2  
     6    4    6 1  
     7    7    8 1  
     8    8    9 2  
     9    8   10 1  
    10    6   11 1  
    11   10   12 1  
# Name:          frag3-234-3/31924 -- energy: -0.801858
# Creation time: Sat Jun  5 12:52:34 2010


@<TRIPOS>MOLECULE
frag3-234-3/31924 -- energy: -0.801858
   12    11     1     1     1
SMALL
USER_CHARGES


@<TRIPOS>ATOM
      1 S1         -1.2492    0.6082    0.4807 S.3        1 <1>        0.000
      2 S2          0.3109    0.0977    1.6041 S.3        1 <1>        0.000
      3 S3          1.3892    1.7578    1.5150 S.3        1 <1>        0.000
      4 C1          2.6326    1.2624    0.3979 C.2        1 <1>        0.000
      5 S4          3.0835    2.1813   -0.9501 S.2        1 <1>        0.000
      6 O1          3.2290    0.0561    0.6424 O.3        1 <1>        0.000
      7 S5         -2.0833   -1.1652    0.1838 S.3        1 <1>        0.000
      8 C3         -2.3126   -1.1376   -1.5385 C.2        1 <1>        0.000
      9 S6         -3.7915   -1.5380   -2.2601 S.2        1 <1>        0.000
     10 O2         -1.2570   -0.7324   -2.3052 O.3        1 <1>        0.000
     11 H           2.8575   -0.3274    1.4402 H.spc      1 <1>        0.000
     12 H          -0.5042   -0.5471   -1.7390 H.spc      1 <1>        0.000
@<TRIPOS>BOND
     1    1    2 1  
     2    1    7 1  
     3    2    3 1  
     4    3    4 1  
     5    4    5 2  
     6    4    6 1  
     7    7    8 1  
     8    8    9 2  
     9    8   10 1  
    10    6   11 1  
    11   10   12 1  
# Name:          frag3-234-3/31924 -- energy: 2.233865
# Creation time: Sat Jun  5 12:52:34 2010


@<TRIPOS>MOLECULE
frag3-234-3/31924 -- energy: 2.233865
   12    11     1     1     1
SMALL
USER_CHARGES


@<TRIPOS>ATOM
      1 S1         -0.4548   -0.4908    0.4904 S.3        1 <1>        0.000
      2 S2          0.1142    1.1200    1.4815 S.3        1 <1>        0.000
      3 S3          1.1010    2.0602    0.0311 S.3        1 <1>        0.000
      4 C1          2.6598    1.3025    0.1813 C.2        1 <1>        0.000
      5 S4          4.1115    2.1330   -0.0063 S.2        1 <1>        0.000
      6 O1          2.6773   -0.0314    0.5208 O.3        1 <1>        0.000
      7 S5         -2.1158    0.2037   -0.3974 S.3        1 <1>        0.000
      8 C3         -2.6394   -1.1999   -1.2326 C.2        1 <1>        0.000
      9 S6         -1.6407   -2.0024   -2.3595 S.2        1 <1>        0.000
     10 O2         -3.8616   -1.7045   -0.9392 O.3        1 <1>        0.000
     11 H           1.7760   -0.3551    0.5885 H.spc      1 <1>        0.000
     12 H          -4.2930   -1.1401   -0.2934 H.spc      1 <1>        0.000
@<TRIPOS>BOND
     1    1    2 1  
     2    1    7 1  
     3    2    3 1  
     4    3    4 1  
     5    4    5 2  
     6    4    6 1  
     7    7    8 1  
     8    8    9 2  
     9    8   10 1  
    10    6   11 1  
    11   10   12 1  
# Name:          frag3-234-3/31924 -- energy: -1.657357
# Creation time: Sat Jun  5 12:52:34 2010


@<TRIPOS>MOLECULE
frag3-234-3/31924 -- energy: -1.657357
   12    11     1     1     1
SMALL
USER_CHARGES


@<TRIPOS>ATOM
      1 S1          0.7521    0.6052   -1.4130 S.3        1 <1>        0.000
      2 S2         -1.0050    1.2621   -0.7612 S.3        1 <1>        0.000
      3 S3         -2.2661    0.1635   -1.8111 S.3        1 <1>        0.000
      4 C1         -2.5630   -1.1041   -0.6689 C.2        1 <1>        0.000
      5 S4         -1.3956   -2.2614   -0.2329 S.2        1 <1>        0.000
      6 O1         -3.7775   -1.1127   -0.0544 O.3        1 <1>        0.000
      7 S5          2.0012    1.9061   -0.6049 S.3        1 <1>        0.000
      8 C3          2.6206    0.9524    0.6986 C.2        1 <1>        0.000
      9 S6          1.6515    0.3760    1.9736 S.2        1 <1>        0.000
     10 O2          3.9334    0.6033    0.6442 O.3        1 <1>        0.000
     11 H          -4.3190   -0.4035   -0.4085 H.spc      1 <1>        0.000
     12 H           4.3386    1.0055   -0.1276 H.spc      1 <1>        0.000
@<TRIPOS>BOND
     1    1    2 1  
     2    1    7 1  
     3    2    3 1  
     4    3    4 1  
     5    4    5 2  
     6    4    6 1  
     7    7    8 1  
     8    8    9 2  
     9    8   10 1  
    10    6   11 1  
    11   10   12 1  
# Name:          frag3-234-3/31924 -- energy: -0.761628
# Creation time: Sat Jun  5 12:52:34 2010


@<TRIPOS>MOLECULE
frag3-234-3/31924 -- energy: -0.761628
   12    11     1     1     1
SMALL
USER_CHARGES


@<TRIPOS>ATOM
      1 S1         -1.0512    0.5469    0.2411 S.3        1 <1>        0.000
      2 S2          0.2772    1.9220   -0.2606 S.3        1 <1>        0.000
      3 S3          1.8429    0.7262   -0.6673 S.3        1 <1>        0.000
      4 C1          2.8016    1.0578    0.7426 C.2        1 <1>        0.000
      5 S4          3.4440    2.6154    1.0221 S.2        1 <1>        0.000
      6 O1          3.0054    0.0684    1.6435 O.3        1 <1>        0.000
      7 S5         -1.5525   -0.1128   -1.5803 S.3        1 <1>        0.000
      8 C3         -2.5848   -1.4419   -1.1999 C.2        1 <1>        0.000
      9 S6         -4.0330   -1.7471   -2.0133 S.2        1 <1>        0.000
     10 O2         -2.1981   -2.2445   -0.1578 O.3        1 <1>        0.000
     11 H           2.5809   -0.7357    1.3355 H.spc      1 <1>        0.000
     12 H          -1.3586   -1.9341    0.1892 H.spc      1 <1>        0.000
@<TRIPOS>BOND
     1    1    2 1  
     2    1    7 1  
     3    2    3 1  
     4    3    4 1  
     5    4    5 2  
     6    4    6 1  
     7    7    8 1  
     8    8    9 2  
     9    8   10 1  
    10    6   11 1  
    11   10   12 1  
# Name:          frag3-234-3/31924 -- energy: -1.482129
# Creation time: Sat Jun  5 12:52:34 2010


@<TRIPOS>MOLECULE
frag3-234-3/31924 -- energy: -1.482129
   12    11     1     1     1
SMALL
USER_CHARGES


@<TRIPOS>ATOM
      1 S1         -1.3652    0.8954    0.4024 S.3        1 <1>        0.000
      2 S2          0.3310    1.2008   -0.5495 S.3        1 <1>        0.000
      3 S3          1.5766   -0.0717    0.3213 S.3        1 <1>        0.000
      4 C1          2.9445    0.9367    0.5349 C.2        1 <1>        0.000
      5 S4          2.9417    2.3080    1.5394 S.2        1 <1>        0.000
      6 O1          4.0518    0.6524   -0.2037 O.3        1 <1>        0.000
      7 S5         -2.6069    0.5505   -1.1070 S.3        1 <1>        0.000
      8 C3         -2.6895   -1.1719   -1.0755 C.2        1 <1>        0.000
      9 S6         -1.3496   -2.1802   -1.3573 S.2        1 <1>        0.000
     10 O2         -3.8829   -1.7296   -0.7350 O.3        1 <1>        0.000
     11 H           3.8983   -0.1460   -0.7142 H.spc      1 <1>        0.000
     12 H          -4.5349   -1.0361   -0.6103 H.spc      1 <1>        0.000
@<TRIPOS>BOND
     1    1    2 1  
     2    1    7 1  
     3    2    3 1  
     4    3    4 1  
     5    4    5 2  
     6    4    6 1  
     7    7    8 1  
     8    8    9 2  
     9    8   10 1  
    10    6   11 1  
    11   10   12 1  
# Name:          frag3-234-3/31924 -- energy: -1.225862
# Creation time: Sat Jun  5 12:52:34 2010


@<TRIPOS>MOLECULE
frag3-234-3/31924 -- energy: -1.225862
   12    11     1     1     1
SMALL
USER_CHARGES


@<TRIPOS>ATOM
      1 S1          0.0532    1.4963   -0.1561 S.3        1 <1>        0.000
      2 S2         -1.7677    1.1156    0.5153 S.3        1 <1>        0.000
      3 S3         -2.6499    0.5078   -1.1505 S.3        1 <1>        0.000
      4 C1         -2.2889   -1.1938   -1.1167 C.2        1 <1>        0.000
      5 S4         -1.5572   -2.0246   -2.3911 S.2        1 <1>        0.000
      6 O1         -2.6036   -1.8573    0.0424 O.3        1 <1>        0.000
      7 S5          1.1740    0.3319    1.0120 S.3        1 <1>        0.000
      8 C3          2.7495    0.7855    0.4880 C.2        1 <1>        0.000
      9 S6          3.3127    2.3910    0.6122 S.2        1 <1>        0.000
     10 O2          3.5295   -0.1621   -0.0856 O.3        1 <1>        0.000
     11 H          -3.0100   -1.2450    0.6600 H.spc      1 <1>        0.000
     12 H           3.0679   -1.0038   -0.0759 H.spc      1 <1>        0.000
@<TRIPOS>BOND
     1    1    2 1  
     2    1    7 1  
     3    2    3 1  
     4    3    4 1  
     5    4    5 2  
     6    4    6 1  
     7    7    8 1  
     8    8    9 2  
     9    8   10 1  
    10    6   11 1  
    11   10   12 1  
# Name:          frag3-234-3/31924 -- energy: -1.836659
# Creation time: Sat Jun  5 12:52:34 2010


@<TRIPOS>MOLECULE
frag3-234-3/31924 -- energy: -1.836659
   12    11     1     1     1
SMALL
USER_CHARGES


@<TRIPOS>ATOM
      1 S1          0.7295   -0.6746    1.4937 S.3        1 <1>        0.000
      2 S2         -1.2453   -0.6981    1.4956 S.3        1 <1>        0.000
      3 S3         -1.6483   -1.8117   -0.0955 S.3        1 <1>        0.000
      4 C1         -2.0463   -0.5911   -1.2519 C.2        1 <1>        0.000
      5 S4         -0.8912    0.3476   -2.0564 S.2        1 <1>        0.000
      6 O1         -3.3715   -0.3480   -1.4586 O.3        1 <1>        0.000
      7 S5          1.1310    1.2461    1.2803 S.3        1 <1>        0.000
      8 C3          2.1576    1.2741   -0.1129 C.2        1 <1>        0.000
      9 S6          1.9710    2.3136   -1.4096 S.2        1 <1>        0.000
     10 O2          3.1651    0.3325   -0.1147 O.3        1 <1>        0.000
     11 H          -3.8935   -0.9599   -0.9344 H.spc      1 <1>        0.000
     12 H           3.1281   -0.1756    0.6990 H.spc      1 <1>        0.000
@<TRIPOS>BOND
     1    1    2 1  
     2    1    7 1  
     3    2    3 1  
     4    3    4 1  
     5    4    5 2  
     6    4    6 1  
     7    7    8 1  
     8    8    9 2  
     9    8   10 1  
    10    6   11 1  
    11   10   12 1  
# Name:          frag3-234-3/31924 -- energy: -1.422664
# Creation time: Sat Jun  5 12:52:34 2010


@<TRIPOS>MOLECULE
frag3-234-3/31924 -- energy: -1.422664
   12    11     1     1     1
SMALL
USER_CHARGES


@<TRIPOS>ATOM
      1 S1          0.0733    0.9524   -0.3962 S.3        1 <1>        0.000
      2 S2         -0.9546   -0.1584    0.8949 S.3        1 <1>        0.000
      3 S3         -1.2266   -1.8131   -0.1432 S.3        1 <1>        0.000
      4 C1         -2.5344   -1.2929   -1.1879 C.2        1 <1>        0.000
      5 S4         -2.3556   -1.0032   -2.8353 S.2        1 <1>        0.000
      6 O1         -3.7377   -1.0760   -0.5702 O.3        1 <1>        0.000
      7 S5          1.1455    2.0683    0.8448 S.3        1 <1>        0.000
      8 C3          2.7229    1.4181    0.5624 C.2        1 <1>        0.000
      9 S6          3.4579    1.5134   -0.9741 S.2        1 <1>        0.000
     10 O2          3.3608    0.7818    1.5748 O.3        1 <1>        0.000
     11 H          -3.6608   -1.2910    0.3623 H.spc      1 <1>        0.000
     12 H           2.8179    0.8168    2.3658 H.spc      1 <1>        0.000
@<TRIPOS>BOND
     1    1    2 1  
     2    1    7 1  
     3    2    3 1  
     4    3    4 1  
     5    4    5 2  
     6    4    6 1  
     7    7    8 1  
     8    8    9 2  
     9    8   10 1  
    10    6   11 1  
    11   10   12 1  
# Name:          frag3-234-3/31924 -- energy: 0.639781
# Creation time: Sat Jun  5 12:52:34 2010


@<TRIPOS>MOLECULE
frag3-234-3/31924 -- energy: 0.639781
   12    11     1     1     1
SMALL
USER_CHARGES


@<TRIPOS>ATOM
      1 S1         -1.0220   -0.3070    0.5283 S.3        1 <1>        0.000
      2 S2          0.9396   -0.3000    0.2558 S.3        1 <1>        0.000
      3 S3          1.2621    1.6788    0.2584 S.3        1 <1>        0.000
      4 C1          2.9127    1.7187    0.7863 C.2        1 <1>        0.000
      5 S4          4.1732    2.2007   -0.2447 S.2        1 <1>        0.000
      6 O1          3.1810    1.2987    2.0538 O.3        1 <1>        0.000
      7 S5         -1.6132   -0.1072   -1.3731 S.3        1 <1>        0.000
      8 C3         -2.8816   -1.2933   -1.4407 C.2        1 <1>        0.000
      9 S6         -4.2384   -1.1190   -2.4361 S.2        1 <1>        0.000
     10 O2         -2.7618   -2.3800   -0.6181 O.3        1 <1>        0.000
     11 H           2.3597    1.0663    2.4933 H.spc      1 <1>        0.000
     12 H          -1.9385   -2.3197   -0.1280 H.spc      1 <1>        0.000
@<TRIPOS>BOND
     1    1    2 1  
     2    1    7 1  
     3    2    3 1  
     4    3    4 1  
     5    4    5 2  
     6    4    6 1  
     7    7    8 1  
     8    8    9 2  
     9    8   10 1  
    10    6   11 1  
    11   10   12 1  
# Name:          frag3-234-3/31924 -- energy: -0.394569
# Creation time: Sat Jun  5 12:52:34 2010


@<TRIPOS>MOLECULE
frag3-234-3/31924 -- energy: -0.394569
   12    11     1     1     1
SMALL
USER_CHARGES


@<TRIPOS>ATOM
      1 S1          0.9737   -0.4347   -0.7332 S.3        1 <1>        0.000
      2 S2         -0.5135    0.9023   -0.6553 S.3        1 <1>        0.000
      3 S3         -1.6953    0.2102   -2.0611 S.3        1 <1>        0.000
      4 C1         -2.5938   -0.9835   -1.1726 C.2        1 <1>        0.000
      5 S4         -4.2782   -0.9850   -1.0914 S.2        1 <1>        0.000
      6 O1         -1.8776   -1.9169   -0.4642 O.3        1 <1>        0.000
      7 S5          1.6806   -0.3405    1.1117 S.3        1 <1>        0.000
      8 C3          2.5552    1.1646    0.9951 C.2        1 <1>        0.000
      9 S6          1.8047    2.6892    1.0638 S.2        1 <1>        0.000
     10 O2          3.8957    1.0847    0.7772 O.3        1 <1>        0.000
     11 H          -0.9394   -1.7817   -0.6163 H.spc      1 <1>        0.000
     12 H           4.1626    0.1626    0.7664 H.spc      1 <1>        0.000
@<TRIPOS>BOND
     1    1    2 1  
     2    1    7 1  
     3    2    3 1  
     4    3    4 1  
     5    4    5 2  
     6    4    6 1  
     7    7    8 1  
     8    8    9 2  
     9    8   10 1  
    10    6   11 1  
    11   10   12 1  
# Name:          frag3-234-3/31924 -- energy: 1.034822
# Creation time: Sat Jun  5 12:52:34 2010


@<TRIPOS>MOLECULE
frag3-234-3/31924 -- energy: 1.034822
   12    11     1     1     1
SMALL
USER_CHARGES


@<TRIPOS>ATOM
      1 S1          0.4437   -0.2037    0.5506 S.3        1 <1>        0.000
      2 S2         -1.4538    0.1469    0.9805 S.3        1 <1>        0.000
      3 S3         -2.1630    0.5052   -0.8619 S.3        1 <1>        0.000
      4 C1         -2.6199   -1.1184   -1.2848 C.2        1 <1>        0.000
      5 S4         -1.4845   -2.3704   -1.5056 S.2        1 <1>        0.000
      6 O1         -3.9465   -1.3881   -1.3803 O.3        1 <1>        0.000
      7 S5          1.1368    1.6608    0.4699 S.3        1 <1>        0.000
      8 C3          2.8291    1.4152    0.2907 C.2        1 <1>        0.000
      9 S6          3.9961    2.5181    0.7945 S.2        1 <1>        0.000
     10 O2          3.2137    0.2249   -0.2834 O.3        1 <1>        0.000
     11 H          -4.4472   -0.5827   -1.2312 H.spc      1 <1>        0.000
     12 H           2.4335   -0.2856   -0.5121 H.spc      1 <1>        0.000
@<TRIPOS>BOND
     1    1    2 1  
     2    1    7 1  
     3    2    3 1  
     4    3    4 1  
     5    4    5 2  
     6    4    6 1  
     7    7    8 1  
     8    8    9 2  
     9    8   10 1  
    10    6   11 1  
    11   10   12 1  
# Name:          frag3-234-3/31924 -- energy: -1.877877
# Creation time: Sat Jun  5 12:52:34 2010


@<TRIPOS>MOLECULE
frag3-234-3/31924 -- energy: -1.877877
   12    11     1     1     1
SMALL
USER_CHARGES


@<TRIPOS>ATOM
      1 S1         -0.1534    1.8475   -0.4008 S.3        1 <1>        0.000
      2 S2         -2.0931    1.6175   -0.0304 S.3        1 <1>        0.000
      3 S3         -2.5386    0.2901   -1.4484 S.3        1 <1>        0.000
      4 C1         -1.7125   -1.1351   -0.8349 C.2        1 <1>        0.000
      5 S4         -0.7607   -2.1395   -1.7897 S.2        1 <1>        0.000
      6 O1         -1.8586   -1.3784    0.5082 O.3        1 <1>        0.000
      7 S5          0.6295    0.4341    0.7729 S.3        1 <1>        0.000
      8 C3          2.3032    0.5501    0.3854 C.2        1 <1>        0.000
      9 S6          3.4839    0.9393    1.5320 S.2        1 <1>        0.000
     10 O2          2.6519    0.3648   -0.9242 O.3        1 <1>        0.000
     11 H          -2.4314   -0.7108    0.8927 H.spc      1 <1>        0.000
     12 H           1.8680    0.1519   -1.4358 H.spc      1 <1>        0.000
@<TRIPOS>BOND
     1    1    2 1  
     2    1    7 1  
     3    2    3 1  
     4    3    4 1  
     5    4    5 2  
     6    4    6 1  
     7    7    8 1  
     8    8    9 2  
     9    8   10 1  
    10    6   11 1  
    11   10   12 1  
# Name:          frag3-234-3/31924 -- energy: 0.967050
# Creation time: Sat Jun  5 12:52:34 2010


@<TRIPOS>MOLECULE
frag3-234-3/31924 -- energy: 0.967050
   12    11     1     1     1
SMALL
USER_CHARGES


@<TRIPOS>ATOM
      1 S1          0.2728    0.6062    1.3593 S.3        1 <1>        0.000
      2 S2         -0.7063   -0.9992    0.7971 S.3        1 <1>        0.000
      3 S3         -2.4499   -0.1861    0.2268 S.3        1 <1>        0.000
      4 C1         -2.7111   -1.0053   -1.2612 C.2        1 <1>        0.000
      5 S4         -1.5316   -1.0662   -2.4925 S.2        1 <1>        0.000
      6 O1         -3.8825   -1.6672   -1.4232 O.3        1 <1>        0.000
      7 S5          1.1562    1.1378   -0.3363 S.3        1 <1>        0.000
      8 C3          2.7791    1.3967    0.1761 C.2        1 <1>        0.000
      9 S6          3.8356    2.4699   -0.5706 S.2        1 <1>        0.000
     10 O2          3.1891    0.7037    1.2946 O.3        1 <1>        0.000
     11 H          -4.4335   -1.5346   -0.6483 H.spc      1 <1>        0.000
     12 H           2.4759    0.1373    1.5980 H.spc      1 <1>        0.000
@<TRIPOS>BOND
     1    1    2 1  
     2    1    7 1  
     3    2    3 1  
     4    3    4 1  
     5    4    5 2  
     6    4    6 1  
     7    7    8 1  
     8    8    9 2  
     9    8   10 1  
    10    6   11 1  
    11   10   12 1  
# Name:          frag3-234-3/31924 -- energy: -0.799130
# Creation time: Sat Jun  5 12:52:34 2010


@<TRIPOS>MOLECULE
frag3-234-3/31924 -- energy: -0.799130
   12    11     1     1     1
SMALL
USER_CHARGES


@<TRIPOS>ATOM
      1 S1          0.5764   -0.1590   -0.1480 S.3        1 <1>        0.000
      2 S2         -1.1612    0.2917    0.7031 S.3        1 <1>        0.000
      3 S3         -2.2817    0.6425   -0.8797 S.3        1 <1>        0.000
      4 C1         -2.7609   -0.9833   -1.2876 C.2        1 <1>        0.000
      5 S4         -2.7318   -1.6079   -2.8537 S.2        1 <1>        0.000
      6 O1         -3.1510   -1.7812   -0.2392 O.3        1 <1>        0.000
      7 S5          1.8411    0.1334    1.3554 S.3        1 <1>        0.000
      8 C3          2.9426    1.2448    0.6224 C.2        1 <1>        0.000
      9 S6          2.4454    2.7582    0.0145 S.2        1 <1>        0.000
     10 O2          4.2327    0.8512    0.4828 O.3        1 <1>        0.000
     11 H          -3.1118   -1.2772    0.5769 H.spc      1 <1>        0.000
     12 H           4.3454   -0.0173    0.8759 H.spc      1 <1>        0.000
@<TRIPOS>BOND
     1    1    2 1  
     2    1    7 1  
     3    2    3 1  
     4    3    4 1  
     5    4    5 2  
     6    4    6 1  
     7    7    8 1  
     8    8    9 2  
     9    8   10 1  
    10    6   11 1  
    11   10   12 1  
# Name:          frag3-234-3/31924 -- energy: -1.128709
# Creation time: Sat Jun  5 12:52:34 2010


@<TRIPOS>MOLECULE
frag3-234-3/31924 -- energy: -1.128709
   12    11     1     1     1
SMALL
USER_CHARGES


@<TRIPOS>ATOM
      1 S1         -1.3041   -0.0113    0.6656 S.3        1 <1>        0.000
      2 S2          0.6625   -0.1842    0.6590 S.3        1 <1>        0.000
      3 S3          1.1763    1.7555    0.5306 S.3        1 <1>        0.000
      4 C1          2.8874    1.6242    0.6965 C.2        1 <1>        0.000
      5 S4          3.8477    0.8873   -0.5062 S.2        1 <1>        0.000
      6 O1          3.4581    2.0769    1.8389 O.3        1 <1>        0.000
      7 S5         -1.6315    0.0998   -1.3034 S.3        1 <1>        0.000
      8 C3         -2.6813   -1.2633   -1.5246 C.2        1 <1>        0.000
      9 S6         -4.2042   -1.1246   -2.2490 S.2        1 <1>        0.000
     10 O2         -2.2592   -2.4698   -1.0375 O.3        1 <1>        0.000
     11 H           2.7823    2.4600    2.4029 H.spc      1 <1>        0.000
     12 H          -1.3806   -2.3727   -0.6630 H.spc      1 <1>        0.000
@<TRIPOS>BOND
     1    1    2 1  
     2    1    7 1  
     3    2    3 1  
     4    3    4 1  
     5    4    5 2  
     6    4    6 1  
     7    7    8 1  
     8    8    9 2  
     9    8   10 1  
    10    6   11 1  
    11   10   12 1  
# Name:          frag3-234-3/31924 -- energy: -0.756446
# Creation time: Sat Jun  5 12:52:34 2010


@<TRIPOS>MOLECULE
frag3-234-3/31924 -- energy: -0.756446
   12    11     1     1     1
SMALL
USER_CHARGES


@<TRIPOS>ATOM
      1 S1          0.5008    0.0119    0.4907 S.3        1 <1>        0.000
      2 S2         -1.4285    0.4686    0.5034 S.3        1 <1>        0.000
      3 S3         -1.8702    0.1677   -1.4170 S.3        1 <1>        0.000
      4 C1         -2.7786   -1.3228   -1.2835 C.2        1 <1>        0.000
      5 S4         -2.4186   -2.7036   -2.1807 S.2        1 <1>        0.000
      6 O1         -3.8011   -1.3233   -0.3745 O.3        1 <1>        0.000
      7 S5          1.2870    1.8427    0.5882 S.3        1 <1>        0.000
      8 C3          2.9775    1.4904    0.4584 C.2        1 <1>        0.000
      9 S6          4.1255    2.1055    1.5386 S.2        1 <1>        0.000
     10 O2          3.3578    0.6534   -0.5537 O.3        1 <1>        0.000
     11 H          -3.8603   -0.4591    0.0393 H.spc      1 <1>        0.000
     12 H           2.5862    0.4020   -1.0665 H.spc      1 <1>        0.000
@<TRIPOS>BOND
     1    1    2 1  
     2    1    7 1  
     3    2    3 1  
     4    3    4 1  
     5    4    5 2  
     6    4    6 1  
     7    7    8 1  
     8    8    9 2  
     9    8   10 1  
    10    6   11 1  
    11   10   12 1  
# Name:          frag3-234-3/31924 -- energy: -0.770110
# Creation time: Sat Jun  5 12:52:34 2010


@<TRIPOS>MOLECULE
frag3-234-3/31924 -- energy: -0.770110
   12    11     1     1     1
SMALL
USER_CHARGES


@<TRIPOS>ATOM
      1 S1         -1.6156   -0.0999    1.4835 S.3        1 <1>        0.000
      2 S2          0.3447   -0.3999    1.3016 S.3        1 <1>        0.000
      3 S3          1.0087    1.4600    1.1543 S.3        1 <1>        0.000
      4 C1          2.2341    1.2993   -0.0665 C.2        1 <1>        0.000
      5 S4          3.7472    2.0231    0.0636 S.2        1 <1>        0.000
      6 O1          1.9273    0.5045   -1.1399 O.3        1 <1>        0.000
      7 S5         -2.3019   -1.5011    0.2650 S.3        1 <1>        0.000
      8 C3         -1.9318   -0.7889   -1.2898 C.2        1 <1>        0.000
      9 S6         -1.3510   -1.6731   -2.6053 S.2        1 <1>        0.000
     10 O2         -2.1101    0.5664   -1.3964 O.3        1 <1>        0.000
     11 H           1.0288    0.1788   -1.0490 H.spc      1 <1>        0.000
     12 H          -2.4434    0.9106   -0.5645 H.spc      1 <1>        0.000
@<TRIPOS>BOND
     1    1    2 1  
     2    1    7 1  
     3    2    3 1  
     4    3    4 1  
     5    4    5 2  
     6    4    6 1  
     7    7    8 1  
     8    8    9 2  
     9    8   10 1  
    10    6   11 1  
    11   10   12 1  
# Name:          frag3-234-3/31924 -- energy: -0.454859
# Creation time: Sat Jun  5 12:52:34 2010


@<TRIPOS>MOLECULE
frag3-234-3/31924 -- energy: -0.454859
   12    11     1     1     1
SMALL
USER_CHARGES


@<TRIPOS>ATOM
      1 S1         -1.6514    1.3804   -0.3132 S.3        1 <1>        0.000
      2 S2          0.1747    1.7530   -0.9842 S.3        1 <1>        0.000
      3 S3          1.1765    2.0020    0.6936 S.3        1 <1>        0.000
      4 C1          2.4530    0.8379    0.5341 C.2        1 <1>        0.000
      5 S4          4.0148    1.1069    1.0800 S.2        1 <1>        0.000
      6 O1          2.1375   -0.3239   -0.1278 O.3        1 <1>        0.000
      7 S5         -2.3165    0.0806   -1.6580 S.3        1 <1>        0.000
      8 C3         -2.1393   -1.3974   -0.7691 C.2        1 <1>        0.000
      9 S6         -0.6253   -1.9933   -0.2651 S.2        1 <1>        0.000
     10 O2         -3.2724   -2.0557   -0.4202 O.3        1 <1>        0.000
     11 H           1.2079   -0.3122   -0.3671 H.spc      1 <1>        0.000
     12 H          -4.0332   -1.5939   -0.7802 H.spc      1 <1>        0.000
@<TRIPOS>BOND
     1    1    2 1  
     2    1    7 1  
     3    2    3 1  
     4    3    4 1  
     5    4    5 2  
     6    4    6 1  
     7    7    8 1  
     8    8    9 2  
     9    8   10 1  
    10    6   11 1  
    11   10   12 1  
# Name:          frag3-234-3/31924 -- energy: -1.429281
# Creation time: Sat Jun  5 12:52:34 2010


@<TRIPOS>MOLECULE
frag3-234-3/31924 -- energy: -1.429281
   12    11     1     1     1
SMALL
USER_CHARGES


@<TRIPOS>ATOM
      1 S1         -0.8935    0.4124    0.5949 S.3        1 <1>        0.000
      2 S2          0.7227    0.0085    1.6359 S.3        1 <1>        0.000
      3 S3          2.0371   -0.2523    0.1499 S.3        1 <1>        0.000
      4 C1          2.5459    1.4017   -0.0406 C.2        1 <1>        0.000
      5 S4          3.3090    2.2438    1.2143 S.2        1 <1>        0.000
      6 O1          2.2622    2.0321   -1.2108 O.3        1 <1>        0.000
      7 S5         -1.5488   -1.4354    0.1833 S.3        1 <1>        0.000
      8 C3         -2.5721   -1.1463   -1.1495 C.2        1 <1>        0.000
      9 S6         -2.0139   -0.4672   -2.6068 S.2        1 <1>        0.000
     10 O2         -3.8971   -1.4068   -1.0008 O.3        1 <1>        0.000
     11 H           1.8334    1.4159   -1.8092 H.spc      1 <1>        0.000
     12 H          -4.0522   -1.7848   -0.1321 H.spc      1 <1>        0.000
@<TRIPOS>BOND
     1    1    2 1  
     2    1    7 1  
     3    2    3 1  
     4    3    4 1  
     5    4    5 2  
     6    4    6 1  
     7    7    8 1  
     8    8    9 2  
     9    8   10 1  
    10    6   11 1  
    11   10   12 1  
# Name:          frag3-234-3/31924 -- energy: -0.534015
# Creation time: Sat Jun  5 12:52:34 2010


@<TRIPOS>MOLECULE
frag3-234-3/31924 -- energy: -0.534015
   12    11     1     1     1
SMALL
USER_CHARGES


@<TRIPOS>ATOM
      1 S1          0.6744   -0.5182   -0.0741 S.3        1 <1>        0.000
      2 S2         -0.8101    0.8187    0.0305 S.3        1 <1>        0.000
      3 S3         -2.3305   -0.3535    0.4619 S.3        1 <1>        0.000
      4 C1         -2.7241   -0.9651   -1.1226 C.2        1 <1>        0.000
      5 S4         -3.2101   -2.5503   -1.4246 S.2        1 <1>        0.000
      6 O1         -2.5968   -0.0769   -2.1649 O.3        1 <1>        0.000
      7 S5          2.1117    0.5686   -0.9016 S.3        1 <1>        0.000
      8 C3          2.8090    1.2617    0.5479 C.2        1 <1>        0.000
      9 S6          2.0151    2.4350    1.4785 S.2        1 <1>        0.000
     10 O2          4.0130    0.7703    0.9390 O.3        1 <1>        0.000
     11 H          -2.3143    0.7753   -1.8250 H.spc      1 <1>        0.000
     12 H           4.3149    0.1205    0.3001 H.spc      1 <1>        0.000
@<TRIPOS>BOND
     1    1    2 1  
     2    1    7 1  
     3    2    3 1  
     4    3    4 1  
     5    4    5 2  
     6    4    6 1  
     7    7    8 1  
     8    8    9 2  
     9    8   10 1  
    10    6   11 1  
    11   10   12 1  
# Name:          frag3-234-3/31924 -- energy: -1.077804
# Creation time: Sat Jun  5 12:52:34 2010


@<TRIPOS>MOLECULE
frag3-234-3/31924 -- energy: -1.077804
   12    11     1     1     1
SMALL
USER_CHARGES


@<TRIPOS>ATOM
      1 S1          0.3184    1.4578   -1.0280 S.3        1 <1>        0.000
      2 S2         -1.1297    1.0246    0.2791 S.3        1 <1>        0.000
      3 S3         -2.5610    0.4562   -0.9500 S.3        1 <1>        0.000
      4 C1         -2.1630   -1.2392   -1.1245 C.2        1 <1>        0.000
      5 S4         -3.2141   -2.4646   -0.6574 S.2        1 <1>        0.000
      6 O1         -0.9149   -1.5382   -1.6069 O.3        1 <1>        0.000
      7 S5          1.6315    2.3313    0.1752 S.3        1 <1>        0.000
      8 C3          2.4204    0.9066    0.7979 C.2        1 <1>        0.000
      9 S6          3.1576   -0.2242   -0.2479 S.2        1 <1>        0.000
     10 O2          2.4065    0.6800    2.1323 O.3        1 <1>        0.000
     11 H          -0.4534   -0.7247   -1.8233 H.spc      1 <1>        0.000
     12 H           1.9580    1.4047    2.5741 H.spc      1 <1>        0.000
@<TRIPOS>BOND
     1    1    2 1  
     2    1    7 1  
     3    2    3 1  
     4    3    4 1  
     5    4    5 2  
     6    4    6 1  
     7    7    8 1  
     8    8    9 2  
     9    8   10 1  
    10    6   11 1  
    11   10   12 1  
# Name:          frag3-234-3/31924 -- energy: -1.204352
# Creation time: Sat Jun  5 12:52:34 2010


@<TRIPOS>MOLECULE
frag3-234-3/31924 -- energy: -1.204352
   12    11     1     1     1
SMALL
USER_CHARGES


@<TRIPOS>ATOM
      1 S1          0.4433    0.8755   -0.6308 S.3        1 <1>        0.000
      2 S2         -1.4538    0.9215   -0.1087 S.3        1 <1>        0.000
      3 S3         -1.7583   -1.0067    0.3382 S.3        1 <1>        0.000
      4 C1         -2.7344   -1.4503   -1.0196 C.2        1 <1>        0.000
      5 S4         -2.1524   -1.4397   -2.6200 S.2        1 <1>        0.000
      6 O1         -4.0379   -1.7497   -0.7793 O.3        1 <1>        0.000
      7 S5          1.3130    1.2350    1.1387 S.3        1 <1>        0.000
      8 C3          2.9662    1.2699    0.6827 C.2        1 <1>        0.000
      9 S6          3.5923    2.4596   -0.3633 S.2        1 <1>        0.000
     10 O2          3.7736    0.2754    1.1322 O.3        1 <1>        0.000
     11 H          -4.2047   -1.7127    0.1654 H.spc      1 <1>        0.000
     12 H           3.2719   -0.3074    1.7069 H.spc      1 <1>        0.000
@<TRIPOS>BOND
     1    1    2 1  
     2    1    7 1  
     3    2    3 1  
     4    3    4 1  
     5    4    5 2  
     6    4    6 1  
     7    7    8 1  
     8    8    9 2  
     9    8   10 1  
    10    6   11 1  
    11   10   12 1  
# Name:          frag3-234-3/31924 -- energy: -1.943593
# Creation time: Sat Jun  5 12:52:34 2010


@<TRIPOS>MOLECULE
frag3-234-3/31924 -- energy: -1.943593
   12    11     1     1     1
SMALL
USER_CHARGES


@<TRIPOS>ATOM
      1 S1         -0.1038    1.8300    0.0126 S.3        1 <1>        0.000
      2 S2         -1.9913    1.4100    0.4233 S.3        1 <1>        0.000
      3 S3         -2.5073    0.4923   -1.2677 S.3        1 <1>        0.000
      4 C1         -1.9006   -1.1239   -0.9784 C.2        1 <1>        0.000
      5 S4         -0.8669   -1.9385   -2.0212 S.2        1 <1>        0.000
      6 O1         -2.2925   -1.7001    0.2068 O.3        1 <1>        0.000
      7 S5          0.8115    0.1334    0.5718 S.3        1 <1>        0.000
      8 C3          2.4610    0.5633    0.3120 C.2        1 <1>        0.000
      9 S6          3.1840    1.8671    1.1229 S.2        1 <1>        0.000
     10 O2          3.1576   -0.1431   -0.6121 O.3        1 <1>        0.000
     11 H          -2.8783   -1.1004    0.6746 H.spc      1 <1>        0.000
     12 H           2.6002   -0.8388   -0.9683 H.spc      1 <1>        0.000
@<TRIPOS>BOND
     1    1    2 1  
     2    1    7 1  
     3    2    3 1  
     4    3    4 1  
     5    4    5 2  
     6    4    6 1  
     7    7    8 1  
     8    8    9 2  
     9    8   10 1  
    10    6   11 1  
    11   10   12 1  
# Name:          frag3-234-3/31924 -- energy: 2.332837
# Creation time: Sat Jun  5 12:52:34 2010


@<TRIPOS>MOLECULE
frag3-234-3/31924 -- energy: 2.332837
   12    11     1     1     1
SMALL
USER_CHARGES


@<TRIPOS>ATOM
      1 S1         -1.4049    0.4464    0.2577 S.3        1 <1>        0.000
      2 S2          0.5059    0.0011    0.5038 S.3        1 <1>        0.000
      3 S3          1.3209    1.7892    0.1564 S.3        1 <1>        0.000
      4 C1          2.9276    1.5478    0.7485 C.2        1 <1>        0.000
      5 S4          4.2459    2.4714    0.2374 S.2        1 <1>        0.000
      6 O1          3.1054    0.5342    1.6551 O.3        1 <1>        0.000
      7 S5         -1.6097   -0.0685   -1.6731 S.3        1 <1>        0.000
      8 C3         -2.6735   -1.4323   -1.4772 C.2        1 <1>        0.000
      9 S6         -4.2348   -1.2386   -0.8096 S.2        1 <1>        0.000
     10 O2         -2.2313   -2.6604   -1.8291 O.3        1 <1>        0.000
     11 H           2.2606    0.1151    1.8346 H.spc      1 <1>        0.000
     12 H          -1.3422   -2.5895   -2.1841 H.spc      1 <1>        0.000
@<TRIPOS>BOND
     1    1    2 1  
     2    1    7 1  
     3    2    3 1  
     4    3    4 1  
     5    4    5 2  
     6    4    6 1  
     7    7    8 1  
     8    8    9 2  
     9    8   10 1  
    10    6   11 1  
    11   10   12 1  
# Name:          frag3-234-3/31924 -- energy: -1.589220
# Creation time: Sat Jun  5 12:52:35 2010


@<TRIPOS>MOLECULE
frag3-234-3/31924 -- energy: -1.589220
   12    11     1     1     1
SMALL
USER_CHARGES


@<TRIPOS>ATOM
      1 S1         -0.5352    0.6789   -0.5761 S.3        1 <1>        0.000
      2 S2          0.6598   -0.6126    0.3647 S.3        1 <1>        0.000
      3 S3          2.4226   -0.1468   -0.3877 S.3        1 <1>        0.000
      4 C1          2.7639    1.2811    0.5445 C.2        1 <1>        0.000
      5 S4          2.0957    2.8058    0.2050 S.2        1 <1>        0.000
      6 O1          3.5629    1.1277    1.6374 O.3        1 <1>        0.000
      7 S5         -2.2911    0.1828    0.1728 S.3        1 <1>        0.000
      8 C3         -2.7740   -1.0136   -0.9872 C.2        1 <1>        0.000
      9 S6         -3.1762   -0.5917   -2.5861 S.2        1 <1>        0.000
     10 O2         -2.7770   -2.3213   -0.6172 O.3        1 <1>        0.000
     11 H           3.8589    0.2160    1.6906 H.spc      1 <1>        0.000
     12 H          -2.5305   -2.3915    0.3079 H.spc      1 <1>        0.000
@<TRIPOS>BOND
     1    1    2 1  
     2    1    7 1  
     3    2    3 1  
     4    3    4 1  
     5    4    5 2  
     6    4    6 1  
     7    7    8 1  
     8    8    9 2  
     9    8   10 1  
    10    6   11 1  
    11   10   12 1  
# Name:          frag3-234-3/31924 -- energy: 2.918936
# Creation time: Sat Jun  5 12:52:35 2010


@<TRIPOS>MOLECULE
frag3-234-3/31924 -- energy: 2.918936
   12    11     1     1     1
SMALL
USER_CHARGES


@<TRIPOS>ATOM
      1 S1         -0.5772   -0.1513    0.3483 S.3        1 <1>        0.000
      2 S2         -0.0331    1.7355    0.0320 S.3        1 <1>        0.000
      3 S3          1.2893    1.9529    1.4997 S.3        1 <1>        0.000
      4 C1          2.7033    1.2734    0.7179 C.2        1 <1>        0.000
      5 S4          3.6353    2.1878   -0.3624 S.2        1 <1>        0.000
      6 O1          3.0014   -0.0295    0.9616 O.3        1 <1>        0.000
      7 S5         -0.9598   -0.7600   -1.4929 S.3        1 <1>        0.000
      8 C3         -2.5546   -1.4170   -1.3100 C.2        1 <1>        0.000
      9 S6         -3.6220   -1.6494   -2.5931 S.2        1 <1>        0.000
     10 O2         -2.9311   -1.7520   -0.0309 O.3        1 <1>        0.000
     11 H           2.3738   -0.3873    1.5938 H.spc      1 <1>        0.000
     12 H          -2.2119   -1.5575    0.5745 H.spc      1 <1>        0.000
@<TRIPOS>BOND
     1    1    2 1  
     2    1    7 1  
     3    2    3 1  
     4    3    4 1  
     5    4    5 2  
     6    4    6 1  
     7    7    8 1  
     8    8    9 2  
     9    8   10 1  
    10    6   11 1  
    11   10   12 1  
# Name:          frag3-234-3/31924 -- energy: -1.845754
# Creation time: Sat Jun  5 12:52:35 2010


@<TRIPOS>MOLECULE
frag3-234-3/31924 -- energy: -1.845754
   12    11     1     1     1
SMALL
USER_CHARGES


@<TRIPOS>ATOM
      1 S1          0.6467    0.3695   -1.4439 S.3        1 <1>        0.000
      2 S2         -0.8942    1.4341   -0.7378 S.3        1 <1>        0.000
      3 S3         -2.4136    0.4866   -1.5524 S.3        1 <1>        0.000
      4 C1         -2.3777   -0.9941   -0.6120 C.2        1 <1>        0.000
      5 S4         -1.8440   -2.4718   -1.2160 S.2        1 <1>        0.000
      6 O1         -2.7691   -0.8791    0.6947 O.3        1 <1>        0.000
      7 S5          2.1796    1.4903   -0.8967 S.3        1 <1>        0.000
      8 C3          2.4632    0.8347    0.6888 C.2        1 <1>        0.000
      9 S6          1.4038    1.0768    1.9991 S.2        1 <1>        0.000
     10 O2          3.5570    0.0436    0.8461 O.3        1 <1>        0.000
     11 H          -3.0411    0.0252    0.8677 H.spc      1 <1>        0.000
     12 H           4.0473    0.0097    0.0214 H.spc      1 <1>        0.000
@<TRIPOS>BOND
     1    1    2 1  
     2    1    7 1  
     3    2    3 1  
     4    3    4 1  
     5    4    5 2  
     6    4    6 1  
     7    7    8 1  
     8    8    9 2  
     9    8   10 1  
    10    6   11 1  
    11   10   12 1  
# Name:          frag3-234-3/31924 -- energy: 0.706298
# Creation time: Sat Jun  5 12:52:35 2010


@<TRIPOS>MOLECULE
frag3-234-3/31924 -- energy: 0.706298
   12    11     1     1     1
SMALL
USER_CHARGES


@<TRIPOS>ATOM
      1 S1         -1.4982    0.9606    0.3239 S.3        1 <1>        0.000
      2 S2          0.2640    1.7239   -0.1068 S.3        1 <1>        0.000
      3 S3          1.4507    0.1253    0.1380 S.3        1 <1>        0.000
      4 C1          2.9229    0.9166    0.5596 C.2        1 <1>        0.000
      5 S4          3.0432    1.9388    1.9208 S.2        1 <1>        0.000
      6 O1          3.9893    0.7531   -0.2601 O.3        1 <1>        0.000
      7 S5         -2.0538    0.3256   -1.4819 S.3        1 <1>        0.000
      8 C3         -2.5830   -1.2879   -1.1556 C.2        1 <1>        0.000
      9 S6         -2.4983   -2.5474   -2.2714 S.2        1 <1>        0.000
     10 O2         -3.0852   -1.5180    0.1036 O.3        1 <1>        0.000
     11 H           3.7558    0.1516   -0.9709 H.spc      1 <1>        0.000
     12 H          -3.0634   -0.7024    0.6095 H.spc      1 <1>        0.000
@<TRIPOS>BOND
     1    1    2 1  
     2    1    7 1  
     3    2    3 1  
     4    3    4 1  
     5    4    5 2  
     6    4    6 1  
     7    7    8 1  
     8    8    9 2  
     9    8   10 1  
    10    6   11 1  
    11   10   12 1  
# Name:          frag3-234-3/31924 -- energy: 0.251893
# Creation time: Sat Jun  5 12:52:35 2010


@<TRIPOS>MOLECULE
frag3-234-3/31924 -- energy: 0.251893
   12    11     1     1     1
SMALL
USER_CHARGES


@<TRIPOS>ATOM
      1 S1         -0.6655    1.0054   -1.9883 S.3        1 <1>        0.000
      2 S2          0.0198    1.5432   -0.2127 S.3        1 <1>        0.000
      3 S3          1.1122   -0.0440    0.3046 S.3        1 <1>        0.000
      4 C1          2.5421    0.7395    0.8509 C.2        1 <1>        0.000
      5 S4          2.5589    1.6754    2.2611 S.2        1 <1>        0.000
      6 O1          3.6570    0.6412    0.0801 O.3        1 <1>        0.000
      7 S5         -2.5219    0.5250   -1.4833 S.3        1 <1>        0.000
      8 C3         -2.3010   -1.0631   -0.8160 C.2        1 <1>        0.000
      9 S6         -2.9188   -2.4536   -1.5397 S.2        1 <1>        0.000
     10 O2         -1.5311   -1.1787    0.3132 O.3        1 <1>        0.000
     11 H           3.4742    0.0765   -0.6745 H.spc      1 <1>        0.000
     12 H          -1.2569   -0.3055    0.6029 H.spc      1 <1>        0.000
@<TRIPOS>BOND
     1    1    2 1  
     2    1    7 1  
     3    2    3 1  
     4    3    4 1  
     5    4    5 2  
     6    4    6 1  
     7    7    8 1  
     8    8    9 2  
     9    8   10 1  
    10    6   11 1  
    11   10   12 1  
# Name:          frag3-234-3/31924 -- energy: -1.960601
# Creation time: Sat Jun  5 12:52:35 2010


@<TRIPOS>MOLECULE
frag3-234-3/31924 -- energy: -1.960601
   12    11     1     1     1
SMALL
USER_CHARGES


@<TRIPOS>ATOM
      1 S1         -0.1431    1.3081    0.7660 S.3        1 <1>        0.000
      2 S2         -1.7085    0.2655    1.3663 S.3        1 <1>        0.000
      3 S3         -2.8353    0.3433   -0.2700 S.3        1 <1>        0.000
      4 C1         -2.0930   -0.9053   -1.2425 C.2        1 <1>        0.000
      5 S4         -1.1019   -0.5996   -2.5667 S.2        1 <1>        0.000
      6 O1         -2.3255   -2.1920   -0.8322 O.3        1 <1>        0.000
      7 S5          1.1576   -0.1360    0.2941 S.3        1 <1>        0.000
      8 C3          2.6062    0.7701    0.1714 C.2        1 <1>        0.000
      9 S6          2.7781    2.0449   -0.9479 S.2        1 <1>        0.000
     10 O2          3.6169    0.4914    1.0314 O.3        1 <1>        0.000
     11 H          -2.9081   -2.1831   -0.0693 H.spc      1 <1>        0.000
     12 H           3.3652   -0.2472    1.5906 H.spc      1 <1>        0.000
@<TRIPOS>BOND
     1    1    2 1  
     2    1    7 1  
     3    2    3 1  
     4    3    4 1  
     5    4    5 2  
     6    4    6 1  
     7    7    8 1  
     8    8    9 2  
     9    8   10 1  
    10    6   11 1  
    11   10   12 1  
# Name:          frag3-234-3/31924 -- energy: -0.864411
# Creation time: Sat Jun  5 12:52:35 2010


@<TRIPOS>MOLECULE
frag3-234-3/31924 -- energy: -0.864411
   12    11     1     1     1
SMALL
USER_CHARGES


@<TRIPOS>ATOM
      1 S1          0.2440    0.7154   -0.2844 S.3        1 <1>        0.000
      2 S2         -1.0984   -0.1610    0.9017 S.3        1 <1>        0.000
      3 S3         -2.7507    0.1597   -0.1427 S.3        1 <1>        0.000
      4 C1         -2.6707   -1.1821   -1.2733 C.2        1 <1>        0.000
      5 S4         -2.9640   -1.0127   -2.9239 S.2        1 <1>        0.000
      6 O1         -2.3263   -2.3957   -0.7425 O.3        1 <1>        0.000
      7 S5          1.9244   -0.0670    0.4238 S.3        1 <1>        0.000
      8 C3          2.8818    1.3701    0.6189 C.2        1 <1>        0.000
      9 S6          4.2042    1.7074   -0.3905 S.2        1 <1>        0.000
     10 O2          2.5074    2.2563    1.5830 O.3        1 <1>        0.000
     11 H          -2.1986   -2.3048    0.2046 H.spc      1 <1>        0.000
     12 H           1.7480    1.9098    2.0571 H.spc      1 <1>        0.000
@<TRIPOS>BOND
     1    1    2 1  
     2    1    7 1  
     3    2    3 1  
     4    3    4 1  
     5    4    5 2  
     6    4    6 1  
     7    7    8 1  
     8    8    9 2  
     9    8   10 1  
    10    6   11 1  
    11   10   12 1  
# Name:          frag3-234-3/31924 -- energy: -0.288346
# Creation time: Sat Jun  5 12:52:35 2010


@<TRIPOS>MOLECULE
frag3-234-3/31924 -- energy: -0.288346
   12    11     1     1     1
SMALL
USER_CHARGES


@<TRIPOS>ATOM
      1 S1         -1.3382    1.1253   -0.2901 S.3        1 <1>        0.000
      2 S2          0.2428    0.0599    0.2949 S.3        1 <1>        0.000
      3 S3          1.6885    0.9172   -0.7394 S.3        1 <1>        0.000
      4 C1          2.7790    1.3697    0.5288 C.2        1 <1>        0.000
      5 S4          4.4571    1.3351    0.3507 S.2        1 <1>        0.000
      6 O1          2.2232    1.7205    1.7333 O.3        1 <1>        0.000
      7 S5         -2.7905   -0.1406    0.1992 S.3        1 <1>        0.000
      8 C3         -2.5084   -1.3688   -1.0156 C.2        1 <1>        0.000
      9 S6         -2.7786   -1.0555   -2.6694 S.2        1 <1>        0.000
     10 O2         -2.0234   -2.5724   -0.6224 O.3        1 <1>        0.000
     11 H           1.2662    1.6896    1.6640 H.spc      1 <1>        0.000
     12 H          -1.9311   -2.5823    0.3331 H.spc      1 <1>        0.000
@<TRIPOS>BOND
     1    1    2 1  
     2    1    7 1  
     3    2    3 1  
     4    3    4 1  
     5    4    5 2  
     6    4    6 1  
     7    7    8 1  
     8    8    9 2  
     9    8   10 1  
    10    6   11 1  
    11   10   12 1  
# Name:          frag3-234-3/31924 -- energy: -2.025950
# Creation time: Sat Jun  5 12:52:35 2010


@<TRIPOS>MOLECULE
frag3-234-3/31924 -- energy: -2.025950
   12    11     1     1     1
SMALL
USER_CHARGES


@<TRIPOS>ATOM
      1 S1         -1.3206    1.2581   -0.2116 S.3        1 <1>        0.000
      2 S2          0.1366    2.5659   -0.3131 S.3        1 <1>        0.000
      3 S3          1.2018    2.0243    1.2932 S.3        1 <1>        0.000
      4 C1          2.1297    0.7258    0.6292 C.2        1 <1>        0.000
      5 S4          3.0268    0.9105   -0.8105 S.2        1 <1>        0.000
      6 O1          2.1076   -0.4863    1.2379 O.3        1 <1>        0.000
      7 S5         -0.5540   -0.3459   -1.1186 S.3        1 <1>        0.000
      8 C3         -1.8214   -1.4658   -0.9897 C.2        1 <1>        0.000
      9 S6         -3.2697   -1.3182   -1.8574 S.2        1 <1>        0.000
     10 O2         -1.6850   -2.4780   -0.0893 O.3        1 <1>        0.000
     11 H           1.5666   -0.4359    2.0293 H.spc      1 <1>        0.000
     12 H          -0.8168   -2.4282    0.3174 H.spc      1 <1>        0.000
@<TRIPOS>BOND
     1    1    2 1  
     2    1    7 1  
     3    2    3 1  
     4    3    4 1  
     5    4    5 2  
     6    4    6 1  
     7    7    8 1  
     8    8    9 2  
     9    8   10 1  
    10    6   11 1  
    11   10   12 1  
# Name:          frag3-234-3/31924 -- energy: -1.642779
# Creation time: Sat Jun  5 12:52:35 2010


@<TRIPOS>MOLECULE
frag3-234-3/31924 -- energy: -1.642779
   12    11     1     1     1
SMALL
USER_CHARGES


@<TRIPOS>ATOM
      1 S1          0.7438   -0.0533   -0.8695 S.3        1 <1>        0.000
      2 S2         -0.7303    0.2956    0.4275 S.3        1 <1>        0.000
      3 S3         -2.2388    0.7107   -0.7676 S.3        1 <1>        0.000
      4 C1         -2.8513   -0.8895   -1.0319 C.2        1 <1>        0.000
      5 S4         -2.1557   -1.9954   -2.1159 S.2        1 <1>        0.000
      6 O1         -3.9105   -1.2771   -0.2652 O.3        1 <1>        0.000
      7 S5          2.2601   -0.4401    0.3348 S.3        1 <1>        0.000
      8 C3          2.8420    1.1733    0.5965 C.2        1 <1>        0.000
      9 S6          1.9297    2.3818    1.3754 S.2        1 <1>        0.000
     10 O2          4.0625    1.4845    0.0859 O.3        1 <1>        0.000
     11 H          -4.1869   -0.5447    0.2905 H.spc      1 <1>        0.000
     12 H           4.4479    0.7034   -0.3177 H.spc      1 <1>        0.000
@<TRIPOS>BOND
     1    1    2 1  
     2    1    7 1  
     3    2    3 1  
     4    3    4 1  
     5    4    5 2  
     6    4    6 1  
     7    7    8 1  
     8    8    9 2  
     9    8   10 1  
    10    6   11 1  
    11   10   12 1  
# Name:          frag3-234-3/31924 -- energy: -1.224529
# Creation time: Sat Jun  5 12:52:35 2010


@<TRIPOS>MOLECULE
frag3-234-3/31924 -- energy: -1.224529
   12    11     1     1     1
SMALL
USER_CHARGES


@<TRIPOS>ATOM
      1 S1          0.7552    0.1308   -0.8643 S.3        1 <1>        0.000
      2 S2         -0.9011    0.6833   -1.7866 S.3        1 <1>        0.000
      3 S3         -2.2277    0.3360   -0.3183 S.3        1 <1>        0.000
      4 C1         -2.6060   -1.3149   -0.7079 C.2        1 <1>        0.000
      5 S4         -2.9820   -1.7819   -2.3104 S.2        1 <1>        0.000
      6 O1         -2.5732   -2.2483    0.2700 O.3        1 <1>        0.000
      7 S5          1.2351    1.8429    0.0466 S.3        1 <1>        0.000
      8 C3          2.6259    1.3792    0.9399 C.2        1 <1>        0.000
      9 S6          4.2034    1.6748    0.4002 S.2        1 <1>        0.000
     10 O2          2.4220    0.6885    2.1007 O.3        1 <1>        0.000
     11 H          -2.3491   -1.8288    1.1039 H.spc      1 <1>        0.000
     12 H           1.4792    0.6080    2.2624 H.spc      1 <1>        0.000
@<TRIPOS>BOND
     1    1    2 1  
     2    1    7 1  
     3    2    3 1  
     4    3    4 1  
     5    4    5 2  
     6    4    6 1  
     7    7    8 1  
     8    8    9 2  
     9    8   10 1  
    10    6   11 1  
    11   10   12 1  
# Name:          frag3-234-3/31924 -- energy: -1.176051
# Creation time: Sat Jun  5 12:52:35 2010


@<TRIPOS>MOLECULE
frag3-234-3/31924 -- energy: -1.176051
   12    11     1     1     1
SMALL
USER_CHARGES


@<TRIPOS>ATOM
      1 S1          0.2590    1.3271   -1.1269 S.3        1 <1>        0.000
      2 S2         -1.1657    1.0707    0.2580 S.3        1 <1>        0.000
      3 S3         -2.6357    0.3778   -0.8672 S.3        1 <1>        0.000
      4 C1         -2.2187   -1.3278   -0.9005 C.2        1 <1>        0.000
      5 S4         -2.2341   -2.2553   -2.3040 S.2        1 <1>        0.000
      6 O1         -1.8461   -1.8759    0.2995 O.3        1 <1>        0.000
      7 S5          1.5931    2.3290   -0.0542 S.3        1 <1>        0.000
      8 C3          2.4450    0.9791    0.6789 C.2        1 <1>        0.000
      9 S6          3.8528    0.3437   -0.0100 S.2        1 <1>        0.000
     10 O2          1.9021    0.4220    1.7965 O.3        1 <1>        0.000
     11 H          -1.8966   -1.2061    0.9854 H.spc      1 <1>        0.000
     12 H           1.1126    0.9088    2.0442 H.spc      1 <1>        0.000
@<TRIPOS>BOND
     1    1    2 1  
     2    1    7 1  
     3    2    3 1  
     4    3    4 1  
     5    4    5 2  
     6    4    6 1  
     7    7    8 1  
     8    8    9 2  
     9    8   10 1  
    10    6   11 1  
    11   10   12 1  
# Name:          frag3-234-3/31924 -- energy: -1.276733
# Creation time: Sat Jun  5 12:52:35 2010


@<TRIPOS>MOLECULE
frag3-234-3/31924 -- energy: -1.276733
   12    11     1     1     1
SMALL
USER_CHARGES


@<TRIPOS>ATOM
      1 S1         -0.2900   -0.0374   -0.6924 S.3        1 <1>        0.000
      2 S2          0.3605    1.8237   -0.5172 S.3        1 <1>        0.000
      3 S3          1.1865    1.7302    1.2907 S.3        1 <1>        0.000
      4 C1          2.7635    1.1490    0.8278 C.2        1 <1>        0.000
      5 S4          3.9264    2.1878    0.1462 S.2        1 <1>        0.000
      6 O1          3.0368   -0.1751    0.9687 O.3        1 <1>        0.000
      7 S5         -2.2381    0.2696   -0.9800 S.3        1 <1>        0.000
      8 C3         -2.8153   -1.3505   -1.0180 C.2        1 <1>        0.000
      9 S6         -2.4055   -2.4237   -2.2767 S.2        1 <1>        0.000
     10 O2         -3.5730   -1.7832    0.0209 O.3        1 <1>        0.000
     11 H           2.2823   -0.6159    1.3662 H.spc      1 <1>        0.000
     12 H          -3.7111   -1.0605    0.6376 H.spc      1 <1>        0.000
@<TRIPOS>BOND
     1    1    2 1  
     2    1    7 1  
     3    2    3 1  
     4    3    4 1  
     5    4    5 2  
     6    4    6 1  
     7    7    8 1  
     8    8    9 2  
     9    8   10 1  
    10    6   11 1  
    11   10   12 1  
# Name:          frag3-234-3/31924 -- energy: -1.896231
# Creation time: Sat Jun  5 12:52:35 2010


@<TRIPOS>MOLECULE
frag3-234-3/31924 -- energy: -1.896231
   12    11     1     1     1
SMALL
USER_CHARGES


@<TRIPOS>ATOM
      1 S1         -1.0401    1.3995   -0.2669 S.3        1 <1>        0.000
      2 S2         -0.1521    0.8326    1.4232 S.3        1 <1>        0.000
      3 S3          1.5412    1.8381    1.3702 S.3        1 <1>        0.000
      4 C1          2.4567    0.8023    0.3261 C.2        1 <1>        0.000
      5 S4          2.0569    0.5077   -1.3019 S.2        1 <1>        0.000
      6 O1          3.5065    0.1363    0.8769 O.3        1 <1>        0.000
      7 S5         -2.6492    0.2834   -0.2611 S.3        1 <1>        0.000
      8 C3         -2.0892   -1.0987   -1.1363 C.2        1 <1>        0.000
      9 S6         -2.2375   -1.2258   -2.8161 S.2        1 <1>        0.000
     10 O2         -1.4416   -2.0851   -0.4442 O.3        1 <1>        0.000
     11 H           3.6091    0.4045    1.7929 H.spc      1 <1>        0.000
     12 H          -1.4404   -1.8701    0.4914 H.spc      1 <1>        0.000
@<TRIPOS>BOND
     1    1    2 1  
     2    1    7 1  
     3    2    3 1  
     4    3    4 1  
     5    4    5 2  
     6    4    6 1  
     7    7    8 1  
     8    8    9 2  
     9    8   10 1  
    10    6   11 1  
    11   10   12 1  
# Name:          frag3-234-3/31924 -- energy: -1.303220
# Creation time: Sat Jun  5 12:52:35 2010


@<TRIPOS>MOLECULE
frag3-234-3/31924 -- energy: -1.303220
   12    11     1     1     1
SMALL
USER_CHARGES


@<TRIPOS>ATOM
      1 S1          0.2613    1.7643   -0.1759 S.3        1 <1>        0.000
      2 S2         -1.3326    0.8213    0.4283 S.3        1 <1>        0.000
      3 S3         -2.2333    0.4115   -1.3103 S.3        1 <1>        0.000
      4 C1         -2.6428   -1.2304   -1.1040 C.2        1 <1>        0.000
      5 S4         -1.5231   -2.4166   -0.6186 S.2        1 <1>        0.000
      6 O1         -3.9432   -1.5820   -1.2729 O.3        1 <1>        0.000
      7 S5          1.5762    0.2880   -0.4465 S.3        1 <1>        0.000
      8 C3          2.9058    0.8936    0.4374 C.2        1 <1>        0.000
      9 S6          2.8173    1.3445    2.0740 S.2        1 <1>        0.000
     10 O2          4.0660    1.0961   -0.2414 O.3        1 <1>        0.000
     11 H          -4.4487   -0.8127   -1.5454 H.spc      1 <1>        0.000
     12 H           3.9627    0.7939   -1.1467 H.spc      1 <1>        0.000
@<TRIPOS>BOND
     1    1    2 1  
     2    1    7 1  
     3    2    3 1  
     4    3    4 1  
     5    4    5 2  
     6    4    6 1  
     7    7    8 1  
     8    8    9 2  
     9    8   10 1  
    10    6   11 1  
    11   10   12 1  
# Name:          frag3-234-3/31924 -- energy: -1.331793
# Creation time: Sat Jun  5 12:52:35 2010


@<TRIPOS>MOLECULE
frag3-234-3/31924 -- energy: -1.331793
   12    11     1     1     1
SMALL
USER_CHARGES


@<TRIPOS>ATOM
      1 S1          0.3605    0.4571   -0.3321 S.3        1 <1>        0.000
      2 S2         -1.1628   -0.0051    0.8471 S.3        1 <1>        0.000
      3 S3         -2.6935    0.3600   -0.3681 S.3        1 <1>        0.000
      4 C1         -2.7377   -1.1673   -1.1995 C.2        1 <1>        0.000
      5 S4         -1.5378   -1.6661   -2.2994 S.2        1 <1>        0.000
      6 O1         -3.7550   -2.0145   -0.8892 O.3        1 <1>        0.000
      7 S5          1.2809    1.8295    0.7623 S.3        1 <1>        0.000
      8 C3          2.9169    1.3349    0.5629 C.2        1 <1>        0.000
      9 S6          3.7523    1.5823   -0.8988 S.2        1 <1>        0.000
     10 O2          3.5277    0.6794    1.5846 O.3        1 <1>        0.000
     11 H          -4.3437   -1.5894   -0.2612 H.spc      1 <1>        0.000
     12 H           2.9273    0.6231    2.3315 H.spc      1 <1>        0.000
@<TRIPOS>BOND
     1    1    2 1  
     2    1    7 1  
     3    2    3 1  
     4    3    4 1  
     5    4    5 2  
     6    4    6 1  
     7    7    8 1  
     8    8    9 2  
     9    8   10 1  
    10    6   11 1  
    11   10   12 1  
# Name:          frag3-234-3/31924 -- energy: -1.907071
# Creation time: Sat Jun  5 12:52:35 2010


@<TRIPOS>MOLECULE
frag3-234-3/31924 -- energy: -1.907071
   12    11     1     1     1
SMALL
USER_CHARGES


@<TRIPOS>ATOM
      1 S1          0.1795    0.1385    1.6263 S.3        1 <1>        0.000
      2 S2         -1.4426   -0.9124    1.3200 S.3        1 <1>        0.000
      3 S3         -2.4023    0.3004    0.0385 S.3        1 <1>        0.000
      4 C1         -2.0476   -0.4731   -1.4614 C.2        1 <1>        0.000
      5 S4         -2.5621   -2.0629   -1.7867 S.2        1 <1>        0.000
      6 O1         -1.2953    0.1813   -2.3837 O.3        1 <1>        0.000
      7 S5          1.1090    0.0112   -0.1456 S.3        1 <1>        0.000
      8 C3          2.4453    1.0345    0.0894 C.2        1 <1>        0.000
      9 S6          2.3003    2.7186    0.2416 S.2        1 <1>        0.000
     10 O2          3.6675    0.4543    0.2314 O.3        1 <1>        0.000
     11 H          -1.0853    1.0599   -2.0587 H.spc      1 <1>        0.000
     12 H           3.5847   -0.4954    0.1183 H.spc      1 <1>        0.000
@<TRIPOS>BOND
     1    1    2 1  
     2    1    7 1  
     3    2    3 1  
     4    3    4 1  
     5    4    5 2  
     6    4    6 1  
     7    7    8 1  
     8    8    9 2  
     9    8   10 1  
    10    6   11 1  
    11   10   12 1  
# Name:          frag3-234-3/31924 -- energy: -1.570772
# Creation time: Sat Jun  5 12:52:35 2010


@<TRIPOS>MOLECULE
frag3-234-3/31924 -- energy: -1.570772
   12    11     1     1     1
SMALL
USER_CHARGES


@<TRIPOS>ATOM
      1 S1          0.1125    0.6871    1.4397 S.3        1 <1>        0.000
      2 S2         -1.4111   -0.5191    1.1327 S.3        1 <1>        0.000
      3 S3         -2.3110    0.4271   -0.3765 S.3        1 <1>        0.000
      4 C1         -2.3091   -0.7977   -1.5933 C.2        1 <1>        0.000
      5 S4         -3.6963   -1.6951   -1.9693 S.2        1 <1>        0.000
      6 O1         -1.1254   -1.0827   -2.2138 O.3        1 <1>        0.000
      7 S5          1.4756   -0.0711    0.1830 S.3        1 <1>        0.000
      8 C3          2.7487    1.0825    0.3559 C.2        1 <1>        0.000
      9 S6          2.5988    2.6766   -0.1997 S.2        1 <1>        0.000
     10 O2          3.8689    0.6829    1.0112 O.3        1 <1>        0.000
     11 H          -0.4447   -0.4878   -1.8908 H.spc      1 <1>        0.000
     12 H           3.7844   -0.2426    1.2520 H.spc      1 <1>        0.000
@<TRIPOS>BOND
     1    1    2 1  
     2    1    7 1  
     3    2    3 1  
     4    3    4 1  
     5    4    5 2  
     6    4    6 1  
     7    7    8 1  
     8    8    9 2  
     9    8   10 1  
    10    6   11 1  
    11   10   12 1  
