#      Rotatable Fragment
#      Build by yxyuan
#
# Name:          frag3-213-4/31924
# Creation time: Sat Jun  5 12:52:21 2010


@<TRIPOS>MOLECULE
frag3-213-4/31924
   10     9     1     1     1
SMALL
USER_CHARGES


@<TRIPOS>ATOM
      1 C51         1.8118    0.2356    0.2226 C.2        1 <1>        0.000
      2 C52         0.6340   -0.3267    0.0018 C.2        1 <1>        0.000
      3 N3         -0.5504    0.3526   -0.1527 N.am       1 <1>        0.000
      4 C54        -1.8142   -0.2011    0.0022 C.2        1 <1>        0.000
      5 O13        -2.8780    0.3387   -0.2611 O.2        1 <1>        0.000
      6 H           1.8930    1.3202    0.2946 H.spc      1 <1>        0.000
      7 H           2.7005   -0.3860    0.3325 H.spc      1 <1>        0.000
      8 H           0.6011   -1.4143   -0.0625 H.spc      1 <1>        0.000
      9 H          -0.4970    1.3406   -0.4005 H.spc      1 <1>        0.000
     10 H          -1.8618   -1.2159    0.3971 H.spc      1 <1>        0.000
@<TRIPOS>BOND
     1    1    2 2  
     2    2    3 1  
     3    3    4 am 
     4    4    5 2  
     5    1    6 1  
     6    1    7 1  
     7    2    8 1  
     8    3    9 1  
     9    4   10 1  
# Name:          frag3-213-4/31924
# Creation time: Sat Jun  5 12:52:21 2010


@<TRIPOS>MOLECULE
frag3-213-4/31924
   10     9     1     1     1
SMALL
USER_CHARGES


@<TRIPOS>ATOM
      1 C51         1.3377    0.3062    0.6868 C.2        1 <1>        0.000
      2 C52         0.7686   -0.2187   -0.3903 C.2        1 <1>        0.000
      3 N3         -0.5578   -0.2149   -0.6347 N.am       1 <1>        0.000
      4 C54        -1.5728    0.2119    0.1811 C.2        1 <1>        0.000
      5 O13        -2.7724    0.3146   -0.0302 O.2        1 <1>        0.000
      6 H           0.7231    0.7829    1.4504 H.spc      1 <1>        0.000
      7 H           2.4200    0.2609    0.8082 H.spc      1 <1>        0.000
      8 H           1.4187   -0.6860   -1.1300 H.spc      1 <1>        0.000
      9 H          -0.8424   -0.5767   -1.5449 H.spc      1 <1>        0.000
     10 H          -1.2592    0.5083    1.1821 H.spc      1 <1>        0.000
@<TRIPOS>BOND
     1    1    2 2  
     2    2    3 1  
     3    3    4 am 
     4    4    5 2  
     5    1    6 1  
     6    1    7 1  
     7    2    8 1  
     8    3    9 1  
     9    4   10 1  
# Name:          frag3-213-4/31924
# Creation time: Sat Jun  5 12:52:21 2010


@<TRIPOS>MOLECULE
frag3-213-4/31924
   10     9     1     1     1
SMALL
USER_CHARGES


@<TRIPOS>ATOM
      1 C51         1.7173    0.1118    0.2984 C.2        1 <1>        0.000
      2 C52         0.3976    0.0653    0.3677 C.2        1 <1>        0.000
      3 N3         -0.4888    0.0225   -0.6469 N.am       1 <1>        0.000
      4 C54        -1.8444   -0.0540   -0.5614 C.2        1 <1>        0.000
      5 O13        -2.5785    0.2535    0.3550 O.2        1 <1>        0.000
      6 H           2.2121    0.1189   -0.6728 H.spc      1 <1>        0.000
      7 H           2.3103    0.1430    1.2125 H.spc      1 <1>        0.000
      8 H          -0.0269    0.0610    1.3716 H.spc      1 <1>        0.000
      9 H          -0.0976    0.0508   -1.5885 H.spc      1 <1>        0.000
     10 H          -2.3446   -0.4494   -1.4455 H.spc      1 <1>        0.000
@<TRIPOS>BOND
     1    1    2 2  
     2    2    3 1  
     3    3    4 am 
     4    4    5 2  
     5    1    6 1  
     6    1    7 1  
     7    2    8 1  
     8    3    9 1  
     9    4   10 1  
# Name:          frag3-213-4/31924
# Creation time: Sat Jun  5 12:52:21 2010


@<TRIPOS>MOLECULE
frag3-213-4/31924
   10     9     1     1     1
SMALL
USER_CHARGES


@<TRIPOS>ATOM
      1 C51         0.9413    0.8522    0.3565 C.2        1 <1>        0.000
      2 C52         0.6310   -0.3966    0.0333 C.2        1 <1>        0.000
      3 N3         -0.5646   -0.8045   -0.4592 N.am       1 <1>        0.000
      4 C54        -1.7439   -0.1067   -0.4022 C.2        1 <1>        0.000
      5 O13        -2.0606    0.8547    0.2844 O.2        1 <1>        0.000
      6 H           0.2052    1.6464    0.2320 H.spc      1 <1>        0.000
      7 H           1.9324    1.0840    0.7466 H.spc      1 <1>        0.000
      8 H           1.3996   -1.1563    0.1752 H.spc      1 <1>        0.000
      9 H          -0.5893   -1.7166   -0.9152 H.spc      1 <1>        0.000
     10 H          -2.5223   -0.4658   -1.0755 H.spc      1 <1>        0.000
@<TRIPOS>BOND
     1    1    2 2  
     2    2    3 1  
     3    3    4 am 
     4    4    5 2  
     5    1    6 1  
     6    1    7 1  
     7    2    8 1  
     8    3    9 1  
     9    4   10 1  
# Name:          frag3-213-4/31924 -- energy: -0.451623
# Creation time: Sat Jun  5 12:52:21 2010


@<TRIPOS>MOLECULE
frag3-213-4/31924 -- energy: -0.451623
   10     9     1     1     1
SMALL
USER_CHARGES


@<TRIPOS>ATOM
      1 C51         1.8118    0.2356    0.2226 C.2        1 <1>        0.000
      2 C52         0.6340   -0.3267    0.0018 C.2        1 <1>        0.000
      3 N3         -0.5504    0.3526   -0.1527 N.am       1 <1>        0.000
      4 C54        -1.8142   -0.2011    0.0022 C.2        1 <1>        0.000
      5 O13        -2.8780    0.3387   -0.2611 O.2        1 <1>        0.000
      6 H           1.8930    1.3202    0.2946 H.spc      1 <1>        0.000
      7 H           2.7005   -0.3860    0.3325 H.spc      1 <1>        0.000
      8 H           0.6011   -1.4143   -0.0625 H.spc      1 <1>        0.000
      9 H          -0.4970    1.3406   -0.4005 H.spc      1 <1>        0.000
     10 H          -1.8618   -1.2159    0.3971 H.spc      1 <1>        0.000
@<TRIPOS>BOND
     1    1    2 2  
     2    2    3 1  
     3    3    4 am 
     4    4    5 2  
     5    1    6 1  
     6    1    7 1  
     7    2    8 1  
     8    3    9 1  
     9    4   10 1  
# Name:          frag3-213-4/31924 -- energy: -0.293354
# Creation time: Sat Jun  5 12:52:21 2010


@<TRIPOS>MOLECULE
frag3-213-4/31924 -- energy: -0.293354
   10     9     1     1     1
SMALL
USER_CHARGES


@<TRIPOS>ATOM
      1 C51         1.3377    0.3062    0.6868 C.2        1 <1>        0.000
      2 C52         0.7686   -0.2187   -0.3903 C.2        1 <1>        0.000
      3 N3         -0.5578   -0.2149   -0.6347 N.am       1 <1>        0.000
      4 C54        -1.5728    0.2119    0.1811 C.2        1 <1>        0.000
      5 O13        -2.7724    0.3146   -0.0302 O.2        1 <1>        0.000
      6 H           0.7231    0.7829    1.4504 H.spc      1 <1>        0.000
      7 H           2.4200    0.2609    0.8082 H.spc      1 <1>        0.000
      8 H           1.4187   -0.6860   -1.1300 H.spc      1 <1>        0.000
      9 H          -0.8424   -0.5767   -1.5449 H.spc      1 <1>        0.000
     10 H          -1.2592    0.5083    1.1821 H.spc      1 <1>        0.000
@<TRIPOS>BOND
     1    1    2 2  
     2    2    3 1  
     3    3    4 am 
     4    4    5 2  
     5    1    6 1  
     6    1    7 1  
     7    2    8 1  
     8    3    9 1  
     9    4   10 1  
# Name:          frag3-213-4/31924 -- energy: -0.465531
# Creation time: Sat Jun  5 12:52:21 2010


@<TRIPOS>MOLECULE
frag3-213-4/31924 -- energy: -0.465531
   10     9     1     1     1
SMALL
USER_CHARGES


@<TRIPOS>ATOM
      1 C51         1.7173    0.1118    0.2984 C.2        1 <1>        0.000
      2 C52         0.3976    0.0653    0.3677 C.2        1 <1>        0.000
      3 N3         -0.4888    0.0225   -0.6469 N.am       1 <1>        0.000
      4 C54        -1.8444   -0.0540   -0.5614 C.2        1 <1>        0.000
      5 O13        -2.5785    0.2535    0.3550 O.2        1 <1>        0.000
      6 H           2.2121    0.1189   -0.6728 H.spc      1 <1>        0.000
      7 H           2.3103    0.1430    1.2125 H.spc      1 <1>        0.000
      8 H          -0.0269    0.0610    1.3716 H.spc      1 <1>        0.000
      9 H          -0.0976    0.0508   -1.5885 H.spc      1 <1>        0.000
     10 H          -2.3446   -0.4494   -1.4455 H.spc      1 <1>        0.000
@<TRIPOS>BOND
     1    1    2 2  
     2    2    3 1  
     3    3    4 am 
     4    4    5 2  
     5    1    6 1  
     6    1    7 1  
     7    2    8 1  
     8    3    9 1  
     9    4   10 1  
# Name:          frag3-213-4/31924 -- energy: -0.393154
# Creation time: Sat Jun  5 12:52:21 2010


@<TRIPOS>MOLECULE
frag3-213-4/31924 -- energy: -0.393154
   10     9     1     1     1
SMALL
USER_CHARGES


@<TRIPOS>ATOM
      1 C51         0.9413    0.8522    0.3565 C.2        1 <1>        0.000
      2 C52         0.6310   -0.3966    0.0333 C.2        1 <1>        0.000
      3 N3         -0.5646   -0.8045   -0.4592 N.am       1 <1>        0.000
      4 C54        -1.7439   -0.1067   -0.4022 C.2        1 <1>        0.000
      5 O13        -2.0606    0.8547    0.2844 O.2        1 <1>        0.000
      6 H           0.2052    1.6464    0.2320 H.spc      1 <1>        0.000
      7 H           1.9324    1.0840    0.7466 H.spc      1 <1>        0.000
      8 H           1.3996   -1.1563    0.1752 H.spc      1 <1>        0.000
      9 H          -0.5893   -1.7166   -0.9152 H.spc      1 <1>        0.000
     10 H          -2.5223   -0.4658   -1.0755 H.spc      1 <1>        0.000
@<TRIPOS>BOND
     1    1    2 2  
     2    2    3 1  
     3    3    4 am 
     4    4    5 2  
     5    1    6 1  
     6    1    7 1  
     7    2    8 1  
     8    3    9 1  
     9    4   10 1  
