#      Rotatable Fragment
#      Build by yxyuan
#
# Name:          frag3-163-11/31924
# Creation time: Sat Jun  5 12:52:05 2010


@<TRIPOS>MOLECULE
frag3-163-11/31924
   10     9     1     1     1
SMALL
USER_CHARGES


@<TRIPOS>ATOM
      1 N1         -0.9370   -2.7043    0.3761 N.1        1 <1>        0.000
      2 C1         -0.7035   -1.5793    0.2178 C.1        1 <1>        0.000
      3 C2         -0.4217   -0.2046    0.0566 C.2        1 <1>        0.000
      4 C3         -1.3546    0.7296   -0.1880 C.2        1 <1>        0.000
      5 C4          0.9331    0.4077    0.1051 C.2        1 <1>        0.000
      6 O1          1.2167    1.5033   -0.3632 O.2        1 <1>        0.000
      7 O2          1.8866   -0.3206    0.6913 O.3        1 <1>        0.000
      8 H          -1.0615    1.7712   -0.3191 H.spc      1 <1>        0.000
      9 H          -2.4050    0.4463   -0.2554 H.spc      1 <1>        0.000
     10 H           1.5099   -1.1460    1.0049 H.spc      1 <1>        0.000
@<TRIPOS>BOND
     1    1    2 3  
     2    2    3 1  
     3    3    4 2  
     4    3    5 1  
     5    5    6 2  
     6    5    7 1  
     7    4    8 1  
     8    4    9 1  
     9    7   10 1  
# Name:          frag3-163-11/31924
# Creation time: Sat Jun  5 12:52:05 2010


@<TRIPOS>MOLECULE
frag3-163-11/31924
   10     9     1     1     1
SMALL
USER_CHARGES


@<TRIPOS>ATOM
      1 N1         -1.0185   -2.6086    0.7262 N.1        1 <1>        0.000
      2 C1         -0.7419   -1.5378    0.3665 C.1        1 <1>        0.000
      3 C2         -0.3957   -0.2313   -0.0500 C.2        1 <1>        0.000
      4 C3         -1.2039    0.5750   -0.7528 C.2        1 <1>        0.000
      5 C4          0.9155    0.4161    0.1641 C.2        1 <1>        0.000
      6 O1          1.0722    1.5769    0.5165 O.2        1 <1>        0.000
      7 O2          1.9921   -0.3584   -0.0748 O.3        1 <1>        0.000
      8 H          -0.8502    1.5540   -1.0760 H.spc      1 <1>        0.000
      9 H          -2.2148    0.2515   -1.0010 H.spc      1 <1>        0.000
     10 H           1.7022   -1.2343   -0.3402 H.spc      1 <1>        0.000
@<TRIPOS>BOND
     1    1    2 3  
     2    2    3 1  
     3    3    4 2  
     4    3    5 1  
     5    5    6 2  
     6    5    7 1  
     7    4    8 1  
     8    4    9 1  
     9    7   10 1  
# Name:          frag3-163-11/31924
# Creation time: Sat Jun  5 12:52:05 2010


@<TRIPOS>MOLECULE
frag3-163-11/31924
   10     9     1     1     1
SMALL
USER_CHARGES


@<TRIPOS>ATOM
      1 N1         -1.0053   -2.7022   -0.1982 N.1        1 <1>        0.000
      2 C1         -0.7336   -1.5866   -0.0019 C.1        1 <1>        0.000
      3 C2         -0.3891   -0.2324    0.2552 C.2        1 <1>        0.000
      4 C3         -1.2625    0.6961    0.6478 C.2        1 <1>        0.000
      5 C4          0.9505    0.3485    0.0494 C.2        1 <1>        0.000
      6 O1          1.6625    0.1822   -0.9269 O.2        1 <1>        0.000
      7 O2          1.3973    1.1262    1.0702 O.3        1 <1>        0.000
      8 H          -0.9393    1.7293    0.7747 H.spc      1 <1>        0.000
      9 H          -2.2994    0.4216    0.8417 H.spc      1 <1>        0.000
     10 H           0.7306    1.1608    1.7601 H.spc      1 <1>        0.000
@<TRIPOS>BOND
     1    1    2 3  
     2    2    3 1  
     3    3    4 2  
     4    3    5 1  
     5    5    6 2  
     6    5    7 1  
     7    4    8 1  
     8    4    9 1  
     9    7   10 1  
# Name:          frag3-163-11/31924
# Creation time: Sat Jun  5 12:52:05 2010


@<TRIPOS>MOLECULE
frag3-163-11/31924
   10     9     1     1     1
SMALL
USER_CHARGES


@<TRIPOS>ATOM
      1 N1         -1.1016   -2.5901    0.7803 N.1        1 <1>        0.000
      2 C1         -0.7614   -1.5458    0.3956 C.1        1 <1>        0.000
      3 C2         -0.3680   -0.2641   -0.0616 C.2        1 <1>        0.000
      4 C3         -1.1173    0.5140   -0.8515 C.2        1 <1>        0.000
      5 C4          0.9379    0.3689    0.2035 C.2        1 <1>        0.000
      6 O1          1.4334    0.5246    1.3125 O.2        1 <1>        0.000
      7 O2          1.5968    0.8243   -0.8830 O.3        1 <1>        0.000
      8 H          -0.7285    1.4702   -1.2016 H.spc      1 <1>        0.000
      9 H          -2.1164    0.1915   -1.1447 H.spc      1 <1>        0.000
     10 H           1.0851    0.6289   -1.6714 H.spc      1 <1>        0.000
@<TRIPOS>BOND
     1    1    2 3  
     2    2    3 1  
     3    3    4 2  
     4    3    5 1  
     5    5    6 2  
     6    5    7 1  
     7    4    8 1  
     8    4    9 1  
     9    7   10 1  
# Name:          frag3-163-11/31924 -- energy: 0.295290
# Creation time: Sat Jun  5 12:52:05 2010


@<TRIPOS>MOLECULE
frag3-163-11/31924 -- energy: 0.295290
   10     9     1     1     1
SMALL
USER_CHARGES


@<TRIPOS>ATOM
      1 N1         -0.9370   -2.7043    0.3761 N.1        1 <1>        0.000
      2 C1         -0.7035   -1.5793    0.2178 C.1        1 <1>        0.000
      3 C2         -0.4217   -0.2046    0.0566 C.2        1 <1>        0.000
      4 C3         -1.3546    0.7296   -0.1880 C.2        1 <1>        0.000
      5 C4          0.9331    0.4077    0.1051 C.2        1 <1>        0.000
      6 O1          1.2167    1.5033   -0.3632 O.2        1 <1>        0.000
      7 O2          1.8866   -0.3206    0.6913 O.3        1 <1>        0.000
      8 H          -1.0615    1.7712   -0.3191 H.spc      1 <1>        0.000
      9 H          -2.4050    0.4463   -0.2554 H.spc      1 <1>        0.000
     10 H           1.5099   -1.1460    1.0049 H.spc      1 <1>        0.000
@<TRIPOS>BOND
     1    1    2 3  
     2    2    3 1  
     3    3    4 2  
     4    3    5 1  
     5    5    6 2  
     6    5    7 1  
     7    4    8 1  
     8    4    9 1  
     9    7   10 1  
# Name:          frag3-163-11/31924 -- energy: -0.246973
# Creation time: Sat Jun  5 12:52:05 2010


@<TRIPOS>MOLECULE
frag3-163-11/31924 -- energy: -0.246973
   10     9     1     1     1
SMALL
USER_CHARGES


@<TRIPOS>ATOM
      1 N1         -1.0185   -2.6086    0.7262 N.1        1 <1>        0.000
      2 C1         -0.7419   -1.5378    0.3665 C.1        1 <1>        0.000
      3 C2         -0.3957   -0.2313   -0.0500 C.2        1 <1>        0.000
      4 C3         -1.2039    0.5750   -0.7528 C.2        1 <1>        0.000
      5 C4          0.9155    0.4161    0.1641 C.2        1 <1>        0.000
      6 O1          1.0722    1.5769    0.5165 O.2        1 <1>        0.000
      7 O2          1.9921   -0.3584   -0.0748 O.3        1 <1>        0.000
      8 H          -0.8502    1.5540   -1.0760 H.spc      1 <1>        0.000
      9 H          -2.2148    0.2515   -1.0010 H.spc      1 <1>        0.000
     10 H           1.7022   -1.2343   -0.3402 H.spc      1 <1>        0.000
@<TRIPOS>BOND
     1    1    2 3  
     2    2    3 1  
     3    3    4 2  
     4    3    5 1  
     5    5    6 2  
     6    5    7 1  
     7    4    8 1  
     8    4    9 1  
     9    7   10 1  
# Name:          frag3-163-11/31924 -- energy: 0.386386
# Creation time: Sat Jun  5 12:52:05 2010


@<TRIPOS>MOLECULE
frag3-163-11/31924 -- energy: 0.386386
   10     9     1     1     1
SMALL
USER_CHARGES


@<TRIPOS>ATOM
      1 N1         -1.0053   -2.7022   -0.1982 N.1        1 <1>        0.000
      2 C1         -0.7336   -1.5866   -0.0019 C.1        1 <1>        0.000
      3 C2         -0.3891   -0.2324    0.2552 C.2        1 <1>        0.000
      4 C3         -1.2625    0.6961    0.6478 C.2        1 <1>        0.000
      5 C4          0.9505    0.3485    0.0494 C.2        1 <1>        0.000
      6 O1          1.6625    0.1822   -0.9269 O.2        1 <1>        0.000
      7 O2          1.3973    1.1262    1.0702 O.3        1 <1>        0.000
      8 H          -0.9393    1.7293    0.7747 H.spc      1 <1>        0.000
      9 H          -2.2994    0.4216    0.8417 H.spc      1 <1>        0.000
     10 H           0.7306    1.1608    1.7601 H.spc      1 <1>        0.000
@<TRIPOS>BOND
     1    1    2 3  
     2    2    3 1  
     3    3    4 2  
     4    3    5 1  
     5    5    6 2  
     6    5    7 1  
     7    4    8 1  
     8    4    9 1  
     9    7   10 1  
# Name:          frag3-163-11/31924 -- energy: 0.252023
# Creation time: Sat Jun  5 12:52:05 2010


@<TRIPOS>MOLECULE
frag3-163-11/31924 -- energy: 0.252023
   10     9     1     1     1
SMALL
USER_CHARGES


@<TRIPOS>ATOM
      1 N1         -1.1016   -2.5901    0.7803 N.1        1 <1>        0.000
      2 C1         -0.7614   -1.5458    0.3956 C.1        1 <1>        0.000
      3 C2         -0.3680   -0.2641   -0.0616 C.2        1 <1>        0.000
      4 C3         -1.1173    0.5140   -0.8515 C.2        1 <1>        0.000
      5 C4          0.9379    0.3689    0.2035 C.2        1 <1>        0.000
      6 O1          1.4334    0.5246    1.3125 O.2        1 <1>        0.000
      7 O2          1.5968    0.8243   -0.8830 O.3        1 <1>        0.000
      8 H          -0.7285    1.4702   -1.2016 H.spc      1 <1>        0.000
      9 H          -2.1164    0.1915   -1.1447 H.spc      1 <1>        0.000
     10 H           1.0851    0.6289   -1.6714 H.spc      1 <1>        0.000
@<TRIPOS>BOND
     1    1    2 3  
     2    2    3 1  
     3    3    4 2  
     4    3    5 1  
     5    5    6 2  
     6    5    7 1  
     7    4    8 1  
     8    4    9 1  
     9    7   10 1  
