#      Rotatable Fragment
#      Build by yxyuan
#
# Name:          frag4-346-430/150395
# Creation time: Sat Jun  5 12:53:31 2010


@<TRIPOS>MOLECULE
frag4-346-430/150395
   15    15     1     1     1
SMALL
USER_CHARGES


@<TRIPOS>ATOM
      1 N1          1.8805    1.4750   -0.0000 N.3        1 <1>        0.000
      2 C14         3.1077    2.2288    0.0000 C.3        1 <1>        0.000
      3 C15         1.7900    0.0377    0.0000 C.3        1 <1>        0.000
      4 C17         4.4221    1.3785   -0.0000 C.3        1 <1>        0.000
      5 C18         3.1572   -0.7248   -0.0000 C.3        1 <1>        0.000
      6 O1          4.3582   -0.0150    0.0000 O.3        1 <1>        0.000
      7 H           1.4780    1.7171    0.9054 H.spc      1 <1>        0.000
      8 H           3.1145    2.8101    0.9220 H.spc      1 <1>        0.000
      9 H           3.1145    2.8101   -0.9220 H.spc      1 <1>        0.000
     10 H           1.2798   -0.2408   -0.9221 H.spc      1 <1>        0.000
     11 H           1.2798   -0.2408    0.9221 H.spc      1 <1>        0.000
     12 H           4.9047    1.6269    0.9453 H.spc      1 <1>        0.000
     13 H           4.9047    1.6269   -0.9453 H.spc      1 <1>        0.000
     14 H           3.1640   -1.2676   -0.9452 H.spc      1 <1>        0.000
     15 H           3.1640   -1.2676    0.9452 H.spc      1 <1>        0.000
@<TRIPOS>BOND
     1    1    3 1  
     2    1    2 1  
     3    2    4 1  
     4    3    5 1  
     5    4    6 1  
     6    5    6 1  
     7    1    7 1  
     8    2    8 1  
     9    2    9 1  
    10    3   10 1  
    11    3   11 1  
    12    4   12 1  
    13    4   13 1  
    14    5   14 1  
    15    5   15 1  
# Name:          frag4-346-430/150395 -- energy: -0.697038
# Creation time: Sat Jun  5 12:53:31 2010


@<TRIPOS>MOLECULE
frag4-346-430/150395 -- energy: -0.697038
   15    15     1     1     1
SMALL
USER_CHARGES


@<TRIPOS>ATOM
      1 N1          1.8805    1.4750   -0.0000 N.3        1 <1>        0.000
      2 C14         3.1077    2.2288    0.0000 C.3        1 <1>        0.000
      3 C15         1.7900    0.0377    0.0000 C.3        1 <1>        0.000
      4 C17         4.4221    1.3785   -0.0000 C.3        1 <1>        0.000
      5 C18         3.1572   -0.7248   -0.0000 C.3        1 <1>        0.000
      6 O1          4.3582   -0.0150    0.0000 O.3        1 <1>        0.000
      7 H           1.4780    1.7171    0.9054 H.spc      1 <1>        0.000
      8 H           3.1145    2.8101    0.9220 H.spc      1 <1>        0.000
      9 H           3.1145    2.8101   -0.9220 H.spc      1 <1>        0.000
     10 H           1.2798   -0.2408   -0.9221 H.spc      1 <1>        0.000
     11 H           1.2798   -0.2408    0.9221 H.spc      1 <1>        0.000
     12 H           4.9047    1.6269    0.9453 H.spc      1 <1>        0.000
     13 H           4.9047    1.6269   -0.9453 H.spc      1 <1>        0.000
     14 H           3.1640   -1.2676   -0.9452 H.spc      1 <1>        0.000
     15 H           3.1640   -1.2676    0.9452 H.spc      1 <1>        0.000
@<TRIPOS>BOND
     1    1    3 1  
     2    1    2 1  
     3    2    4 1  
     4    3    5 1  
     5    4    6 1  
     6    5    6 1  
     7    1    7 1  
     8    2    8 1  
     9    2    9 1  
    10    3   10 1  
    11    3   11 1  
    12    4   12 1  
    13    4   13 1  
    14    5   14 1  
    15    5   15 1  
