#      Rotatable Fragment
#      Build by yxyuan
#
# Name:          frag4-424-138/150395
# Creation time: Sat Jun  5 12:53:35 2010


@<TRIPOS>MOLECULE
frag4-424-138/150395
   17    17     1     1     1
SMALL
USER_CHARGES


@<TRIPOS>ATOM
      1 N1          0.1608   -0.9831   -0.0790 N.3        1 <1>        0.000
      2 C1          0.8906   -0.1280   -0.9511 C.3        1 <1>        0.000
      3 C2         -0.3723   -0.5850    1.2066 C.3        1 <1>        0.000
      4 C3          1.2527    1.1644   -0.2369 C.3        1 <1>        0.000
      5 C6         -0.8437    0.8722    1.1418 C.3        1 <1>        0.000
      6 C9          0.0381    1.8454    0.3689 C.3        1 <1>        0.000
      7 H           0.8577   -1.6820    0.1783 H.spc      1 <1>        0.000
      8 H           0.2752    0.1048   -1.8201 H.spc      1 <1>        0.000
      9 H           1.8055   -0.6323   -1.2622 H.spc      1 <1>        0.000
     10 H           0.4048   -0.6799    1.9650 H.spc      1 <1>        0.000
     11 H          -1.2156   -1.2265    1.4623 H.spc      1 <1>        0.000
     12 H           1.6929    1.8434   -0.9672 H.spc      1 <1>        0.000
     13 H           1.9440    0.9232    0.5706 H.spc      1 <1>        0.000
     14 H          -1.8000    0.8546    0.6190 H.spc      1 <1>        0.000
     15 H          -0.8534    1.2298    2.1714 H.spc      1 <1>        0.000
     16 H           0.3891    2.6088    1.0632 H.spc      1 <1>        0.000
     17 H          -0.5540    2.2669   -0.4434 H.spc      1 <1>        0.000
@<TRIPOS>BOND
     1    5    6 1  
     2    1    2 1  
     3    1    3 1  
     4    2    4 1  
     5    3    5 1  
     6    4    6 1  
     7    1    7 1  
     8    2    8 1  
     9    2    9 1  
    10    3   10 1  
    11    3   11 1  
    12    4   12 1  
    13    4   13 1  
    14    5   14 1  
    15    5   15 1  
    16    6   16 1  
    17    6   17 1  
# Name:          frag4-424-138/150395 -- energy: -1.084344
# Creation time: Sat Jun  5 12:53:35 2010


@<TRIPOS>MOLECULE
frag4-424-138/150395 -- energy: -1.084344
   17    17     1     1     1
SMALL
USER_CHARGES


@<TRIPOS>ATOM
      1 N1          0.1608   -0.9831   -0.0790 N.3        1 <1>        0.000
      2 C1          0.8906   -0.1280   -0.9511 C.3        1 <1>        0.000
      3 C2         -0.3723   -0.5850    1.2066 C.3        1 <1>        0.000
      4 C3          1.2527    1.1644   -0.2369 C.3        1 <1>        0.000
      5 C6         -0.8437    0.8722    1.1418 C.3        1 <1>        0.000
      6 C9          0.0381    1.8454    0.3689 C.3        1 <1>        0.000
      7 H           0.8577   -1.6820    0.1783 H.spc      1 <1>        0.000
      8 H           0.2752    0.1048   -1.8201 H.spc      1 <1>        0.000
      9 H           1.8055   -0.6323   -1.2622 H.spc      1 <1>        0.000
     10 H           0.4048   -0.6799    1.9650 H.spc      1 <1>        0.000
     11 H          -1.2156   -1.2265    1.4623 H.spc      1 <1>        0.000
     12 H           1.6929    1.8434   -0.9672 H.spc      1 <1>        0.000
     13 H           1.9440    0.9232    0.5706 H.spc      1 <1>        0.000
     14 H          -1.8000    0.8546    0.6190 H.spc      1 <1>        0.000
     15 H          -0.8534    1.2298    2.1714 H.spc      1 <1>        0.000
     16 H           0.3891    2.6088    1.0632 H.spc      1 <1>        0.000
     17 H          -0.5540    2.2669   -0.4434 H.spc      1 <1>        0.000
@<TRIPOS>BOND
     1    5    6 1  
     2    1    2 1  
     3    1    3 1  
     4    2    4 1  
     5    3    5 1  
     6    4    6 1  
     7    1    7 1  
     8    2    8 1  
     9    2    9 1  
    10    3   10 1  
    11    3   11 1  
    12    4   12 1  
    13    4   13 1  
    14    5   14 1  
    15    5   15 1  
    16    6   16 1  
    17    6   17 1  
