#      Rotatable Fragment
#      Build by yxyuan
#
# Name:          frag4-400-60/48856
# Creation time: Sat Jun  5 12:53:49 2010


@<TRIPOS>MOLECULE
frag4-400-60/48856
   11    11     1     1     1
SMALL
USER_CHARGES


@<TRIPOS>ATOM
      1 C1          1.1456    0.7730    0.0598 C.ar       1 <1>        0.000
      2 C2          1.2393   -0.5793    0.1315 C.ar       1 <1>        0.000
      3 N1          0.0766   -1.3932    0.0763 N.ar       1 <1>        0.000
      4 C3         -1.0954   -0.8358   -0.0698 C.ar       1 <1>        0.000
      5 C4         -1.2136    0.6356   -0.1349 C.ar       1 <1>        0.000
      6 C5         -0.1490    1.4009   -0.0624 C.ar       1 <1>        0.000
      7 H           2.0472    1.3846    0.0945 H.spc      1 <1>        0.000
      8 H           2.2190   -1.0464    0.2327 H.spc      1 <1>        0.000
      9 H          -1.9879   -1.4571   -0.1438 H.spc      1 <1>        0.000
     10 H          -2.1975    1.0918   -0.2445 H.spc      1 <1>        0.000
     11 H          -0.2405    2.4866   -0.0938 H.spc      1 <1>        0.000
@<TRIPOS>BOND
     1    1    2 ar 
     2    1    6 ar 
     3    2    3 ar 
     4    3    4 ar 
     5    4    5 ar 
     6    5    6 ar 
     7    1    7 1  
     8    2    8 1  
     9    4    9 1  
    10    5   10 1  
    11    6   11 1  
# Name:          frag4-400-60/48856 -- energy: 0.228449
# Creation time: Sat Jun  5 12:53:49 2010


@<TRIPOS>MOLECULE
frag4-400-60/48856 -- energy: 0.228449
   11    11     1     1     1
SMALL
USER_CHARGES


@<TRIPOS>ATOM
      1 C1          1.1456    0.7730    0.0598 C.ar       1 <1>        0.000
      2 C2          1.2393   -0.5793    0.1315 C.ar       1 <1>        0.000
      3 N1          0.0766   -1.3932    0.0763 N.ar       1 <1>        0.000
      4 C3         -1.0954   -0.8358   -0.0698 C.ar       1 <1>        0.000
      5 C4         -1.2136    0.6356   -0.1349 C.ar       1 <1>        0.000
      6 C5         -0.1490    1.4009   -0.0624 C.ar       1 <1>        0.000
      7 H           2.0472    1.3846    0.0945 H.spc      1 <1>        0.000
      8 H           2.2190   -1.0464    0.2327 H.spc      1 <1>        0.000
      9 H          -1.9879   -1.4571   -0.1438 H.spc      1 <1>        0.000
     10 H          -2.1975    1.0918   -0.2445 H.spc      1 <1>        0.000
     11 H          -0.2405    2.4866   -0.0938 H.spc      1 <1>        0.000
@<TRIPOS>BOND
     1    1    2 ar 
     2    1    6 ar 
     3    2    3 ar 
     4    3    4 ar 
     5    4    5 ar 
     6    5    6 ar 
     7    1    7 1  
     8    2    8 1  
     9    4    9 1  
    10    5   10 1  
    11    6   11 1  
