#      Rotatable Fragment
#      Build by yxyuan
#
# Name:          frag5-588-39/41815
# Creation time: Sat Jun  5 12:52:57 2010


@<TRIPOS>MOLECULE
frag5-588-39/41815
   21    22     1     1     1
SMALL
USER_CHARGES


@<TRIPOS>ATOM
      1 O1          0.8265   -1.0815    1.2461 O.3        1 <1>        0.000
      2 C1          2.1770   -1.1355    0.7978 C.3        1 <1>        0.000
      3 C2          2.2705   -0.5290   -0.6148 C.3        1 <1>        0.000
      4 C3          1.6215    0.8605   -0.7615 C.3        1 <1>        0.000
      5 C4          0.1701    0.5415   -0.4536 C.ar       1 <1>        0.000
      6 C5         -0.1585   -0.4220    0.5345 C.ar       1 <1>        0.000
      7 C6         -1.5065   -0.6942    0.7834 C.ar       1 <1>        0.000
      8 C7         -2.5115   -0.0410    0.0867 C.ar       1 <1>        0.000
      9 C8         -2.2083    0.9148   -0.8959 C.ar       1 <1>        0.000
     10 C9         -0.8549    1.1836   -1.1453 C.ar       1 <1>        0.000
     11 O2         -3.2212    1.5507   -1.5769 O.3        1 <1>        0.000
     12 H           2.5111   -2.1727    0.7719 H.spc      1 <1>        0.000
     13 H           2.8104   -0.5689    1.4803 H.spc      1 <1>        0.000
     14 H           3.3303   -0.4101   -0.8401 H.spc      1 <1>        0.000
     15 H           1.7360   -1.2018   -1.2855 H.spc      1 <1>        0.000
     16 H           2.0530    1.6182   -0.1074 H.spc      1 <1>        0.000
     17 H           1.7732    1.3151   -1.7405 H.spc      1 <1>        0.000
     18 H          -1.7725   -1.4334    1.5390 H.spc      1 <1>        0.000
     19 H          -3.5538   -0.2733    0.3053 H.spc      1 <1>        0.000
     20 H          -0.5959    1.9199   -1.9061 H.spc      1 <1>        0.000
     21 H          -4.0688    1.2287   -1.2614 H.spc      1 <1>        0.000
@<TRIPOS>BOND
     1    9   10 ar 
     2    7    8 ar 
     3    9   11 1  
     4    4    5 1  
     5    5   10 ar 
     6    5    6 ar 
     7    6    7 ar 
     8    3    4 1  
     9    1    2 1  
    10    1    6 1  
    11    2    3 1  
    12    8    9 ar 
    13    2   12 1  
    14    2   13 1  
    15    3   14 1  
    16    3   15 1  
    17    4   16 1  
    18    4   17 1  
    19    7   18 1  
    20    8   19 1  
    21   10   20 1  
    22   11   21 1  
# Name:          frag5-588-39/41815 -- energy: -0.910397
# Creation time: Sat Jun  5 12:52:57 2010


@<TRIPOS>MOLECULE
frag5-588-39/41815 -- energy: -0.910397
   21    22     1     1     1
SMALL
USER_CHARGES


@<TRIPOS>ATOM
      1 O1          0.8265   -1.0815    1.2461 O.3        1 <1>        0.000
      2 C1          2.1770   -1.1355    0.7978 C.3        1 <1>        0.000
      3 C2          2.2705   -0.5290   -0.6148 C.3        1 <1>        0.000
      4 C3          1.6215    0.8605   -0.7615 C.3        1 <1>        0.000
      5 C4          0.1701    0.5415   -0.4536 C.ar       1 <1>        0.000
      6 C5         -0.1585   -0.4220    0.5345 C.ar       1 <1>        0.000
      7 C6         -1.5065   -0.6942    0.7834 C.ar       1 <1>        0.000
      8 C7         -2.5115   -0.0410    0.0867 C.ar       1 <1>        0.000
      9 C8         -2.2083    0.9148   -0.8959 C.ar       1 <1>        0.000
     10 C9         -0.8549    1.1836   -1.1453 C.ar       1 <1>        0.000
     11 O2         -3.2212    1.5507   -1.5769 O.3        1 <1>        0.000
     12 H           2.5111   -2.1727    0.7719 H.spc      1 <1>        0.000
     13 H           2.8104   -0.5689    1.4803 H.spc      1 <1>        0.000
     14 H           3.3303   -0.4101   -0.8401 H.spc      1 <1>        0.000
     15 H           1.7360   -1.2018   -1.2855 H.spc      1 <1>        0.000
     16 H           2.0530    1.6182   -0.1074 H.spc      1 <1>        0.000
     17 H           1.7732    1.3151   -1.7405 H.spc      1 <1>        0.000
     18 H          -1.7725   -1.4334    1.5390 H.spc      1 <1>        0.000
     19 H          -3.5538   -0.2733    0.3053 H.spc      1 <1>        0.000
     20 H          -0.5959    1.9199   -1.9061 H.spc      1 <1>        0.000
     21 H          -4.0688    1.2287   -1.2614 H.spc      1 <1>        0.000
@<TRIPOS>BOND
     1    9   10 ar 
     2    7    8 ar 
     3    9   11 1  
     4    4    5 1  
     5    5   10 ar 
     6    5    6 ar 
     7    6    7 ar 
     8    3    4 1  
     9    1    2 1  
    10    1    6 1  
    11    2    3 1  
    12    8    9 ar 
    13    2   12 1  
    14    2   13 1  
    15    3   14 1  
    16    3   15 1  
    17    4   16 1  
    18    4   17 1  
    19    7   18 1  
    20    8   19 1  
    21   10   20 1  
    22   11   21 1  
