#      Rotatable Fragment
#      Build by yxyuan
#
# Name:          frag3-201-5/31924
# Creation time: Sat Jun  5 12:52:19 2010


@<TRIPOS>MOLECULE
frag3-201-5/31924
   12    11     1     1     1
SMALL
USER_CHARGES


@<TRIPOS>ATOM
      1 O2          2.8436   -0.3463   -0.5636 O.3        1 <1>        0.000
      2 C6          1.8638    0.1904    0.1661 C.2        1 <1>        0.000
      3 O3          2.0655    0.8026    1.1992 O.2        1 <1>        0.000
      4 C7          0.5369   -0.0159   -0.3941 C.2        1 <1>        0.000
      5 C8         -0.5514    0.1723    0.3693 C.2        1 <1>        0.000
      6 C9         -1.8625   -0.0741   -0.2093 C.2        1 <1>        0.000
      7 O4         -2.0747   -0.1126   -1.4073 O.2        1 <1>        0.000
      8 O5         -2.8048   -0.3108    0.7040 O.3        1 <1>        0.000
      9 H           2.4672   -0.7809   -1.3324 H.spc      1 <1>        0.000
     10 H           0.4264   -0.3234   -1.4340 H.spc      1 <1>        0.000
     11 H          -0.4540    0.5035    1.4032 H.spc      1 <1>        0.000
     12 H          -2.4256   -0.2287    1.5821 H.spc      1 <1>        0.000
@<TRIPOS>BOND
     1    1    2 1  
     2    2    3 2  
     3    2    4 1  
     4    4    5 2  
     5    5    6 1  
     6    6    8 1  
     7    6    7 2  
     8    1    9 1  
     9    4   10 1  
    10    5   11 1  
    11    8   12 1  
# Name:          frag3-201-5/31924
# Creation time: Sat Jun  5 12:52:19 2010


@<TRIPOS>MOLECULE
frag3-201-5/31924
   12    11     1     1     1
SMALL
USER_CHARGES


@<TRIPOS>ATOM
      1 O2          2.3879   -0.4653   -0.5351 O.3        1 <1>        0.000
      2 C6          1.8218    0.2389    0.4393 C.2        1 <1>        0.000
      3 O3          2.4754    0.9694    1.1656 O.2        1 <1>        0.000
      4 C7          0.3752    0.0395    0.5425 C.2        1 <1>        0.000
      5 C8         -0.3717    0.0611   -0.5812 C.2        1 <1>        0.000
      6 C9         -1.8242   -0.1088   -0.4823 C.2        1 <1>        0.000
      7 O4         -2.6048    0.0597   -1.4048 O.2        1 <1>        0.000
      8 O5         -2.2433   -0.4890    0.7205 O.3        1 <1>        0.000
      9 H           1.7152   -0.9751   -0.9924 H.spc      1 <1>        0.000
     10 H          -0.0921   -0.1241    1.5135 H.spc      1 <1>        0.000
     11 H           0.1007    0.2035   -1.5531 H.spc      1 <1>        0.000
     12 H          -1.4900   -0.5683    1.3103 H.spc      1 <1>        0.000
@<TRIPOS>BOND
     1    1    2 1  
     2    2    3 2  
     3    2    4 1  
     4    4    5 2  
     5    5    6 1  
     6    6    8 1  
     7    6    7 2  
     8    1    9 1  
     9    4   10 1  
    10    5   11 1  
    11    8   12 1  
# Name:          frag3-201-5/31924
# Creation time: Sat Jun  5 12:52:19 2010


@<TRIPOS>MOLECULE
frag3-201-5/31924
   12    11     1     1     1
SMALL
USER_CHARGES


@<TRIPOS>ATOM
      1 O2         -2.4117    0.4748    0.5771 O.3        1 <1>        0.000
      2 C6         -1.8124   -0.1237   -0.4530 C.2        1 <1>        0.000
      3 O3         -2.3852   -0.8622   -1.2291 O.2        1 <1>        0.000
      4 C7         -0.4000    0.1547   -0.5556 C.2        1 <1>        0.000
      5 C8          0.3953   -0.1480    0.4885 C.2        1 <1>        0.000
      6 C9          1.8186    0.1490    0.4132 C.2        1 <1>        0.000
      7 O4          2.5536   -0.0138    1.3619 O.2        1 <1>        0.000
      8 O5          2.2581    0.6749   -0.7387 O.3        1 <1>        0.000
      9 H          -1.7709    1.0086    1.0526 H.spc      1 <1>        0.000
     10 H           0.0147    0.6008   -1.4596 H.spc      1 <1>        0.000
     11 H          -0.0231   -0.6113    1.3820 H.spc      1 <1>        0.000
     12 H           1.5320    0.7230   -1.3648 H.spc      1 <1>        0.000
@<TRIPOS>BOND
     1    1    2 1  
     2    2    3 2  
     3    2    4 1  
     4    4    5 2  
     5    5    6 1  
     6    6    8 1  
     7    6    7 2  
     8    1    9 1  
     9    4   10 1  
    10    5   11 1  
    11    8   12 1  
# Name:          frag3-201-5/31924
# Creation time: Sat Jun  5 12:52:19 2010


@<TRIPOS>MOLECULE
frag3-201-5/31924
   12    11     1     1     1
SMALL
USER_CHARGES


@<TRIPOS>ATOM
      1 O2          2.7189    0.6395   -0.7374 O.3        1 <1>        0.000
      2 C6          1.8721    0.1527    0.1744 C.2        1 <1>        0.000
      3 O3          2.1484   -0.0356    1.3489 O.2        1 <1>        0.000
      4 C7          0.5473   -0.1251   -0.3697 C.2        1 <1>        0.000
      5 C8         -0.5397    0.0921    0.3858 C.2        1 <1>        0.000
      6 C9         -1.8605   -0.1460   -0.1765 C.2        1 <1>        0.000
      7 O4         -2.0657   -0.9142   -1.1025 O.2        1 <1>        0.000
      8 O5         -2.8046    0.6421    0.3413 O.3        1 <1>        0.000
      9 H           2.2747    0.6972   -1.5865 H.spc      1 <1>        0.000
     10 H           0.4412   -0.5072   -1.3850 H.spc      1 <1>        0.000
     11 H          -0.4345    0.4439    1.4121 H.spc      1 <1>        0.000
     12 H          -2.4295    1.1617    1.0561 H.spc      1 <1>        0.000
@<TRIPOS>BOND
     1    1    2 1  
     2    2    3 2  
     3    2    4 1  
     4    4    5 2  
     5    5    6 1  
     6    6    8 1  
     7    6    7 2  
     8    1    9 1  
     9    4   10 1  
    10    5   11 1  
    11    8   12 1  
# Name:          frag3-201-5/31924 -- energy: 0.072330
# Creation time: Sat Jun  5 12:52:19 2010


@<TRIPOS>MOLECULE
frag3-201-5/31924 -- energy: 0.072330
   12    11     1     1     1
SMALL
USER_CHARGES


@<TRIPOS>ATOM
      1 O2          2.8436   -0.3463   -0.5636 O.3        1 <1>        0.000
      2 C6          1.8638    0.1904    0.1661 C.2        1 <1>        0.000
      3 O3          2.0655    0.8026    1.1992 O.2        1 <1>        0.000
      4 C7          0.5369   -0.0159   -0.3941 C.2        1 <1>        0.000
      5 C8         -0.5514    0.1723    0.3693 C.2        1 <1>        0.000
      6 C9         -1.8625   -0.0741   -0.2093 C.2        1 <1>        0.000
      7 O4         -2.0747   -0.1126   -1.4073 O.2        1 <1>        0.000
      8 O5         -2.8048   -0.3108    0.7040 O.3        1 <1>        0.000
      9 H           2.4672   -0.7809   -1.3324 H.spc      1 <1>        0.000
     10 H           0.4264   -0.3234   -1.4340 H.spc      1 <1>        0.000
     11 H          -0.4540    0.5035    1.4032 H.spc      1 <1>        0.000
     12 H          -2.4256   -0.2287    1.5821 H.spc      1 <1>        0.000
@<TRIPOS>BOND
     1    1    2 1  
     2    2    3 2  
     3    2    4 1  
     4    4    5 2  
     5    5    6 1  
     6    6    8 1  
     7    6    7 2  
     8    1    9 1  
     9    4   10 1  
    10    5   11 1  
    11    8   12 1  
# Name:          frag3-201-5/31924 -- energy: -0.065974
# Creation time: Sat Jun  5 12:52:19 2010


@<TRIPOS>MOLECULE
frag3-201-5/31924 -- energy: -0.065974
   12    11     1     1     1
SMALL
USER_CHARGES


@<TRIPOS>ATOM
      1 O2          2.7189    0.6395   -0.7374 O.3        1 <1>        0.000
      2 C6          1.8721    0.1527    0.1744 C.2        1 <1>        0.000
      3 O3          2.1484   -0.0356    1.3489 O.2        1 <1>        0.000
      4 C7          0.5473   -0.1251   -0.3697 C.2        1 <1>        0.000
      5 C8         -0.5397    0.0921    0.3858 C.2        1 <1>        0.000
      6 C9         -1.8605   -0.1460   -0.1765 C.2        1 <1>        0.000
      7 O4         -2.0657   -0.9142   -1.1025 O.2        1 <1>        0.000
      8 O5         -2.8046    0.6421    0.3413 O.3        1 <1>        0.000
      9 H           2.2747    0.6972   -1.5865 H.spc      1 <1>        0.000
     10 H           0.4412   -0.5072   -1.3850 H.spc      1 <1>        0.000
     11 H          -0.4345    0.4439    1.4121 H.spc      1 <1>        0.000
     12 H          -2.4295    1.1617    1.0561 H.spc      1 <1>        0.000
@<TRIPOS>BOND
     1    1    2 1  
     2    2    3 2  
     3    2    4 1  
     4    4    5 2  
     5    5    6 1  
     6    6    8 1  
     7    6    7 2  
     8    1    9 1  
     9    4   10 1  
    10    5   11 1  
    11    8   12 1  
