#      Rotatable Fragment
#      Build by yxyuan
#
# Name:          frag3-227-6/96164
# Creation time: Sat Jun  5 12:53:14 2010


@<TRIPOS>MOLECULE
frag3-227-6/96164
   10     9     1     1     1
SMALL
USER_CHARGES


@<TRIPOS>ATOM
      1 C47        -1.0205    2.4856   -0.2337 C.2        1 <1>        0.000
      2 C52         0.0102    3.2114    0.1950 C.2        1 <1>        0.000
      3 C57         1.2943    2.8252    0.7141 C.2        1 <1>        0.000
      4 C61         2.1164    3.8486    0.4765 C.2        1 <1>        0.000
      5 Cl1         1.6974    1.3690    1.4762 Cl         1 <1>        0.000
      6 H          -0.9627    1.3972   -0.2228 H.spc      1 <1>        0.000
      7 H          -1.9221    2.9799   -0.5956 H.spc      1 <1>        0.000
      8 H          -0.1473    4.2887    0.1433 H.spc      1 <1>        0.000
      9 H           3.1607    3.7915    0.7837 H.spc      1 <1>        0.000
     10 H           1.7438    4.7419   -0.0248 H.spc      1 <1>        0.000
@<TRIPOS>BOND
     1    1    2 2  
     2    2    3 1  
     3    3    4 2  
     4    3    5 1  
     5    1    6 1  
     6    1    7 1  
     7    2    8 1  
     8    4    9 1  
     9    4   10 1  
# Name:          frag3-227-6/96164 -- energy: 0.083846
# Creation time: Sat Jun  5 12:53:14 2010


@<TRIPOS>MOLECULE
frag3-227-6/96164 -- energy: 0.083846
   10     9     1     1     1
SMALL
USER_CHARGES


@<TRIPOS>ATOM
      1 C47        -1.0205    2.4856   -0.2337 C.2        1 <1>        0.000
      2 C52         0.0102    3.2114    0.1950 C.2        1 <1>        0.000
      3 C57         1.2943    2.8252    0.7141 C.2        1 <1>        0.000
      4 C61         2.1164    3.8486    0.4765 C.2        1 <1>        0.000
      5 Cl1         1.6974    1.3690    1.4762 Cl         1 <1>        0.000
      6 H          -0.9627    1.3972   -0.2228 H.spc      1 <1>        0.000
      7 H          -1.9221    2.9799   -0.5956 H.spc      1 <1>        0.000
      8 H          -0.1473    4.2887    0.1433 H.spc      1 <1>        0.000
      9 H           3.1607    3.7915    0.7837 H.spc      1 <1>        0.000
     10 H           1.7438    4.7419   -0.0248 H.spc      1 <1>        0.000
@<TRIPOS>BOND
     1    1    2 2  
     2    2    3 1  
     3    3    4 2  
     4    3    5 1  
     5    1    6 1  
     6    1    7 1  
     7    2    8 1  
     8    4    9 1  
     9    4   10 1  
