#      Rotatable Fragment
#      Build by yxyuan
#
# Name:          frag4-484-88/150395
# Creation time: Sat Jun  5 12:53:38 2010


@<TRIPOS>MOLECULE
frag4-484-88/150395
   27    29     1     1     1
SMALL
USER_CHARGES


@<TRIPOS>ATOM
      1 C1          0.0255    0.1391   -0.0000 C.ar       1 <1>        0.000
      2 C2          0.0575   -1.2535    0.0000 C.ar       1 <1>        0.000
      3 C3          1.2388    0.8346   -0.0000 C.ar       1 <1>        0.000
      4 C4         -1.2050    0.8091    0.0000 C.ar       1 <1>        0.000
      5 N1          1.2375   -1.9056    0.0000 N.ar       1 <1>        0.000
      6 C5         -1.1323   -1.9881   -0.0000 C.ar       1 <1>        0.000
      7 C6          2.4546    0.1374    0.0000 C.ar       1 <1>        0.000
      8 C7         -2.3972    0.0763   -0.0000 C.ar       1 <1>        0.000
      9 C8          2.4255   -1.2605    0.0000 C.ar       1 <1>        0.000
     10 C9         -2.3619   -1.3211    0.0000 C.ar       1 <1>        0.000
     11 C10         3.7494    0.9465    0.0000 C.3        1 <1>        0.000
     12 C12         3.6812   -2.1214    0.0000 C.3        1 <1>        0.000
     13 C13         5.0960    0.1624   -0.0000 C.3        1 <1>        0.000
     14 C16         5.0614   -1.3991   -0.0000 C.3        1 <1>        0.000
     15 H           1.2389    1.9246   -0.0000 H.spc      1 <1>        0.000
     16 H          -1.2336    1.8987    0.0000 H.spc      1 <1>        0.000
     17 H          -1.1017   -3.0777   -0.0000 H.spc      1 <1>        0.000
     18 H          -3.3552    0.5962   -0.0000 H.spc      1 <1>        0.000
     19 H          -3.2914   -1.8904    0.0000 H.spc      1 <1>        0.000
     20 H           3.7406    1.5096   -0.9333 H.spc      1 <1>        0.000
     21 H           3.7406    1.5096    0.9333 H.spc      1 <1>        0.000
     22 H           3.6478   -2.6823    0.9340 H.spc      1 <1>        0.000
     23 H           3.6478   -2.6823   -0.9340 H.spc      1 <1>        0.000
     24 H           5.5790    0.4330   -0.9389 H.spc      1 <1>        0.000
     25 H           5.5790    0.4330    0.9389 H.spc      1 <1>        0.000
     26 H           5.5322   -1.6913    0.9387 H.spc      1 <1>        0.000
     27 H           5.5322   -1.6913   -0.9387 H.spc      1 <1>        0.000
@<TRIPOS>BOND
     1    5    9 ar 
     2   13   14 1  
     3    6   10 ar 
     4    7    9 ar 
     5    8   10 ar 
     6    2    5 ar 
     7   12   14 1  
     8   11   13 1  
     9    1    4 ar 
    10    2    6 ar 
    11    7   11 1  
    12    1    2 ar 
    13    3    7 ar 
    14    9   12 1  
    15    1    3 ar 
    16    4    8 ar 
    17    3   15 1  
    18    4   16 1  
    19    6   17 1  
    20    8   18 1  
    21   10   19 1  
    22   11   20 1  
    23   11   21 1  
    24   12   22 1  
    25   12   23 1  
    26   13   24 1  
    27   13   25 1  
    28   14   26 1  
    29   14   27 1  
# Name:          frag4-484-88/150395 -- energy: -1.700366
# Creation time: Sat Jun  5 12:53:38 2010


@<TRIPOS>MOLECULE
frag4-484-88/150395 -- energy: -1.700366
   27    29     1     1     1
SMALL
USER_CHARGES


@<TRIPOS>ATOM
      1 C1          0.0255    0.1391   -0.0000 C.ar       1 <1>        0.000
      2 C2          0.0575   -1.2535    0.0000 C.ar       1 <1>        0.000
      3 C3          1.2388    0.8346   -0.0000 C.ar       1 <1>        0.000
      4 C4         -1.2050    0.8091    0.0000 C.ar       1 <1>        0.000
      5 N1          1.2375   -1.9056    0.0000 N.ar       1 <1>        0.000
      6 C5         -1.1323   -1.9881   -0.0000 C.ar       1 <1>        0.000
      7 C6          2.4546    0.1374    0.0000 C.ar       1 <1>        0.000
      8 C7         -2.3972    0.0763   -0.0000 C.ar       1 <1>        0.000
      9 C8          2.4255   -1.2605    0.0000 C.ar       1 <1>        0.000
     10 C9         -2.3619   -1.3211    0.0000 C.ar       1 <1>        0.000
     11 C10         3.7494    0.9465    0.0000 C.3        1 <1>        0.000
     12 C12         3.6812   -2.1214    0.0000 C.3        1 <1>        0.000
     13 C13         5.0960    0.1624   -0.0000 C.3        1 <1>        0.000
     14 C16         5.0614   -1.3991   -0.0000 C.3        1 <1>        0.000
     15 H           1.2389    1.9246   -0.0000 H.spc      1 <1>        0.000
     16 H          -1.2336    1.8987    0.0000 H.spc      1 <1>        0.000
     17 H          -1.1017   -3.0777   -0.0000 H.spc      1 <1>        0.000
     18 H          -3.3552    0.5962   -0.0000 H.spc      1 <1>        0.000
     19 H          -3.2914   -1.8904    0.0000 H.spc      1 <1>        0.000
     20 H           3.7406    1.5096   -0.9333 H.spc      1 <1>        0.000
     21 H           3.7406    1.5096    0.9333 H.spc      1 <1>        0.000
     22 H           3.6478   -2.6823    0.9340 H.spc      1 <1>        0.000
     23 H           3.6478   -2.6823   -0.9340 H.spc      1 <1>        0.000
     24 H           5.5790    0.4330   -0.9389 H.spc      1 <1>        0.000
     25 H           5.5790    0.4330    0.9389 H.spc      1 <1>        0.000
     26 H           5.5322   -1.6913    0.9387 H.spc      1 <1>        0.000
     27 H           5.5322   -1.6913   -0.9387 H.spc      1 <1>        0.000
@<TRIPOS>BOND
     1    5    9 ar 
     2   13   14 1  
     3    6   10 ar 
     4    7    9 ar 
     5    8   10 ar 
     6    2    5 ar 
     7   12   14 1  
     8   11   13 1  
     9    1    4 ar 
    10    2    6 ar 
    11    7   11 1  
    12    1    2 ar 
    13    3    7 ar 
    14    9   12 1  
    15    1    3 ar 
    16    4    8 ar 
    17    3   15 1  
    18    4   16 1  
    19    6   17 1  
    20    8   18 1  
    21   10   19 1  
    22   11   20 1  
    23   11   21 1  
    24   12   22 1  
    25   12   23 1  
    26   13   24 1  
    27   13   25 1  
    28   14   26 1  
    29   14   27 1  
