#      Rotatable Fragment
#      Build by yxyuan
#
# Name:          frag5-586-40/41815
# Creation time: Sat Jun  5 12:52:56 2010


@<TRIPOS>MOLECULE
frag5-586-40/41815
   44    47     1     1     1
SMALL
USER_CHARGES


@<TRIPOS>ATOM
      1 C1         -3.8891    0.7953    1.0883 C.3        1 <1>        0.000
      2 C2         -2.5971   -0.0324    1.0187 C.3        1 <1>        0.000
      3 C3         -1.5188    1.0622    0.9707 C.3        1 <1>        0.000
      4 C4         -0.1071    0.4439    1.0691 C.3        1 <1>        0.000
      5 C5          0.1225   -0.5700   -0.0939 C.3        1 <1>        0.000
      6 C6          1.5440   -1.2039    0.0102 C.3        1 <1>        0.000
      7 C7          2.6348   -0.0889    0.0413 C.3        1 <1>        0.000
      8 C15        -1.0264   -1.6193   -0.1415 C.3        1 <1>        0.000
      9 C8          2.3803    0.9136    1.1871 C.3        1 <1>        0.000
     10 C9          0.9817    1.5378    1.0792 C.3        1 <1>        0.000
     11 C10         4.0561   -0.6817    0.1561 C.3        1 <1>        0.000
     12 C11         4.2712   -1.6857   -0.9383 C.2        1 <1>        0.000
     13 C12         3.1391   -1.8541   -1.9119 C.3        1 <1>        0.000
     14 C13         1.8570   -2.2061   -1.1341 C.3        1 <1>        0.000
     15 O2          5.3058   -2.3343   -1.0328 O.2        1 <1>        0.000
     16 C16        -2.4334   -0.9856   -0.1746 C.3        1 <1>        0.000
     17 C17        -1.9768    2.0054    2.0988 C.3        1 <1>        0.000
     18 C18        -3.5181    2.0371    1.9338 C.3        1 <1>        0.000
     19 H          -4.2477    1.0719    0.0968 H.spc      1 <1>        0.000
     20 H          -4.7087    0.2314    1.5336 H.spc      1 <1>        0.000
     21 H          -2.5606   -0.7264    1.8585 H.spc      1 <1>        0.000
     22 H          -1.4237    1.6238    0.0414 H.spc      1 <1>        0.000
     23 H          -0.0348   -0.0961    2.0132 H.spc      1 <1>        0.000
     24 H           0.0907   -0.0445   -1.0483 H.spc      1 <1>        0.000
     25 H           1.5565   -1.7695    0.9419 H.spc      1 <1>        0.000
     26 H           2.5678    0.4453   -0.9064 H.spc      1 <1>        0.000
     27 H          -0.9050   -2.1985   -1.0569 H.spc      1 <1>        0.000
     28 H          -0.9586   -2.2224    0.7639 H.spc      1 <1>        0.000
     29 H           2.4516    0.3823    2.1362 H.spc      1 <1>        0.000
     30 H           3.1222    1.7097    1.1237 H.spc      1 <1>        0.000
     31 H           0.9201    2.1038    0.1497 H.spc      1 <1>        0.000
     32 H           0.8194    2.1875    1.9392 H.spc      1 <1>        0.000
     33 H           4.7911    0.1180    0.0643 H.spc      1 <1>        0.000
     34 H           4.1681   -1.1705    1.1239 H.spc      1 <1>        0.000
     35 H           2.9901   -0.9275   -2.4662 H.spc      1 <1>        0.000
     36 H           3.3742   -2.6538   -2.6143 H.spc      1 <1>        0.000
     37 H           2.0019   -3.1881   -0.6838 H.spc      1 <1>        0.000
     38 H           1.0245   -2.1766   -1.8371 H.spc      1 <1>        0.000
     39 H          -2.5580   -0.4284   -1.1031 H.spc      1 <1>        0.000
     40 H          -3.1862   -1.7717   -0.1163 H.spc      1 <1>        0.000
     41 H          -1.6675    1.6606    3.0855 H.spc      1 <1>        0.000
     42 H          -1.5267    2.9955    2.0265 H.spc      1 <1>        0.000
     43 H          -4.0170    2.0154    2.9027 H.spc      1 <1>        0.000
     44 H          -3.8415    2.9558    1.4445 H.spc      1 <1>        0.000
@<TRIPOS>BOND
     1    2   16 1  
     2    1   18 1  
     3    1    2 1  
     4    2    3 1  
     5   17   18 1  
     6    8   16 1  
     7   13   14 1  
     8   12   15 2  
     9   12   13 1  
    10   11   12 1  
    11    9   10 1  
    12    7   11 1  
    13    7    9 1  
    14    6   14 1  
    15    6    7 1  
    16    5    8 1  
    17    5    6 1  
    18    4   10 1  
    19    4    5 1  
    20    3   17 1  
    21    3    4 1  
    22    1   19 1  
    23    1   20 1  
    24    2   21 1  
    25    3   22 1  
    26    4   23 1  
    27    5   24 1  
    28    6   25 1  
    29    7   26 1  
    30    8   27 1  
    31    8   28 1  
    32    9   29 1  
    33    9   30 1  
    34   10   31 1  
    35   10   32 1  
    36   11   33 1  
    37   11   34 1  
    38   13   35 1  
    39   13   36 1  
    40   14   37 1  
    41   14   38 1  
    42   16   39 1  
    43   16   40 1  
    44   17   41 1  
    45   17   42 1  
    46   18   43 1  
    47   18   44 1  
# Name:          frag5-586-40/41815 -- energy: -8.090665
# Creation time: Sat Jun  5 12:52:56 2010


@<TRIPOS>MOLECULE
frag5-586-40/41815 -- energy: -8.090665
   44    47     1     1     1
SMALL
USER_CHARGES


@<TRIPOS>ATOM
      1 C1         -3.8891    0.7953    1.0883 C.3        1 <1>        0.000
      2 C2         -2.5971   -0.0324    1.0187 C.3        1 <1>        0.000
      3 C3         -1.5188    1.0622    0.9707 C.3        1 <1>        0.000
      4 C4         -0.1071    0.4439    1.0691 C.3        1 <1>        0.000
      5 C5          0.1225   -0.5700   -0.0939 C.3        1 <1>        0.000
      6 C6          1.5440   -1.2039    0.0102 C.3        1 <1>        0.000
      7 C7          2.6348   -0.0889    0.0413 C.3        1 <1>        0.000
      8 C15        -1.0264   -1.6193   -0.1415 C.3        1 <1>        0.000
      9 C8          2.3803    0.9136    1.1871 C.3        1 <1>        0.000
     10 C9          0.9817    1.5378    1.0792 C.3        1 <1>        0.000
     11 C10         4.0561   -0.6817    0.1561 C.3        1 <1>        0.000
     12 C11         4.2712   -1.6857   -0.9383 C.2        1 <1>        0.000
     13 C12         3.1391   -1.8541   -1.9119 C.3        1 <1>        0.000
     14 C13         1.8570   -2.2061   -1.1341 C.3        1 <1>        0.000
     15 O2          5.3058   -2.3343   -1.0328 O.2        1 <1>        0.000
     16 C16        -2.4334   -0.9856   -0.1746 C.3        1 <1>        0.000
     17 C17        -1.9768    2.0054    2.0988 C.3        1 <1>        0.000
     18 C18        -3.5181    2.0371    1.9338 C.3        1 <1>        0.000
     19 H          -4.2477    1.0719    0.0968 H.spc      1 <1>        0.000
     20 H          -4.7087    0.2314    1.5336 H.spc      1 <1>        0.000
     21 H          -2.5606   -0.7264    1.8585 H.spc      1 <1>        0.000
     22 H          -1.4237    1.6238    0.0414 H.spc      1 <1>        0.000
     23 H          -0.0348   -0.0961    2.0132 H.spc      1 <1>        0.000
     24 H           0.0907   -0.0445   -1.0483 H.spc      1 <1>        0.000
     25 H           1.5565   -1.7695    0.9419 H.spc      1 <1>        0.000
     26 H           2.5678    0.4453   -0.9064 H.spc      1 <1>        0.000
     27 H          -0.9050   -2.1985   -1.0569 H.spc      1 <1>        0.000
     28 H          -0.9586   -2.2224    0.7639 H.spc      1 <1>        0.000
     29 H           2.4516    0.3823    2.1362 H.spc      1 <1>        0.000
     30 H           3.1222    1.7097    1.1237 H.spc      1 <1>        0.000
     31 H           0.9201    2.1038    0.1497 H.spc      1 <1>        0.000
     32 H           0.8194    2.1875    1.9392 H.spc      1 <1>        0.000
     33 H           4.7911    0.1180    0.0643 H.spc      1 <1>        0.000
     34 H           4.1681   -1.1705    1.1239 H.spc      1 <1>        0.000
     35 H           2.9901   -0.9275   -2.4662 H.spc      1 <1>        0.000
     36 H           3.3742   -2.6538   -2.6143 H.spc      1 <1>        0.000
     37 H           2.0019   -3.1881   -0.6838 H.spc      1 <1>        0.000
     38 H           1.0245   -2.1766   -1.8371 H.spc      1 <1>        0.000
     39 H          -2.5580   -0.4284   -1.1031 H.spc      1 <1>        0.000
     40 H          -3.1862   -1.7717   -0.1163 H.spc      1 <1>        0.000
     41 H          -1.6675    1.6606    3.0855 H.spc      1 <1>        0.000
     42 H          -1.5267    2.9955    2.0265 H.spc      1 <1>        0.000
     43 H          -4.0170    2.0154    2.9027 H.spc      1 <1>        0.000
     44 H          -3.8415    2.9558    1.4445 H.spc      1 <1>        0.000
@<TRIPOS>BOND
     1    2   16 1  
     2    1   18 1  
     3    1    2 1  
     4    2    3 1  
     5   17   18 1  
     6    8   16 1  
     7   13   14 1  
     8   12   15 2  
     9   12   13 1  
    10   11   12 1  
    11    9   10 1  
    12    7   11 1  
    13    7    9 1  
    14    6   14 1  
    15    6    7 1  
    16    5    8 1  
    17    5    6 1  
    18    4   10 1  
    19    4    5 1  
    20    3   17 1  
    21    3    4 1  
    22    1   19 1  
    23    1   20 1  
    24    2   21 1  
    25    3   22 1  
    26    4   23 1  
    27    5   24 1  
    28    6   25 1  
    29    7   26 1  
    30    8   27 1  
    31    8   28 1  
    32    9   29 1  
    33    9   30 1  
    34   10   31 1  
    35   10   32 1  
    36   11   33 1  
    37   11   34 1  
    38   13   35 1  
    39   13   36 1  
    40   14   37 1  
    41   14   38 1  
    42   16   39 1  
    43   16   40 1  
    44   17   41 1  
    45   17   42 1  
    46   18   43 1  
    47   18   44 1  
