#      Rotatable Fragment
#      Build by yxyuan
#
# Name:          frag5-644-27/41815
# Creation time: Sat Jun  5 12:53:00 2010


@<TRIPOS>MOLECULE
frag5-644-27/41815
   43    47     1     1     1
SMALL
USER_CHARGES


@<TRIPOS>ATOM
      1 C1          1.1903    0.8795    1.7546 C.3        1 <1>        0.000
      2 C2          0.0996    1.2174    2.8211 C.3        1 <1>        0.000
      3 C3         -1.2966    1.2083    2.1622 C.3        1 <1>        0.000
      4 C4         -1.5871   -0.1688    1.5352 C.3        1 <1>        0.000
      5 C5         -3.0654   -0.0572    1.1312 C.3        1 <1>        0.000
      6 O1         -3.2461    0.6372   -0.1050 O.3        1 <1>        0.000
      7 C6         -4.4068    1.4410    0.0481 C.3        1 <1>        0.000
      8 O2         -4.1681    1.9872    1.3382 O.3        1 <1>        0.000
      9 C7         -3.6888    0.9239    2.1661 C.3        1 <1>        0.000
     10 C8         -2.5303    1.4000    3.0662 C.3        1 <1>        0.000
     11 C13        -0.5703   -0.4666    0.4202 C.3        1 <1>        0.000
     12 C14         0.8549   -0.4481    1.0146 C.3        1 <1>        0.000
     13 C16         0.3927    2.5685    3.5136 C.3        1 <1>        0.000
     14 C17         1.7942    2.5731    4.1493 C.3        1 <1>        0.000
     15 C18         2.7970    2.2176    3.0858 C.2        1 <1>        0.000
     16 C19         3.7896    3.0549    2.7386 C.2        1 <1>        0.000
     17 C20         4.7530    2.6848    1.6948 C.2        1 <1>        0.000
     18 C21         4.6912    1.3397    1.1094 C.2        1 <1>        0.000
     19 C22         3.7053    0.5006    1.4555 C.2        1 <1>        0.000
     20 C23         2.6017    0.8740    2.4151 C.3        1 <1>        0.000
     21 O6          5.6031    3.4809    1.3257 O.2        1 <1>        0.000
     22 H           1.1998    1.6558    0.9895 H.spc      1 <1>        0.000
     23 H           0.1192    0.4526    3.5975 H.spc      1 <1>        0.000
     24 H          -1.2024    2.0587    1.4869 H.spc      1 <1>        0.000
     25 H          -1.4611   -1.0343    2.1857 H.spc      1 <1>        0.000
     26 H          -3.4842   -1.0617    1.0705 H.spc      1 <1>        0.000
     27 H          -4.5422    2.1862   -0.7358 H.spc      1 <1>        0.000
     28 H          -5.3454    0.8938   -0.0400 H.spc      1 <1>        0.000
     29 H          -4.4754    0.5177    2.8021 H.spc      1 <1>        0.000
     30 H          -2.4625    0.8437    4.0011 H.spc      1 <1>        0.000
     31 H          -2.6518    2.4283    3.4067 H.spc      1 <1>        0.000
     32 H          -0.7749   -1.4474   -0.0091 H.spc      1 <1>        0.000
     33 H          -0.6511    0.2901   -0.3602 H.spc      1 <1>        0.000
     34 H           0.9215   -1.2582    1.7409 H.spc      1 <1>        0.000
     35 H           1.5593   -0.5547    0.1897 H.spc      1 <1>        0.000
     36 H          -0.3468    2.7255    4.2988 H.spc      1 <1>        0.000
     37 H           0.3462    3.3606    2.7663 H.spc      1 <1>        0.000
     38 H           2.0161    3.5591    4.5575 H.spc      1 <1>        0.000
     39 H           1.8383    1.8479    4.9619 H.spc      1 <1>        0.000
     40 H           3.8801    4.0196    3.2378 H.spc      1 <1>        0.000
     41 H           5.4484    1.0231    0.3921 H.spc      1 <1>        0.000
     42 H           3.7001   -0.5000    1.0231 H.spc      1 <1>        0.000
     43 H           2.6574    0.0881    3.1684 H.spc      1 <1>        0.000
@<TRIPOS>BOND
     1    3    4 1  
     2    2    3 1  
     3    1   20 1  
     4    1   12 1  
     5    2   13 1  
     6    1    2 1  
     7   19   20 1  
     8   18   19 2  
     9   17   18 1  
    10   16   17 1  
    11   17   21 2  
    12   15   20 1  
    13   15   16 2  
    14   14   15 1  
    15   13   14 1  
    16   11   12 1  
    17    9   10 1  
    18    8    9 1  
    19    7    8 1  
    20    6    7 1  
    21    5    9 1  
    22    5    6 1  
    23    4   11 1  
    24    4    5 1  
    25    3   10 1  
    26    1   22 1  
    27    2   23 1  
    28    3   24 1  
    29    4   25 1  
    30    5   26 1  
    31    7   27 1  
    32    7   28 1  
    33    9   29 1  
    34   10   30 1  
    35   10   31 1  
    36   11   32 1  
    37   11   33 1  
    38   12   34 1  
    39   12   35 1  
    40   13   36 1  
    41   13   37 1  
    42   14   38 1  
    43   14   39 1  
    44   16   40 1  
    45   18   41 1  
    46   19   42 1  
    47   20   43 1  
# Name:          frag5-644-27/41815 -- energy: -8.418839
# Creation time: Sat Jun  5 12:53:00 2010


@<TRIPOS>MOLECULE
frag5-644-27/41815 -- energy: -8.418839
   43    47     1     1     1
SMALL
USER_CHARGES


@<TRIPOS>ATOM
      1 C1          1.1903    0.8795    1.7546 C.3        1 <1>        0.000
      2 C2          0.0996    1.2174    2.8211 C.3        1 <1>        0.000
      3 C3         -1.2966    1.2083    2.1622 C.3        1 <1>        0.000
      4 C4         -1.5871   -0.1688    1.5352 C.3        1 <1>        0.000
      5 C5         -3.0654   -0.0572    1.1312 C.3        1 <1>        0.000
      6 O1         -3.2461    0.6372   -0.1050 O.3        1 <1>        0.000
      7 C6         -4.4068    1.4410    0.0481 C.3        1 <1>        0.000
      8 O2         -4.1681    1.9872    1.3382 O.3        1 <1>        0.000
      9 C7         -3.6888    0.9239    2.1661 C.3        1 <1>        0.000
     10 C8         -2.5303    1.4000    3.0662 C.3        1 <1>        0.000
     11 C13        -0.5703   -0.4666    0.4202 C.3        1 <1>        0.000
     12 C14         0.8549   -0.4481    1.0146 C.3        1 <1>        0.000
     13 C16         0.3927    2.5685    3.5136 C.3        1 <1>        0.000
     14 C17         1.7942    2.5731    4.1493 C.3        1 <1>        0.000
     15 C18         2.7970    2.2176    3.0858 C.2        1 <1>        0.000
     16 C19         3.7896    3.0549    2.7386 C.2        1 <1>        0.000
     17 C20         4.7530    2.6848    1.6948 C.2        1 <1>        0.000
     18 C21         4.6912    1.3397    1.1094 C.2        1 <1>        0.000
     19 C22         3.7053    0.5006    1.4555 C.2        1 <1>        0.000
     20 C23         2.6017    0.8740    2.4151 C.3        1 <1>        0.000
     21 O6          5.6031    3.4809    1.3257 O.2        1 <1>        0.000
     22 H           1.1998    1.6558    0.9895 H.spc      1 <1>        0.000
     23 H           0.1192    0.4526    3.5975 H.spc      1 <1>        0.000
     24 H          -1.2024    2.0587    1.4869 H.spc      1 <1>        0.000
     25 H          -1.4611   -1.0343    2.1857 H.spc      1 <1>        0.000
     26 H          -3.4842   -1.0617    1.0705 H.spc      1 <1>        0.000
     27 H          -4.5422    2.1862   -0.7358 H.spc      1 <1>        0.000
     28 H          -5.3454    0.8938   -0.0400 H.spc      1 <1>        0.000
     29 H          -4.4754    0.5177    2.8021 H.spc      1 <1>        0.000
     30 H          -2.4625    0.8437    4.0011 H.spc      1 <1>        0.000
     31 H          -2.6518    2.4283    3.4067 H.spc      1 <1>        0.000
     32 H          -0.7749   -1.4474   -0.0091 H.spc      1 <1>        0.000
     33 H          -0.6511    0.2901   -0.3602 H.spc      1 <1>        0.000
     34 H           0.9215   -1.2582    1.7409 H.spc      1 <1>        0.000
     35 H           1.5593   -0.5547    0.1897 H.spc      1 <1>        0.000
     36 H          -0.3468    2.7255    4.2988 H.spc      1 <1>        0.000
     37 H           0.3462    3.3606    2.7663 H.spc      1 <1>        0.000
     38 H           2.0161    3.5591    4.5575 H.spc      1 <1>        0.000
     39 H           1.8383    1.8479    4.9619 H.spc      1 <1>        0.000
     40 H           3.8801    4.0196    3.2378 H.spc      1 <1>        0.000
     41 H           5.4484    1.0231    0.3921 H.spc      1 <1>        0.000
     42 H           3.7001   -0.5000    1.0231 H.spc      1 <1>        0.000
     43 H           2.6574    0.0881    3.1684 H.spc      1 <1>        0.000
@<TRIPOS>BOND
     1    3    4 1  
     2    2    3 1  
     3    1   20 1  
     4    1   12 1  
     5    2   13 1  
     6    1    2 1  
     7   19   20 1  
     8   18   19 2  
     9   17   18 1  
    10   16   17 1  
    11   17   21 2  
    12   15   20 1  
    13   15   16 2  
    14   14   15 1  
    15   13   14 1  
    16   11   12 1  
    17    9   10 1  
    18    8    9 1  
    19    7    8 1  
    20    6    7 1  
    21    5    9 1  
    22    5    6 1  
    23    4   11 1  
    24    4    5 1  
    25    3   10 1  
    26    1   22 1  
    27    2   23 1  
    28    3   24 1  
    29    4   25 1  
    30    5   26 1  
    31    7   27 1  
    32    7   28 1  
    33    9   29 1  
    34   10   30 1  
    35   10   31 1  
    36   11   32 1  
    37   11   33 1  
    38   12   34 1  
    39   12   35 1  
    40   13   36 1  
    41   13   37 1  
    42   14   38 1  
    43   14   39 1  
    44   16   40 1  
    45   18   41 1  
    46   19   42 1  
    47   20   43 1  
