#      Rotatable Fragment
#      Build by yxyuan
#
# Name:          frag4-399-60/48856
# Creation time: Sat Jun  5 12:53:49 2010


@<TRIPOS>MOLECULE
frag4-399-60/48856
   14    14     1     1     1
SMALL
USER_CHARGES


@<TRIPOS>ATOM
      1 C1         -1.4108   -0.1484   -0.0079 C.2        1 <1>        0.000
      2 C2         -1.1337    0.4980    1.1312 C.2        1 <1>        0.000
      3 C3          0.2145    1.0126    1.4273 C.2        1 <1>        0.000
      4 C4          1.2148    0.8477    0.5565 C.2        1 <1>        0.000
      5 C5          0.9827    0.1465   -0.7162 C.3        1 <1>        0.000
      6 C6         -0.3736   -0.4015   -1.0745 C.3        1 <1>        0.000
      7 H          -2.4272   -0.5066   -0.1717 H.spc      1 <1>        0.000
      8 H          -1.9292    0.6480    1.8612 H.spc      1 <1>        0.000
      9 H           0.3982    1.5336    2.3669 H.spc      1 <1>        0.000
     10 H           2.2068    1.2343    0.7900 H.spc      1 <1>        0.000
     11 H           1.6118   -0.7407   -0.6438 H.spc      1 <1>        0.000
     12 H           1.1633    0.9109   -1.4720 H.spc      1 <1>        0.000
     13 H          -0.7042    0.0981   -1.9851 H.spc      1 <1>        0.000
     14 H          -0.2755   -1.4805   -1.1936 H.spc      1 <1>        0.000
@<TRIPOS>BOND
     1    1    2 2  
     2    1    6 1  
     3    2    3 1  
     4    3    4 2  
     5    4    5 1  
     6    5    6 1  
     7    1    7 1  
     8    2    8 1  
     9    3    9 1  
    10    4   10 1  
    11    5   11 1  
    12    5   12 1  
    13    6   13 1  
    14    6   14 1  
# Name:          frag4-399-60/48856 -- energy: -0.433780
# Creation time: Sat Jun  5 12:53:49 2010


@<TRIPOS>MOLECULE
frag4-399-60/48856 -- energy: -0.433780
   14    14     1     1     1
SMALL
USER_CHARGES


@<TRIPOS>ATOM
      1 C1         -1.4108   -0.1484   -0.0079 C.2        1 <1>        0.000
      2 C2         -1.1337    0.4980    1.1312 C.2        1 <1>        0.000
      3 C3          0.2145    1.0126    1.4273 C.2        1 <1>        0.000
      4 C4          1.2148    0.8477    0.5565 C.2        1 <1>        0.000
      5 C5          0.9827    0.1465   -0.7162 C.3        1 <1>        0.000
      6 C6         -0.3736   -0.4015   -1.0745 C.3        1 <1>        0.000
      7 H          -2.4272   -0.5066   -0.1717 H.spc      1 <1>        0.000
      8 H          -1.9292    0.6480    1.8612 H.spc      1 <1>        0.000
      9 H           0.3982    1.5336    2.3669 H.spc      1 <1>        0.000
     10 H           2.2068    1.2343    0.7900 H.spc      1 <1>        0.000
     11 H           1.6118   -0.7407   -0.6438 H.spc      1 <1>        0.000
     12 H           1.1633    0.9109   -1.4720 H.spc      1 <1>        0.000
     13 H          -0.7042    0.0981   -1.9851 H.spc      1 <1>        0.000
     14 H          -0.2755   -1.4805   -1.1936 H.spc      1 <1>        0.000
@<TRIPOS>BOND
     1    1    2 2  
     2    1    6 1  
     3    2    3 1  
     4    3    4 2  
     5    4    5 1  
     6    5    6 1  
     7    1    7 1  
     8    2    8 1  
     9    3    9 1  
    10    4   10 1  
    11    5   11 1  
    12    5   12 1  
    13    6   13 1  
    14    6   14 1  
