#      Rotatable Fragment
#      Build by yxyuan
#
# Name:          frag4-443-119/150395
# Creation time: Sat Jun  5 12:53:36 2010


@<TRIPOS>MOLECULE
frag4-443-119/150395
   22    23     1     1     1
SMALL
USER_CHARGES


@<TRIPOS>ATOM
      1 C1         -2.8098    0.1380    0.2617 C.ar       1 <1>        0.000
      2 C2         -2.6742    1.5755    0.3700 C.ar       1 <1>        0.000
      3 N1         -1.9989   -0.8111    0.8795 N.pl3      1 <1>        0.000
      4 C3         -4.0093   -0.3336   -0.3055 C.ar       1 <1>        0.000
      5 S1         -1.3836    2.3632    1.2278 S.3        1 <1>        0.000
      6 C4         -3.7246    2.2472   -0.2900 C.ar       1 <1>        0.000
      7 C5         -1.6964   -0.7698    2.1650 C.3        1 <1>        0.000
      8 C7         -5.1023    0.3969   -0.6799 C.ar       1 <1>        0.000
      9 C8         -1.4255    1.6687    2.8699 C.3        1 <1>        0.000
     10 C9         -4.9271    1.7285   -0.7377 C.ar       1 <1>        0.000
     11 C10        -2.1534    0.3513    3.0279 C.3        1 <1>        0.000
     12 H          -1.6218   -1.5719    0.3144 H.spc      1 <1>        0.000
     13 H          -4.0739   -1.4099   -0.4651 H.spc      1 <1>        0.000
     14 H          -3.5693    3.3109   -0.4705 H.spc      1 <1>        0.000
     15 H          -2.1984   -1.6432    2.5812 H.spc      1 <1>        0.000
     16 H          -0.6098   -0.6842    2.1766 H.spc      1 <1>        0.000
     17 H          -6.0575   -0.0716   -0.9171 H.spc      1 <1>        0.000
     18 H          -0.3880    1.4747    3.1420 H.spc      1 <1>        0.000
     19 H          -1.9644    2.3871    3.4877 H.spc      1 <1>        0.000
     20 H          -5.7094    2.3807   -1.1259 H.spc      1 <1>        0.000
     21 H          -1.9773    0.0315    4.0550 H.spc      1 <1>        0.000
     22 H          -3.1889    0.5442    2.7473 H.spc      1 <1>        0.000
@<TRIPOS>BOND
     1    4    8 ar 
     2    8   10 ar 
     3    7   11 1  
     4    9   11 1  
     5    6   10 ar 
     6    2    6 ar 
     7    3    7 1  
     8    5    9 1  
     9    1    2 ar 
    10    1    3 1  
    11    1    4 ar 
    12    2    5 1  
    13    3   12 1  
    14    4   13 1  
    15    6   14 1  
    16    7   15 1  
    17    7   16 1  
    18    8   17 1  
    19    9   18 1  
    20    9   19 1  
    21   10   20 1  
    22   11   21 1  
    23   11   22 1  
# Name:          frag4-443-119/150395
# Creation time: Sat Jun  5 12:53:36 2010


@<TRIPOS>MOLECULE
frag4-443-119/150395
   22    23     1     1     1
SMALL
USER_CHARGES


@<TRIPOS>ATOM
      1 C1         -3.4234    0.1297    0.7782 C.ar       1 <1>        0.000
      2 C2         -3.2207    1.5525    0.8211 C.ar       1 <1>        0.000
      3 N1         -2.9163   -0.6697    1.7408 N.pl3      1 <1>        0.000
      4 C3         -4.1712   -0.4033   -0.2647 C.ar       1 <1>        0.000
      5 S1         -2.4896    2.3108    2.2165 S.3        1 <1>        0.000
      6 C4         -3.6012    2.2810   -0.3106 C.ar       1 <1>        0.000
      7 C5         -1.5979   -0.7099    1.7733 C.3        1 <1>        0.000
      8 C7         -4.6451    0.3740   -1.3004 C.ar       1 <1>        0.000
      9 C8         -0.7978    1.7264    2.1718 C.3        1 <1>        0.000
     10 C9         -4.3261    1.7282   -1.3432 C.ar       1 <1>        0.000
     11 C10        -0.7160    0.2351    2.5060 C.3        1 <1>        0.000
     12 H          -3.5023   -1.1975    2.3877 H.spc      1 <1>        0.000
     13 H          -4.3904   -1.4710   -0.2641 H.spc      1 <1>        0.000
     14 H          -3.3121    3.3298   -0.3782 H.spc      1 <1>        0.000
     15 H          -1.4136   -1.6458    2.3008 H.spc      1 <1>        0.000
     16 H          -1.3400   -0.5005    0.7351 H.spc      1 <1>        0.000
     17 H          -5.2650   -0.0688   -2.0799 H.spc      1 <1>        0.000
     18 H          -0.4043    1.8790    1.1668 H.spc      1 <1>        0.000
     19 H          -0.2196    2.2801    2.9115 H.spc      1 <1>        0.000
     20 H          -4.6461    2.3439   -2.1838 H.spc      1 <1>        0.000
     21 H           0.2989   -0.0597    2.2391 H.spc      1 <1>        0.000
     22 H          -1.0256    0.1611    3.5485 H.spc      1 <1>        0.000
@<TRIPOS>BOND
     1    4    8 ar 
     2    8   10 ar 
     3    7   11 1  
     4    9   11 1  
     5    6   10 ar 
     6    2    6 ar 
     7    3    7 1  
     8    5    9 1  
     9    1    2 ar 
    10    1    3 1  
    11    1    4 ar 
    12    2    5 1  
    13    3   12 1  
    14    4   13 1  
    15    6   14 1  
    16    7   15 1  
    17    7   16 1  
    18    8   17 1  
    19    9   18 1  
    20    9   19 1  
    21   10   20 1  
    22   11   21 1  
    23   11   22 1  
# Name:          frag4-443-119/150395
# Creation time: Sat Jun  5 12:53:36 2010


@<TRIPOS>MOLECULE
frag4-443-119/150395
   22    23     1     1     1
SMALL
USER_CHARGES


@<TRIPOS>ATOM
      1 C1         -3.0929    0.1537    0.5135 C.ar       1 <1>        0.000
      2 C2         -2.8460    1.5817    0.4305 C.ar       1 <1>        0.000
      3 N1         -2.3917   -0.7997    1.2801 N.pl3      1 <1>        0.000
      4 C3         -4.2233   -0.2466   -0.2363 C.ar       1 <1>        0.000
      5 S1         -1.6955    2.3910    1.4512 S.3        1 <1>        0.000
      6 C4         -3.6094    2.2240   -0.5725 C.ar       1 <1>        0.000
      7 C5         -1.3023   -0.7967    2.0526 C.3        1 <1>        0.000
      8 C7         -5.1299    0.5128   -0.9364 C.ar       1 <1>        0.000
      9 C8         -1.8763    1.4599    2.9347 C.3        1 <1>        0.000
     10 C9         -4.7899    1.7944   -1.1661 C.ar       1 <1>        0.000
     11 C10        -0.9479    0.2803    3.0376 C.3        1 <1>        0.000
     12 H          -2.8247   -1.7220    1.2328 H.spc      1 <1>        0.000
     13 H          -4.4028   -1.3214   -0.2630 H.spc      1 <1>        0.000
     14 H          -3.2213    3.1795   -0.9253 H.spc      1 <1>        0.000
     15 H          -1.4741   -1.6565    2.7001 H.spc      1 <1>        0.000
     16 H          -0.4986   -0.7160    1.3207 H.spc      1 <1>        0.000
     17 H          -6.0751    0.0986   -1.2873 H.spc      1 <1>        0.000
     18 H          -1.6427    2.1271    3.7644 H.spc      1 <1>        0.000
     19 H          -2.8944    1.0708    2.9488 H.spc      1 <1>        0.000
     20 H          -5.4027    2.4546   -1.7799 H.spc      1 <1>        0.000
     21 H           0.0646    0.6216    2.8222 H.spc      1 <1>        0.000
     22 H          -1.0307   -0.1339    4.0424 H.spc      1 <1>        0.000
@<TRIPOS>BOND
     1    4    8 ar 
     2    8   10 ar 
     3    7   11 1  
     4    9   11 1  
     5    6   10 ar 
     6    2    6 ar 
     7    3    7 1  
     8    5    9 1  
     9    1    2 ar 
    10    1    3 1  
    11    1    4 ar 
    12    2    5 1  
    13    3   12 1  
    14    4   13 1  
    15    6   14 1  
    16    7   15 1  
    17    7   16 1  
    18    8   17 1  
    19    9   18 1  
    20    9   19 1  
    21   10   20 1  
    22   11   21 1  
    23   11   22 1  
# Name:          frag4-443-119/150395 -- energy: -1.618686
# Creation time: Sat Jun  5 12:53:36 2010


@<TRIPOS>MOLECULE
frag4-443-119/150395 -- energy: -1.618686
   22    23     1     1     1
SMALL
USER_CHARGES


@<TRIPOS>ATOM
      1 C1         -2.8098    0.1380    0.2617 C.ar       1 <1>        0.000
      2 C2         -2.6742    1.5755    0.3700 C.ar       1 <1>        0.000
      3 N1         -1.9989   -0.8111    0.8795 N.pl3      1 <1>        0.000
      4 C3         -4.0093   -0.3336   -0.3055 C.ar       1 <1>        0.000
      5 S1         -1.3836    2.3632    1.2278 S.3        1 <1>        0.000
      6 C4         -3.7246    2.2472   -0.2900 C.ar       1 <1>        0.000
      7 C5         -1.6964   -0.7698    2.1650 C.3        1 <1>        0.000
      8 C7         -5.1023    0.3969   -0.6799 C.ar       1 <1>        0.000
      9 C8         -1.4255    1.6687    2.8699 C.3        1 <1>        0.000
     10 C9         -4.9271    1.7285   -0.7377 C.ar       1 <1>        0.000
     11 C10        -2.1534    0.3513    3.0279 C.3        1 <1>        0.000
     12 H          -1.6218   -1.5719    0.3144 H.spc      1 <1>        0.000
     13 H          -4.0739   -1.4099   -0.4651 H.spc      1 <1>        0.000
     14 H          -3.5693    3.3109   -0.4705 H.spc      1 <1>        0.000
     15 H          -2.1984   -1.6432    2.5812 H.spc      1 <1>        0.000
     16 H          -0.6098   -0.6842    2.1766 H.spc      1 <1>        0.000
     17 H          -6.0575   -0.0716   -0.9171 H.spc      1 <1>        0.000
     18 H          -0.3880    1.4747    3.1420 H.spc      1 <1>        0.000
     19 H          -1.9644    2.3871    3.4877 H.spc      1 <1>        0.000
     20 H          -5.7094    2.3807   -1.1259 H.spc      1 <1>        0.000
     21 H          -1.9773    0.0315    4.0550 H.spc      1 <1>        0.000
     22 H          -3.1889    0.5442    2.7473 H.spc      1 <1>        0.000
@<TRIPOS>BOND
     1    4    8 ar 
     2    8   10 ar 
     3    7   11 1  
     4    9   11 1  
     5    6   10 ar 
     6    2    6 ar 
     7    3    7 1  
     8    5    9 1  
     9    1    2 ar 
    10    1    3 1  
    11    1    4 ar 
    12    2    5 1  
    13    3   12 1  
    14    4   13 1  
    15    6   14 1  
    16    7   15 1  
    17    7   16 1  
    18    8   17 1  
    19    9   18 1  
    20    9   19 1  
    21   10   20 1  
    22   11   21 1  
    23   11   22 1  
# Name:          frag4-443-119/150395 -- energy: -1.459927
# Creation time: Sat Jun  5 12:53:36 2010


@<TRIPOS>MOLECULE
frag4-443-119/150395 -- energy: -1.459927
   22    23     1     1     1
SMALL
USER_CHARGES


@<TRIPOS>ATOM
      1 C1         -3.4234    0.1297    0.7782 C.ar       1 <1>        0.000
      2 C2         -3.2207    1.5525    0.8211 C.ar       1 <1>        0.000
      3 N1         -2.9163   -0.6697    1.7408 N.pl3      1 <1>        0.000
      4 C3         -4.1712   -0.4033   -0.2647 C.ar       1 <1>        0.000
      5 S1         -2.4896    2.3108    2.2165 S.3        1 <1>        0.000
      6 C4         -3.6012    2.2810   -0.3106 C.ar       1 <1>        0.000
      7 C5         -1.5979   -0.7099    1.7733 C.3        1 <1>        0.000
      8 C7         -4.6451    0.3740   -1.3004 C.ar       1 <1>        0.000
      9 C8         -0.7978    1.7264    2.1718 C.3        1 <1>        0.000
     10 C9         -4.3261    1.7282   -1.3432 C.ar       1 <1>        0.000
     11 C10        -0.7160    0.2351    2.5060 C.3        1 <1>        0.000
     12 H          -3.5023   -1.1975    2.3877 H.spc      1 <1>        0.000
     13 H          -4.3904   -1.4710   -0.2641 H.spc      1 <1>        0.000
     14 H          -3.3121    3.3298   -0.3782 H.spc      1 <1>        0.000
     15 H          -1.4136   -1.6458    2.3008 H.spc      1 <1>        0.000
     16 H          -1.3400   -0.5005    0.7351 H.spc      1 <1>        0.000
     17 H          -5.2650   -0.0688   -2.0799 H.spc      1 <1>        0.000
     18 H          -0.4043    1.8790    1.1668 H.spc      1 <1>        0.000
     19 H          -0.2196    2.2801    2.9115 H.spc      1 <1>        0.000
     20 H          -4.6461    2.3439   -2.1838 H.spc      1 <1>        0.000
     21 H           0.2989   -0.0597    2.2391 H.spc      1 <1>        0.000
     22 H          -1.0256    0.1611    3.5485 H.spc      1 <1>        0.000
@<TRIPOS>BOND
     1    4    8 ar 
     2    8   10 ar 
     3    7   11 1  
     4    9   11 1  
     5    6   10 ar 
     6    2    6 ar 
     7    3    7 1  
     8    5    9 1  
     9    1    2 ar 
    10    1    3 1  
    11    1    4 ar 
    12    2    5 1  
    13    3   12 1  
    14    4   13 1  
    15    6   14 1  
    16    7   15 1  
    17    7   16 1  
    18    8   17 1  
    19    9   18 1  
    20    9   19 1  
    21   10   20 1  
    22   11   21 1  
    23   11   22 1  
# Name:          frag4-443-119/150395 -- energy: -1.178656
# Creation time: Sat Jun  5 12:53:36 2010


@<TRIPOS>MOLECULE
frag4-443-119/150395 -- energy: -1.178656
   22    23     1     1     1
SMALL
USER_CHARGES


@<TRIPOS>ATOM
      1 C1         -3.0929    0.1537    0.5135 C.ar       1 <1>        0.000
      2 C2         -2.8460    1.5817    0.4305 C.ar       1 <1>        0.000
      3 N1         -2.3917   -0.7997    1.2801 N.pl3      1 <1>        0.000
      4 C3         -4.2233   -0.2466   -0.2363 C.ar       1 <1>        0.000
      5 S1         -1.6955    2.3910    1.4512 S.3        1 <1>        0.000
      6 C4         -3.6094    2.2240   -0.5725 C.ar       1 <1>        0.000
      7 C5         -1.3023   -0.7967    2.0526 C.3        1 <1>        0.000
      8 C7         -5.1299    0.5128   -0.9364 C.ar       1 <1>        0.000
      9 C8         -1.8763    1.4599    2.9347 C.3        1 <1>        0.000
     10 C9         -4.7899    1.7944   -1.1661 C.ar       1 <1>        0.000
     11 C10        -0.9479    0.2803    3.0376 C.3        1 <1>        0.000
     12 H          -2.8247   -1.7220    1.2328 H.spc      1 <1>        0.000
     13 H          -4.4028   -1.3214   -0.2630 H.spc      1 <1>        0.000
     14 H          -3.2213    3.1795   -0.9253 H.spc      1 <1>        0.000
     15 H          -1.4741   -1.6565    2.7001 H.spc      1 <1>        0.000
     16 H          -0.4986   -0.7160    1.3207 H.spc      1 <1>        0.000
     17 H          -6.0751    0.0986   -1.2873 H.spc      1 <1>        0.000
     18 H          -1.6427    2.1271    3.7644 H.spc      1 <1>        0.000
     19 H          -2.8944    1.0708    2.9488 H.spc      1 <1>        0.000
     20 H          -5.4027    2.4546   -1.7799 H.spc      1 <1>        0.000
     21 H           0.0646    0.6216    2.8222 H.spc      1 <1>        0.000
     22 H          -1.0307   -0.1339    4.0424 H.spc      1 <1>        0.000
@<TRIPOS>BOND
     1    4    8 ar 
     2    8   10 ar 
     3    7   11 1  
     4    9   11 1  
     5    6   10 ar 
     6    2    6 ar 
     7    3    7 1  
     8    5    9 1  
     9    1    2 ar 
    10    1    3 1  
    11    1    4 ar 
    12    2    5 1  
    13    3   12 1  
    14    4   13 1  
    15    6   14 1  
    16    7   15 1  
    17    7   16 1  
    18    8   17 1  
    19    9   18 1  
    20    9   19 1  
    21   10   20 1  
    22   11   21 1  
    23   11   22 1  
