#      Rotatable Fragment
#      Build by yxyuan
#
# Name:          frag5-534-86/41815
# Creation time: Sat Jun  5 12:52:51 2010


@<TRIPOS>MOLECULE
frag5-534-86/41815
   44    46     1     1     1
SMALL
USER_CHARGES


@<TRIPOS>ATOM
      1 C1          4.2808   -2.5761    2.1674 C.3        1 <1>        0.000
      2 C2          5.6912   -2.7145    2.7701 C.3        1 <1>        0.000
      3 C3          6.4549   -1.3805    2.6731 C.3        1 <1>        0.000
      4 C4          5.6516   -0.2474    3.2657 C.2        1 <1>        0.000
      5 C5          4.2061   -0.1965    2.9757 C.2        1 <1>        0.000
      6 C6          3.4592   -1.5142    2.9228 C.3        1 <1>        0.000
      7 C7          3.5763    0.9685    2.7434 C.2        1 <1>        0.000
      8 C23         0.5075    2.4846   -1.1675 C.3        1 <1>        0.000
      9 C8          2.1463    1.1145    2.4810 C.2        1 <1>        0.000
     10 C9          1.6003    1.8563    1.5015 C.2        1 <1>        0.000
     11 C10         0.1087    1.9551    1.2882 C.3        1 <1>        0.000
     12 C11        -0.2288    1.5762   -0.1672 C.3        1 <1>        0.000
     13 C12        -1.7661    1.6248   -0.1835 C.3        1 <1>        0.000
     14 C13        -2.1835    1.1426    1.2268 C.3        1 <1>        0.000
     15 C14        -0.8771    1.0507    2.0511 C.3        1 <1>        0.000
     16 C24         2.0274    2.3438   -0.9488 C.3        1 <1>        0.000
     17 C25         2.4289    2.6528    0.5117 C.3        1 <1>        0.000
     18 C27         6.2441    0.6688    4.0442 C.2        1 <1>        0.000
     19 H           4.3743   -2.2698    1.1255 H.spc      1 <1>        0.000
     20 H           3.7703   -3.5358    2.2482 H.spc      1 <1>        0.000
     21 H           6.2391   -3.4765    2.2158 H.spc      1 <1>        0.000
     22 H           5.6011   -2.9946    3.8196 H.spc      1 <1>        0.000
     23 H           6.6416   -1.1620    1.6217 H.spc      1 <1>        0.000
     24 H           7.3885   -1.4728    3.2281 H.spc      1 <1>        0.000
     25 H           3.2856   -1.8619    3.9412 H.spc      1 <1>        0.000
     26 H           2.5143   -1.3629    2.4009 H.spc      1 <1>        0.000
     27 H           4.1803    1.8758    2.7515 H.spc      1 <1>        0.000
     28 H           0.2540    2.1911   -2.1862 H.spc      1 <1>        0.000
     29 H           0.2082    3.5211   -1.0120 H.spc      1 <1>        0.000
     30 H           1.4626    0.5750    3.1365 H.spc      1 <1>        0.000
     31 H          -0.0377    2.9770    1.6381 H.spc      1 <1>        0.000
     32 H           0.1135    0.5926   -0.4887 H.spc      1 <1>        0.000
     33 H          -2.1411    2.6248   -0.4012 H.spc      1 <1>        0.000
     34 H          -2.1865    0.9988   -0.9706 H.spc      1 <1>        0.000
     35 H          -2.8919    1.8322    1.6859 H.spc      1 <1>        0.000
     36 H          -2.6893    0.1782    1.1803 H.spc      1 <1>        0.000
     37 H          -0.5150    0.0264    2.1390 H.spc      1 <1>        0.000
     38 H          -1.0167    1.3702    3.0838 H.spc      1 <1>        0.000
     39 H           2.5345    3.0548   -1.6010 H.spc      1 <1>        0.000
     40 H           2.3116    1.3154   -1.1718 H.spc      1 <1>        0.000
     41 H           2.2599    3.7135    0.6974 H.spc      1 <1>        0.000
     42 H           3.4764    2.3824    0.6446 H.spc      1 <1>        0.000
     43 H           7.3117    0.5985    4.2527 H.spc      1 <1>        0.000
     44 H           5.6584    1.4841    4.4688 H.spc      1 <1>        0.000
@<TRIPOS>BOND
     1    1    6 1  
     2    1    2 1  
     3    2    3 1  
     4    8   16 1  
     5   16   17 1  
     6   14   15 1  
     7   13   14 1  
     8   12    8 1  
     9   12   13 1  
    10   11   15 1  
    11   11   12 1  
    12   10   17 1  
    13   10   11 1  
    14    9   10 2  
    15    7    9 1  
    16    5    7 2  
    17    5    6 1  
    18    4   18 2  
    19    4    5 1  
    20    3    4 1  
    21    1   19 1  
    22    1   20 1  
    23    2   21 1  
    24    2   22 1  
    25    3   23 1  
    26    3   24 1  
    27    6   25 1  
    28    6   26 1  
    29    7   27 1  
    30    8   28 1  
    31    8   29 1  
    32    9   30 1  
    33   11   31 1  
    34   12   32 1  
    35   13   33 1  
    36   13   34 1  
    37   14   35 1  
    38   14   36 1  
    39   15   37 1  
    40   15   38 1  
    41   16   39 1  
    42   16   40 1  
    43   17   41 1  
    44   17   42 1  
    45   18   43 1  
    46   18   44 1  
# Name:          frag5-534-86/41815
# Creation time: Sat Jun  5 12:52:51 2010


@<TRIPOS>MOLECULE
frag5-534-86/41815
   44    46     1     1     1
SMALL
USER_CHARGES


@<TRIPOS>ATOM
      1 C1          4.2608   -2.6918    3.6986 C.3        1 <1>        0.000
      2 C2          5.7536   -2.5585    4.0439 C.3        1 <1>        0.000
      3 C3          6.4899   -1.7443    2.9661 C.3        1 <1>        0.000
      4 C4          5.8121   -0.4142    2.7418 C.2        1 <1>        0.000
      5 C5          4.3400   -0.3893    2.6780 C.2        1 <1>        0.000
      6 C6          3.5862   -1.3112    3.6162 C.3        1 <1>        0.000
      7 C7          3.6845    0.4003    1.8088 C.2        1 <1>        0.000
      8 C23         0.2161    3.5023   -0.5042 C.3        1 <1>        0.000
      9 C8          2.2347    0.5161    1.7008 C.2        1 <1>        0.000
     10 C9          1.5581    1.6154    1.3231 C.2        1 <1>        0.000
     11 C10         0.0509    1.6582    1.2389 C.3        1 <1>        0.000
     12 C11        -0.3719    2.1232   -0.1678 C.3        1 <1>        0.000
     13 C12        -1.9023    2.0050   -0.1208 C.3        1 <1>        0.000
     14 C13        -2.1201    0.6724    0.6295 C.3        1 <1>        0.000
     15 C14        -0.8020    0.3852    1.3850 C.3        1 <1>        0.000
     16 C24         1.7527    3.4259   -0.4380 C.3        1 <1>        0.000
     17 C25         2.2451    2.9095    0.9315 C.3        1 <1>        0.000
     18 C27         6.5395    0.7053    2.6242 C.2        1 <1>        0.000
     19 H           4.1692   -3.1833    2.7300 H.spc      1 <1>        0.000
     20 H           3.7722   -3.2727    4.4808 H.spc      1 <1>        0.000
     21 H           6.1938   -3.5543    4.0956 H.spc      1 <1>        0.000
     22 H           5.8497   -2.0451    5.0006 H.spc      1 <1>        0.000
     23 H           6.4783   -2.3063    2.0322 H.spc      1 <1>        0.000
     24 H           7.5126   -1.5658    3.2983 H.spc      1 <1>        0.000
     25 H           3.5801   -0.8665    4.6113 H.spc      1 <1>        0.000
     26 H           2.5724   -1.4408    3.2373 H.spc      1 <1>        0.000
     27 H           4.2864    1.0034    1.1290 H.spc      1 <1>        0.000
     28 H          -0.0931    3.7976   -1.5068 H.spc      1 <1>        0.000
     29 H          -0.1452    4.2394    0.2129 H.spc      1 <1>        0.000
     30 H           1.6467   -0.3676    1.9484 H.spc      1 <1>        0.000
     31 H          -0.1421    2.2885    2.1070 H.spc      1 <1>        0.000
     32 H           0.0161    1.5303   -0.9961 H.spc      1 <1>        0.000
     33 H          -2.3782    2.8523    0.3728 H.spc      1 <1>        0.000
     34 H          -2.3590    2.0141   -1.1105 H.spc      1 <1>        0.000
     35 H          -2.9619    0.7414    1.3185 H.spc      1 <1>        0.000
     36 H          -2.3612   -0.1344   -0.0626 H.spc      1 <1>        0.000
     37 H          -0.2902   -0.4845    0.9730 H.spc      1 <1>        0.000
     38 H          -0.9886    0.1510    2.4331 H.spc      1 <1>        0.000
     39 H           2.1516    4.4291   -0.5885 H.spc      1 <1>        0.000
     40 H           2.0939    2.7332   -1.2073 H.spc      1 <1>        0.000
     41 H           2.0148    3.6623    1.6854 H.spc      1 <1>        0.000
     42 H           3.3167    2.7223    0.8628 H.spc      1 <1>        0.000
     43 H           7.6265    0.6584    2.6904 H.spc      1 <1>        0.000
     44 H           6.0441    1.6626    2.4623 H.spc      1 <1>        0.000
@<TRIPOS>BOND
     1    1    6 1  
     2    1    2 1  
     3    2    3 1  
     4    8   16 1  
     5   16   17 1  
     6   14   15 1  
     7   13   14 1  
     8   12    8 1  
     9   12   13 1  
    10   11   15 1  
    11   11   12 1  
    12   10   17 1  
    13   10   11 1  
    14    9   10 2  
    15    7    9 1  
    16    5    7 2  
    17    5    6 1  
    18    4   18 2  
    19    4    5 1  
    20    3    4 1  
    21    1   19 1  
    22    1   20 1  
    23    2   21 1  
    24    2   22 1  
    25    3   23 1  
    26    3   24 1  
    27    6   25 1  
    28    6   26 1  
    29    7   27 1  
    30    8   28 1  
    31    8   29 1  
    32    9   30 1  
    33   11   31 1  
    34   12   32 1  
    35   13   33 1  
    36   13   34 1  
    37   14   35 1  
    38   14   36 1  
    39   15   37 1  
    40   15   38 1  
    41   16   39 1  
    42   16   40 1  
    43   17   41 1  
    44   17   42 1  
    45   18   43 1  
    46   18   44 1  
# Name:          frag5-534-86/41815
# Creation time: Sat Jun  5 12:52:51 2010


@<TRIPOS>MOLECULE
frag5-534-86/41815
   44    46     1     1     1
SMALL
USER_CHARGES


@<TRIPOS>ATOM
      1 C1          4.2879   -0.6732    4.7219 C.3        1 <1>        0.000
      2 C2          5.8219   -0.7611    4.6581 C.3        1 <1>        0.000
      3 C3          6.2707   -1.5164    3.3955 C.3        1 <1>        0.000
      4 C4          5.6451   -0.9274    2.1542 C.2        1 <1>        0.000
      5 C5          4.2261   -0.5373    2.2130 C.2        1 <1>        0.000
      6 C6          3.7257    0.0797    3.5046 C.3        1 <1>        0.000
      7 C7          3.3936   -0.7405    1.1742 C.2        1 <1>        0.000
      8 C23         0.6184    3.5828    0.4162 C.3        1 <1>        0.000
      9 C8          1.9886   -0.3526    1.1337 C.2        1 <1>        0.000
     10 C9          1.5212    0.9062    1.2637 C.2        1 <1>        0.000
     11 C10         0.0495    1.2376    1.2176 C.3        1 <1>        0.000
     12 C11        -0.2020    2.3130    0.1434 C.3        1 <1>        0.000
     13 C12        -1.7313    2.4496    0.1485 C.3        1 <1>        0.000
     14 C13        -2.2062    0.9849    0.2672 C.3        1 <1>        0.000
     15 C14        -1.0025    0.1872    0.8192 C.3        1 <1>        0.000
     16 C24         2.1155    3.2238    0.4313 C.3        1 <1>        0.000
     17 C25         2.4296    2.1069    1.4489 C.3        1 <1>        0.000
     18 C27         6.3759   -0.7538    1.0442 C.2        1 <1>        0.000
     19 H           3.8804   -1.6841    4.7256 H.spc      1 <1>        0.000
     20 H           4.0067   -0.1336    5.6263 H.spc      1 <1>        0.000
     21 H           6.1811   -1.2977    5.5363 H.spc      1 <1>        0.000
     22 H           6.2320    0.2484    4.6294 H.spc      1 <1>        0.000
     23 H           5.9567   -2.5565    3.4828 H.spc      1 <1>        0.000
     24 H           7.3544   -1.4367    3.3097 H.spc      1 <1>        0.000
     25 H           4.0556    1.1176    3.5497 H.spc      1 <1>        0.000
     26 H           2.6376    0.0190    3.5251 H.spc      1 <1>        0.000
     27 H           3.8029   -1.2346    0.2930 H.spc      1 <1>        0.000
     28 H           0.4261    4.3178   -0.3654 H.spc      1 <1>        0.000
     29 H           0.3329    4.0029    1.3806 H.spc      1 <1>        0.000
     30 H           1.2552   -1.1454    0.9862 H.spc      1 <1>        0.000
     31 H          -0.0968    1.4702    2.2724 H.spc      1 <1>        0.000
     32 H           0.1398    2.0641   -0.8613 H.spc      1 <1>        0.000
     33 H          -2.0978    3.0810    0.9579 H.spc      1 <1>        0.000
     34 H          -2.1153    2.9490   -0.7410 H.spc      1 <1>        0.000
     35 H          -3.0692    0.9030    0.9279 H.spc      1 <1>        0.000
     36 H          -2.5270    0.5954   -0.6990 H.spc      1 <1>        0.000
     37 H          -0.6098   -0.5044    0.0738 H.spc      1 <1>        0.000
     38 H          -1.2916   -0.4276    1.6716 H.spc      1 <1>        0.000
     39 H           2.6773    4.1134    0.7162 H.spc      1 <1>        0.000
     40 H           2.3918    2.8689   -0.5616 H.spc      1 <1>        0.000
     41 H           2.2741    2.5033    2.4523 H.spc      1 <1>        0.000
     42 H           3.4597    1.7844    1.2973 H.spc      1 <1>        0.000
     43 H           7.4280   -1.0384    1.0343 H.spc      1 <1>        0.000
     44 H           5.9181   -0.3280    0.1513 H.spc      1 <1>        0.000
@<TRIPOS>BOND
     1    1    6 1  
     2    1    2 1  
     3    2    3 1  
     4    8   16 1  
     5   16   17 1  
     6   14   15 1  
     7   13   14 1  
     8   12    8 1  
     9   12   13 1  
    10   11   15 1  
    11   11   12 1  
    12   10   17 1  
    13   10   11 1  
    14    9   10 2  
    15    7    9 1  
    16    5    7 2  
    17    5    6 1  
    18    4   18 2  
    19    4    5 1  
    20    3    4 1  
    21    1   19 1  
    22    1   20 1  
    23    2   21 1  
    24    2   22 1  
    25    3   23 1  
    26    3   24 1  
    27    6   25 1  
    28    6   26 1  
    29    7   27 1  
    30    8   28 1  
    31    8   29 1  
    32    9   30 1  
    33   11   31 1  
    34   12   32 1  
    35   13   33 1  
    36   13   34 1  
    37   14   35 1  
    38   14   36 1  
    39   15   37 1  
    40   15   38 1  
    41   16   39 1  
    42   16   40 1  
    43   17   41 1  
    44   17   42 1  
    45   18   43 1  
    46   18   44 1  
# Name:          frag5-534-86/41815
# Creation time: Sat Jun  5 12:52:51 2010


@<TRIPOS>MOLECULE
frag5-534-86/41815
   44    46     1     1     1
SMALL
USER_CHARGES


@<TRIPOS>ATOM
      1 C1          4.2069   -2.0737    4.3441 C.3        1 <1>        0.000
      2 C2          5.7291   -1.9423    4.5264 C.3        1 <1>        0.000
      3 C3          6.4213   -1.7251    3.1692 C.3        1 <1>        0.000
      4 C4          5.7994   -0.5735    2.4164 C.2        1 <1>        0.000
      5 C5          4.3304   -0.4505    2.4288 C.2        1 <1>        0.000
      6 C6          3.6127   -0.7993    3.7174 C.3        1 <1>        0.000
      7 C7          3.6457   -0.0690    1.3354 C.2        1 <1>        0.000
      8 C23         0.2868    3.6959    0.0938 C.3        1 <1>        0.000
      9 C8          2.1997    0.1144    1.2685 C.2        1 <1>        0.000
     10 C9          1.5594    1.2987    1.2505 C.2        1 <1>        0.000
     11 C10         0.0547    1.4114    1.1868 C.3        1 <1>        0.000
     12 C11        -0.3440    2.2981   -0.0086 C.3        1 <1>        0.000
     13 C12        -1.8780    2.2186    0.0039 C.3        1 <1>        0.000
     14 C13        -2.1406    0.7267    0.3088 C.3        1 <1>        0.000
     15 C14        -0.8366    0.1811    0.9367 C.3        1 <1>        0.000
     16 C24         1.8204    3.5557    0.1291 C.3        1 <1>        0.000
     17 C25         2.2876    2.6288    1.2733 C.3        1 <1>        0.000
     18 C27         6.5730    0.3134    1.7750 C.2        1 <1>        0.000
     19 H           4.0060   -2.9152    3.6810 H.spc      1 <1>        0.000
     20 H           3.7502   -2.2276    5.3218 H.spc      1 <1>        0.000
     21 H           6.1113   -2.8594    4.9747 H.spc      1 <1>        0.000
     22 H           5.9350   -1.0859    5.1686 H.spc      1 <1>        0.000
     23 H           6.3097   -2.6308    2.5731 H.spc      1 <1>        0.000
     24 H           7.4721   -1.4969    3.3475 H.spc      1 <1>        0.000
     25 H           3.7293    0.0259    4.4199 H.spc      1 <1>        0.000
     26 H           2.5593   -0.9730    3.4979 H.spc      1 <1>        0.000
     27 H           4.2172    0.1182    0.4263 H.spc      1 <1>        0.000
     28 H          -0.0068    4.2947   -0.7684 H.spc      1 <1>        0.000
     29 H          -0.0574    4.1877    1.0036 H.spc      1 <1>        0.000
     30 H           1.5849   -0.7848    1.2298 H.spc      1 <1>        0.000
     31 H          -0.1259    1.7508    2.2067 H.spc      1 <1>        0.000
     32 H           0.0321    1.9759   -0.9796 H.spc      1 <1>        0.000
     33 H          -2.3317    2.8875    0.7352 H.spc      1 <1>        0.000
     34 H          -2.3276    2.5457   -0.9336 H.spc      1 <1>        0.000
     35 H          -2.9850    0.6061    0.9875 H.spc      1 <1>        0.000
     36 H          -2.4004    0.1794   -0.5973 H.spc      1 <1>        0.000
     37 H          -0.3478   -0.5352    0.2763 H.spc      1 <1>        0.000
     38 H          -1.0374   -0.3581    1.8625 H.spc      1 <1>        0.000
     39 H           2.2504    4.5439    0.2924 H.spc      1 <1>        0.000
     40 H           2.1460    3.1223   -0.8166 H.spc      1 <1>        0.000
     41 H           2.0746    3.1207    2.2224 H.spc      1 <1>        0.000
     42 H           3.3536    2.4389    1.1479 H.spc      1 <1>        0.000
     43 H           7.6575    0.2056    1.7950 H.spc      1 <1>        0.000
     44 H           6.1177    1.1425    1.2334 H.spc      1 <1>        0.000
@<TRIPOS>BOND
     1    1    6 1  
     2    1    2 1  
     3    2    3 1  
     4    8   16 1  
     5   16   17 1  
     6   14   15 1  
     7   13   14 1  
     8   12    8 1  
     9   12   13 1  
    10   11   15 1  
    11   11   12 1  
    12   10   17 1  
    13   10   11 1  
    14    9   10 2  
    15    7    9 1  
    16    5    7 2  
    17    5    6 1  
    18    4   18 2  
    19    4    5 1  
    20    3    4 1  
    21    1   19 1  
    22    1   20 1  
    23    2   21 1  
    24    2   22 1  
    25    3   23 1  
    26    3   24 1  
    27    6   25 1  
    28    6   26 1  
    29    7   27 1  
    30    8   28 1  
    31    8   29 1  
    32    9   30 1  
    33   11   31 1  
    34   12   32 1  
    35   13   33 1  
    36   13   34 1  
    37   14   35 1  
    38   14   36 1  
    39   15   37 1  
    40   15   38 1  
    41   16   39 1  
    42   16   40 1  
    43   17   41 1  
    44   17   42 1  
    45   18   43 1  
    46   18   44 1  
# Name:          frag5-534-86/41815
# Creation time: Sat Jun  5 12:52:51 2010


@<TRIPOS>MOLECULE
frag5-534-86/41815
   44    46     1     1     1
SMALL
USER_CHARGES


@<TRIPOS>ATOM
      1 C1          4.4471   -1.6157    1.1051 C.3        1 <1>        0.000
      2 C2          5.7104   -2.1269    1.8171 C.3        1 <1>        0.000
      3 C3          6.3834   -0.9937    2.6098 C.3        1 <1>        0.000
      4 C4          5.4012   -0.3125    3.5319 C.2        1 <1>        0.000
      5 C5          4.0474   -0.0383    3.0206 C.2        1 <1>        0.000
      6 C6          3.4192   -1.0810    2.1169 C.3        1 <1>        0.000
      7 C7          3.3961    1.1014    3.3199 C.2        1 <1>        0.000
      8 C23         0.7588    1.3691   -1.1436 C.3        1 <1>        0.000
      9 C8          2.0472    1.4401    2.8836 C.2        1 <1>        0.000
     10 C9          1.6900    1.7690    1.6260 C.2        1 <1>        0.000
     11 C10         0.2681    2.0990    1.2421 C.3        1 <1>        0.000
     12 C11        -0.1697    1.2023    0.0684 C.3        1 <1>        0.000
     13 C12        -1.6456    1.5811   -0.1186 C.3        1 <1>        0.000
     14 C13        -2.1573    1.6960    1.3336 C.3        1 <1>        0.000
     15 C14        -0.9027    1.8824    2.2169 C.3        1 <1>        0.000
     16 C24         2.1961    1.0006   -0.7346 C.3        1 <1>        0.000
     17 C25         2.6797    1.8252    0.4778 C.3        1 <1>        0.000
     18 C27         5.7584    0.0110    4.7825 C.2        1 <1>        0.000
     19 H           4.7293   -0.8052    0.4331 H.spc      1 <1>        0.000
     20 H           3.9977   -2.4427    0.5554 H.spc      1 <1>        0.000
     21 H           6.4109   -2.4980    1.0690 H.spc      1 <1>        0.000
     22 H           5.4285   -2.9213    2.5082 H.spc      1 <1>        0.000
     23 H           6.7665   -0.2563    1.9044 H.spc      1 <1>        0.000
     24 H           7.1864   -1.4198    3.2112 H.spc      1 <1>        0.000
     25 H           3.0644   -1.9098    2.7295 H.spc      1 <1>        0.000
     26 H           2.5940   -0.6229    1.5716 H.spc      1 <1>        0.000
     27 H           3.9200    1.8299    3.9387 H.spc      1 <1>        0.000
     28 H           0.4287    0.7143   -1.9501 H.spc      1 <1>        0.000
     29 H           0.7299    2.4032   -1.4869 H.spc      1 <1>        0.000
     30 H           1.2607    1.4263    3.6381 H.spc      1 <1>        0.000
     31 H           0.3856    3.1731    1.0984 H.spc      1 <1>        0.000
     32 H          -0.0865    0.1290    0.2391 H.spc      1 <1>        0.000
     33 H          -1.7782    2.5007   -0.6886 H.spc      1 <1>        0.000
     34 H          -2.1997    0.8494   -0.7065 H.spc      1 <1>        0.000
     35 H          -2.8446    2.5348    1.4437 H.spc      1 <1>        0.000
     36 H          -2.7160    0.8068    1.6258 H.spc      1 <1>        0.000
     37 H          -0.7333    1.0138    2.8533 H.spc      1 <1>        0.000
     38 H          -1.0167    2.7290    2.8939 H.spc      1 <1>        0.000
     39 H           2.8556    1.2120   -1.5763 H.spc      1 <1>        0.000
     40 H           2.2131   -0.0539   -0.4591 H.spc      1 <1>        0.000
     41 H           2.7851    2.8643    0.1661 H.spc      1 <1>        0.000
     42 H           3.6269    1.4086    0.8204 H.spc      1 <1>        0.000
     43 H           6.7628   -0.2176    5.1388 H.spc      1 <1>        0.000
     44 H           5.0445    0.5027    5.4433 H.spc      1 <1>        0.000
@<TRIPOS>BOND
     1    1    6 1  
     2    1    2 1  
     3    2    3 1  
     4    8   16 1  
     5   16   17 1  
     6   14   15 1  
     7   13   14 1  
     8   12    8 1  
     9   12   13 1  
    10   11   15 1  
    11   11   12 1  
    12   10   17 1  
    13   10   11 1  
    14    9   10 2  
    15    7    9 1  
    16    5    7 2  
    17    5    6 1  
    18    4   18 2  
    19    4    5 1  
    20    3    4 1  
    21    1   19 1  
    22    1   20 1  
    23    2   21 1  
    24    2   22 1  
    25    3   23 1  
    26    3   24 1  
    27    6   25 1  
    28    6   26 1  
    29    7   27 1  
    30    8   28 1  
    31    8   29 1  
    32    9   30 1  
    33   11   31 1  
    34   12   32 1  
    35   13   33 1  
    36   13   34 1  
    37   14   35 1  
    38   14   36 1  
    39   15   37 1  
    40   15   38 1  
    41   16   39 1  
    42   16   40 1  
    43   17   41 1  
    44   17   42 1  
    45   18   43 1  
    46   18   44 1  
# Name:          frag5-534-86/41815 -- energy: -6.837707
# Creation time: Sat Jun  5 12:52:51 2010


@<TRIPOS>MOLECULE
frag5-534-86/41815 -- energy: -6.837707
   44    46     1     1     1
SMALL
USER_CHARGES


@<TRIPOS>ATOM
      1 C1          4.2808   -2.5761    2.1674 C.3        1 <1>        0.000
      2 C2          5.6912   -2.7145    2.7701 C.3        1 <1>        0.000
      3 C3          6.4549   -1.3805    2.6731 C.3        1 <1>        0.000
      4 C4          5.6516   -0.2474    3.2657 C.2        1 <1>        0.000
      5 C5          4.2061   -0.1965    2.9757 C.2        1 <1>        0.000
      6 C6          3.4592   -1.5142    2.9228 C.3        1 <1>        0.000
      7 C7          3.5763    0.9685    2.7434 C.2        1 <1>        0.000
      8 C23         0.5075    2.4846   -1.1675 C.3        1 <1>        0.000
      9 C8          2.1463    1.1145    2.4810 C.2        1 <1>        0.000
     10 C9          1.6003    1.8563    1.5015 C.2        1 <1>        0.000
     11 C10         0.1087    1.9551    1.2882 C.3        1 <1>        0.000
     12 C11        -0.2288    1.5762   -0.1672 C.3        1 <1>        0.000
     13 C12        -1.7661    1.6248   -0.1835 C.3        1 <1>        0.000
     14 C13        -2.1835    1.1426    1.2268 C.3        1 <1>        0.000
     15 C14        -0.8771    1.0507    2.0511 C.3        1 <1>        0.000
     16 C24         2.0274    2.3438   -0.9488 C.3        1 <1>        0.000
     17 C25         2.4289    2.6528    0.5117 C.3        1 <1>        0.000
     18 C27         6.2441    0.6688    4.0442 C.2        1 <1>        0.000
     19 H           4.3743   -2.2698    1.1255 H.spc      1 <1>        0.000
     20 H           3.7703   -3.5358    2.2482 H.spc      1 <1>        0.000
     21 H           6.2391   -3.4765    2.2158 H.spc      1 <1>        0.000
     22 H           5.6011   -2.9946    3.8196 H.spc      1 <1>        0.000
     23 H           6.6416   -1.1620    1.6217 H.spc      1 <1>        0.000
     24 H           7.3885   -1.4728    3.2281 H.spc      1 <1>        0.000
     25 H           3.2856   -1.8619    3.9412 H.spc      1 <1>        0.000
     26 H           2.5143   -1.3629    2.4009 H.spc      1 <1>        0.000
     27 H           4.1803    1.8758    2.7515 H.spc      1 <1>        0.000
     28 H           0.2540    2.1911   -2.1862 H.spc      1 <1>        0.000
     29 H           0.2082    3.5211   -1.0120 H.spc      1 <1>        0.000
     30 H           1.4626    0.5750    3.1365 H.spc      1 <1>        0.000
     31 H          -0.0377    2.9770    1.6381 H.spc      1 <1>        0.000
     32 H           0.1135    0.5926   -0.4887 H.spc      1 <1>        0.000
     33 H          -2.1411    2.6248   -0.4012 H.spc      1 <1>        0.000
     34 H          -2.1865    0.9988   -0.9706 H.spc      1 <1>        0.000
     35 H          -2.8919    1.8322    1.6859 H.spc      1 <1>        0.000
     36 H          -2.6893    0.1782    1.1803 H.spc      1 <1>        0.000
     37 H          -0.5150    0.0264    2.1390 H.spc      1 <1>        0.000
     38 H          -1.0167    1.3702    3.0838 H.spc      1 <1>        0.000
     39 H           2.5345    3.0548   -1.6010 H.spc      1 <1>        0.000
     40 H           2.3116    1.3154   -1.1718 H.spc      1 <1>        0.000
     41 H           2.2599    3.7135    0.6974 H.spc      1 <1>        0.000
     42 H           3.4764    2.3824    0.6446 H.spc      1 <1>        0.000
     43 H           7.3117    0.5985    4.2527 H.spc      1 <1>        0.000
     44 H           5.6584    1.4841    4.4688 H.spc      1 <1>        0.000
@<TRIPOS>BOND
     1    1    6 1  
     2    1    2 1  
     3    2    3 1  
     4    8   16 1  
     5   16   17 1  
     6   14   15 1  
     7   13   14 1  
     8   12    8 1  
     9   12   13 1  
    10   11   15 1  
    11   11   12 1  
    12   10   17 1  
    13   10   11 1  
    14    9   10 2  
    15    7    9 1  
    16    5    7 2  
    17    5    6 1  
    18    4   18 2  
    19    4    5 1  
    20    3    4 1  
    21    1   19 1  
    22    1   20 1  
    23    2   21 1  
    24    2   22 1  
    25    3   23 1  
    26    3   24 1  
    27    6   25 1  
    28    6   26 1  
    29    7   27 1  
    30    8   28 1  
    31    8   29 1  
    32    9   30 1  
    33   11   31 1  
    34   12   32 1  
    35   13   33 1  
    36   13   34 1  
    37   14   35 1  
    38   14   36 1  
    39   15   37 1  
    40   15   38 1  
    41   16   39 1  
    42   16   40 1  
    43   17   41 1  
    44   17   42 1  
    45   18   43 1  
    46   18   44 1  
# Name:          frag5-534-86/41815 -- energy: -6.141040
# Creation time: Sat Jun  5 12:52:52 2010


@<TRIPOS>MOLECULE
frag5-534-86/41815 -- energy: -6.141040
   44    46     1     1     1
SMALL
USER_CHARGES


@<TRIPOS>ATOM
      1 C1          4.2608   -2.6918    3.6986 C.3        1 <1>        0.000
      2 C2          5.7536   -2.5585    4.0439 C.3        1 <1>        0.000
      3 C3          6.4899   -1.7443    2.9661 C.3        1 <1>        0.000
      4 C4          5.8121   -0.4142    2.7418 C.2        1 <1>        0.000
      5 C5          4.3400   -0.3893    2.6780 C.2        1 <1>        0.000
      6 C6          3.5862   -1.3112    3.6162 C.3        1 <1>        0.000
      7 C7          3.6845    0.4003    1.8088 C.2        1 <1>        0.000
      8 C23         0.2161    3.5023   -0.5042 C.3        1 <1>        0.000
      9 C8          2.2347    0.5161    1.7008 C.2        1 <1>        0.000
     10 C9          1.5581    1.6154    1.3231 C.2        1 <1>        0.000
     11 C10         0.0509    1.6582    1.2389 C.3        1 <1>        0.000
     12 C11        -0.3719    2.1232   -0.1678 C.3        1 <1>        0.000
     13 C12        -1.9023    2.0050   -0.1208 C.3        1 <1>        0.000
     14 C13        -2.1201    0.6724    0.6295 C.3        1 <1>        0.000
     15 C14        -0.8020    0.3852    1.3850 C.3        1 <1>        0.000
     16 C24         1.7527    3.4259   -0.4380 C.3        1 <1>        0.000
     17 C25         2.2451    2.9095    0.9315 C.3        1 <1>        0.000
     18 C27         6.5395    0.7053    2.6242 C.2        1 <1>        0.000
     19 H           4.1692   -3.1833    2.7300 H.spc      1 <1>        0.000
     20 H           3.7722   -3.2727    4.4808 H.spc      1 <1>        0.000
     21 H           6.1938   -3.5543    4.0956 H.spc      1 <1>        0.000
     22 H           5.8497   -2.0451    5.0006 H.spc      1 <1>        0.000
     23 H           6.4783   -2.3063    2.0322 H.spc      1 <1>        0.000
     24 H           7.5126   -1.5658    3.2983 H.spc      1 <1>        0.000
     25 H           3.5801   -0.8665    4.6113 H.spc      1 <1>        0.000
     26 H           2.5724   -1.4408    3.2373 H.spc      1 <1>        0.000
     27 H           4.2864    1.0034    1.1290 H.spc      1 <1>        0.000
     28 H          -0.0931    3.7976   -1.5068 H.spc      1 <1>        0.000
     29 H          -0.1452    4.2394    0.2129 H.spc      1 <1>        0.000
     30 H           1.6467   -0.3676    1.9484 H.spc      1 <1>        0.000
     31 H          -0.1421    2.2885    2.1070 H.spc      1 <1>        0.000
     32 H           0.0161    1.5303   -0.9961 H.spc      1 <1>        0.000
     33 H          -2.3782    2.8523    0.3728 H.spc      1 <1>        0.000
     34 H          -2.3590    2.0141   -1.1105 H.spc      1 <1>        0.000
     35 H          -2.9619    0.7414    1.3185 H.spc      1 <1>        0.000
     36 H          -2.3612   -0.1344   -0.0626 H.spc      1 <1>        0.000
     37 H          -0.2902   -0.4845    0.9730 H.spc      1 <1>        0.000
     38 H          -0.9886    0.1510    2.4331 H.spc      1 <1>        0.000
     39 H           2.1516    4.4291   -0.5885 H.spc      1 <1>        0.000
     40 H           2.0939    2.7332   -1.2073 H.spc      1 <1>        0.000
     41 H           2.0148    3.6623    1.6854 H.spc      1 <1>        0.000
     42 H           3.3167    2.7223    0.8628 H.spc      1 <1>        0.000
     43 H           7.6265    0.6584    2.6904 H.spc      1 <1>        0.000
     44 H           6.0441    1.6626    2.4623 H.spc      1 <1>        0.000
@<TRIPOS>BOND
     1    1    6 1  
     2    1    2 1  
     3    2    3 1  
     4    8   16 1  
     5   16   17 1  
     6   14   15 1  
     7   13   14 1  
     8   12    8 1  
     9   12   13 1  
    10   11   15 1  
    11   11   12 1  
    12   10   17 1  
    13   10   11 1  
    14    9   10 2  
    15    7    9 1  
    16    5    7 2  
    17    5    6 1  
    18    4   18 2  
    19    4    5 1  
    20    3    4 1  
    21    1   19 1  
    22    1   20 1  
    23    2   21 1  
    24    2   22 1  
    25    3   23 1  
    26    3   24 1  
    27    6   25 1  
    28    6   26 1  
    29    7   27 1  
    30    8   28 1  
    31    8   29 1  
    32    9   30 1  
    33   11   31 1  
    34   12   32 1  
    35   13   33 1  
    36   13   34 1  
    37   14   35 1  
    38   14   36 1  
    39   15   37 1  
    40   15   38 1  
    41   16   39 1  
    42   16   40 1  
    43   17   41 1  
    44   17   42 1  
    45   18   43 1  
    46   18   44 1  
# Name:          frag5-534-86/41815 -- energy: -7.474627
# Creation time: Sat Jun  5 12:52:52 2010


@<TRIPOS>MOLECULE
frag5-534-86/41815 -- energy: -7.474627
   44    46     1     1     1
SMALL
USER_CHARGES


@<TRIPOS>ATOM
      1 C1          4.2879   -0.6732    4.7219 C.3        1 <1>        0.000
      2 C2          5.8219   -0.7611    4.6581 C.3        1 <1>        0.000
      3 C3          6.2707   -1.5164    3.3955 C.3        1 <1>        0.000
      4 C4          5.6451   -0.9274    2.1542 C.2        1 <1>        0.000
      5 C5          4.2261   -0.5373    2.2130 C.2        1 <1>        0.000
      6 C6          3.7257    0.0797    3.5046 C.3        1 <1>        0.000
      7 C7          3.3936   -0.7405    1.1742 C.2        1 <1>        0.000
      8 C23         0.6184    3.5828    0.4162 C.3        1 <1>        0.000
      9 C8          1.9886   -0.3526    1.1337 C.2        1 <1>        0.000
     10 C9          1.5212    0.9062    1.2637 C.2        1 <1>        0.000
     11 C10         0.0495    1.2376    1.2176 C.3        1 <1>        0.000
     12 C11        -0.2020    2.3130    0.1434 C.3        1 <1>        0.000
     13 C12        -1.7313    2.4496    0.1485 C.3        1 <1>        0.000
     14 C13        -2.2062    0.9849    0.2672 C.3        1 <1>        0.000
     15 C14        -1.0025    0.1872    0.8192 C.3        1 <1>        0.000
     16 C24         2.1155    3.2238    0.4313 C.3        1 <1>        0.000
     17 C25         2.4296    2.1069    1.4489 C.3        1 <1>        0.000
     18 C27         6.3759   -0.7538    1.0442 C.2        1 <1>        0.000
     19 H           3.8804   -1.6841    4.7256 H.spc      1 <1>        0.000
     20 H           4.0067   -0.1336    5.6263 H.spc      1 <1>        0.000
     21 H           6.1811   -1.2977    5.5363 H.spc      1 <1>        0.000
     22 H           6.2320    0.2484    4.6294 H.spc      1 <1>        0.000
     23 H           5.9567   -2.5565    3.4828 H.spc      1 <1>        0.000
     24 H           7.3544   -1.4367    3.3097 H.spc      1 <1>        0.000
     25 H           4.0556    1.1176    3.5497 H.spc      1 <1>        0.000
     26 H           2.6376    0.0190    3.5251 H.spc      1 <1>        0.000
     27 H           3.8029   -1.2346    0.2930 H.spc      1 <1>        0.000
     28 H           0.4261    4.3178   -0.3654 H.spc      1 <1>        0.000
     29 H           0.3329    4.0029    1.3806 H.spc      1 <1>        0.000
     30 H           1.2552   -1.1454    0.9862 H.spc      1 <1>        0.000
     31 H          -0.0968    1.4702    2.2724 H.spc      1 <1>        0.000
     32 H           0.1398    2.0641   -0.8613 H.spc      1 <1>        0.000
     33 H          -2.0978    3.0810    0.9579 H.spc      1 <1>        0.000
     34 H          -2.1153    2.9490   -0.7410 H.spc      1 <1>        0.000
     35 H          -3.0692    0.9030    0.9279 H.spc      1 <1>        0.000
     36 H          -2.5270    0.5954   -0.6990 H.spc      1 <1>        0.000
     37 H          -0.6098   -0.5044    0.0738 H.spc      1 <1>        0.000
     38 H          -1.2916   -0.4276    1.6716 H.spc      1 <1>        0.000
     39 H           2.6773    4.1134    0.7162 H.spc      1 <1>        0.000
     40 H           2.3918    2.8689   -0.5616 H.spc      1 <1>        0.000
     41 H           2.2741    2.5033    2.4523 H.spc      1 <1>        0.000
     42 H           3.4597    1.7844    1.2973 H.spc      1 <1>        0.000
     43 H           7.4280   -1.0384    1.0343 H.spc      1 <1>        0.000
     44 H           5.9181   -0.3280    0.1513 H.spc      1 <1>        0.000
@<TRIPOS>BOND
     1    1    6 1  
     2    1    2 1  
     3    2    3 1  
     4    8   16 1  
     5   16   17 1  
     6   14   15 1  
     7   13   14 1  
     8   12    8 1  
     9   12   13 1  
    10   11   15 1  
    11   11   12 1  
    12   10   17 1  
    13   10   11 1  
    14    9   10 2  
    15    7    9 1  
    16    5    7 2  
    17    5    6 1  
    18    4   18 2  
    19    4    5 1  
    20    3    4 1  
    21    1   19 1  
    22    1   20 1  
    23    2   21 1  
    24    2   22 1  
    25    3   23 1  
    26    3   24 1  
    27    6   25 1  
    28    6   26 1  
    29    7   27 1  
    30    8   28 1  
    31    8   29 1  
    32    9   30 1  
    33   11   31 1  
    34   12   32 1  
    35   13   33 1  
    36   13   34 1  
    37   14   35 1  
    38   14   36 1  
    39   15   37 1  
    40   15   38 1  
    41   16   39 1  
    42   16   40 1  
    43   17   41 1  
    44   17   42 1  
    45   18   43 1  
    46   18   44 1  
# Name:          frag5-534-86/41815 -- energy: -6.888047
# Creation time: Sat Jun  5 12:52:52 2010


@<TRIPOS>MOLECULE
frag5-534-86/41815 -- energy: -6.888047
   44    46     1     1     1
SMALL
USER_CHARGES


@<TRIPOS>ATOM
      1 C1          4.2069   -2.0737    4.3441 C.3        1 <1>        0.000
      2 C2          5.7291   -1.9423    4.5264 C.3        1 <1>        0.000
      3 C3          6.4213   -1.7251    3.1692 C.3        1 <1>        0.000
      4 C4          5.7994   -0.5735    2.4164 C.2        1 <1>        0.000
      5 C5          4.3304   -0.4505    2.4288 C.2        1 <1>        0.000
      6 C6          3.6127   -0.7993    3.7174 C.3        1 <1>        0.000
      7 C7          3.6457   -0.0690    1.3354 C.2        1 <1>        0.000
      8 C23         0.2868    3.6959    0.0938 C.3        1 <1>        0.000
      9 C8          2.1997    0.1144    1.2685 C.2        1 <1>        0.000
     10 C9          1.5594    1.2987    1.2505 C.2        1 <1>        0.000
     11 C10         0.0547    1.4114    1.1868 C.3        1 <1>        0.000
     12 C11        -0.3440    2.2981   -0.0086 C.3        1 <1>        0.000
     13 C12        -1.8780    2.2186    0.0039 C.3        1 <1>        0.000
     14 C13        -2.1406    0.7267    0.3088 C.3        1 <1>        0.000
     15 C14        -0.8366    0.1811    0.9367 C.3        1 <1>        0.000
     16 C24         1.8204    3.5557    0.1291 C.3        1 <1>        0.000
     17 C25         2.2876    2.6288    1.2733 C.3        1 <1>        0.000
     18 C27         6.5730    0.3134    1.7750 C.2        1 <1>        0.000
     19 H           4.0060   -2.9152    3.6810 H.spc      1 <1>        0.000
     20 H           3.7502   -2.2276    5.3218 H.spc      1 <1>        0.000
     21 H           6.1113   -2.8594    4.9747 H.spc      1 <1>        0.000
     22 H           5.9350   -1.0859    5.1686 H.spc      1 <1>        0.000
     23 H           6.3097   -2.6308    2.5731 H.spc      1 <1>        0.000
     24 H           7.4721   -1.4969    3.3475 H.spc      1 <1>        0.000
     25 H           3.7293    0.0259    4.4199 H.spc      1 <1>        0.000
     26 H           2.5593   -0.9730    3.4979 H.spc      1 <1>        0.000
     27 H           4.2172    0.1182    0.4263 H.spc      1 <1>        0.000
     28 H          -0.0068    4.2947   -0.7684 H.spc      1 <1>        0.000
     29 H          -0.0574    4.1877    1.0036 H.spc      1 <1>        0.000
     30 H           1.5849   -0.7848    1.2298 H.spc      1 <1>        0.000
     31 H          -0.1259    1.7508    2.2067 H.spc      1 <1>        0.000
     32 H           0.0321    1.9759   -0.9796 H.spc      1 <1>        0.000
     33 H          -2.3317    2.8875    0.7352 H.spc      1 <1>        0.000
     34 H          -2.3276    2.5457   -0.9336 H.spc      1 <1>        0.000
     35 H          -2.9850    0.6061    0.9875 H.spc      1 <1>        0.000
     36 H          -2.4004    0.1794   -0.5973 H.spc      1 <1>        0.000
     37 H          -0.3478   -0.5352    0.2763 H.spc      1 <1>        0.000
     38 H          -1.0374   -0.3581    1.8625 H.spc      1 <1>        0.000
     39 H           2.2504    4.5439    0.2924 H.spc      1 <1>        0.000
     40 H           2.1460    3.1223   -0.8166 H.spc      1 <1>        0.000
     41 H           2.0746    3.1207    2.2224 H.spc      1 <1>        0.000
     42 H           3.3536    2.4389    1.1479 H.spc      1 <1>        0.000
     43 H           7.6575    0.2056    1.7950 H.spc      1 <1>        0.000
     44 H           6.1177    1.1425    1.2334 H.spc      1 <1>        0.000
@<TRIPOS>BOND
     1    1    6 1  
     2    1    2 1  
     3    2    3 1  
     4    8   16 1  
     5   16   17 1  
     6   14   15 1  
     7   13   14 1  
     8   12    8 1  
     9   12   13 1  
    10   11   15 1  
    11   11   12 1  
    12   10   17 1  
    13   10   11 1  
    14    9   10 2  
    15    7    9 1  
    16    5    7 2  
    17    5    6 1  
    18    4   18 2  
    19    4    5 1  
    20    3    4 1  
    21    1   19 1  
    22    1   20 1  
    23    2   21 1  
    24    2   22 1  
    25    3   23 1  
    26    3   24 1  
    27    6   25 1  
    28    6   26 1  
    29    7   27 1  
    30    8   28 1  
    31    8   29 1  
    32    9   30 1  
    33   11   31 1  
    34   12   32 1  
    35   13   33 1  
    36   13   34 1  
    37   14   35 1  
    38   14   36 1  
    39   15   37 1  
    40   15   38 1  
    41   16   39 1  
    42   16   40 1  
    43   17   41 1  
    44   17   42 1  
    45   18   43 1  
    46   18   44 1  
# Name:          frag5-534-86/41815 -- energy: -8.107049
# Creation time: Sat Jun  5 12:52:52 2010


@<TRIPOS>MOLECULE
frag5-534-86/41815 -- energy: -8.107049
   44    46     1     1     1
SMALL
USER_CHARGES


@<TRIPOS>ATOM
      1 C1          4.4471   -1.6157    1.1051 C.3        1 <1>        0.000
      2 C2          5.7104   -2.1269    1.8171 C.3        1 <1>        0.000
      3 C3          6.3834   -0.9937    2.6098 C.3        1 <1>        0.000
      4 C4          5.4012   -0.3125    3.5319 C.2        1 <1>        0.000
      5 C5          4.0474   -0.0383    3.0206 C.2        1 <1>        0.000
      6 C6          3.4192   -1.0810    2.1169 C.3        1 <1>        0.000
      7 C7          3.3961    1.1014    3.3199 C.2        1 <1>        0.000
      8 C23         0.7588    1.3691   -1.1436 C.3        1 <1>        0.000
      9 C8          2.0472    1.4401    2.8836 C.2        1 <1>        0.000
     10 C9          1.6900    1.7690    1.6260 C.2        1 <1>        0.000
     11 C10         0.2681    2.0990    1.2421 C.3        1 <1>        0.000
     12 C11        -0.1697    1.2023    0.0684 C.3        1 <1>        0.000
     13 C12        -1.6456    1.5811   -0.1186 C.3        1 <1>        0.000
     14 C13        -2.1573    1.6960    1.3336 C.3        1 <1>        0.000
     15 C14        -0.9027    1.8824    2.2169 C.3        1 <1>        0.000
     16 C24         2.1961    1.0006   -0.7346 C.3        1 <1>        0.000
     17 C25         2.6797    1.8252    0.4778 C.3        1 <1>        0.000
     18 C27         5.7584    0.0110    4.7825 C.2        1 <1>        0.000
     19 H           4.7293   -0.8052    0.4331 H.spc      1 <1>        0.000
     20 H           3.9977   -2.4427    0.5554 H.spc      1 <1>        0.000
     21 H           6.4109   -2.4980    1.0690 H.spc      1 <1>        0.000
     22 H           5.4285   -2.9213    2.5082 H.spc      1 <1>        0.000
     23 H           6.7665   -0.2563    1.9044 H.spc      1 <1>        0.000
     24 H           7.1864   -1.4198    3.2112 H.spc      1 <1>        0.000
     25 H           3.0644   -1.9098    2.7295 H.spc      1 <1>        0.000
     26 H           2.5940   -0.6229    1.5716 H.spc      1 <1>        0.000
     27 H           3.9200    1.8299    3.9387 H.spc      1 <1>        0.000
     28 H           0.4287    0.7143   -1.9501 H.spc      1 <1>        0.000
     29 H           0.7299    2.4032   -1.4869 H.spc      1 <1>        0.000
     30 H           1.2607    1.4263    3.6381 H.spc      1 <1>        0.000
     31 H           0.3856    3.1731    1.0984 H.spc      1 <1>        0.000
     32 H          -0.0865    0.1290    0.2391 H.spc      1 <1>        0.000
     33 H          -1.7782    2.5007   -0.6886 H.spc      1 <1>        0.000
     34 H          -2.1997    0.8494   -0.7065 H.spc      1 <1>        0.000
     35 H          -2.8446    2.5348    1.4437 H.spc      1 <1>        0.000
     36 H          -2.7160    0.8068    1.6258 H.spc      1 <1>        0.000
     37 H          -0.7333    1.0138    2.8533 H.spc      1 <1>        0.000
     38 H          -1.0167    2.7290    2.8939 H.spc      1 <1>        0.000
     39 H           2.8556    1.2120   -1.5763 H.spc      1 <1>        0.000
     40 H           2.2131   -0.0539   -0.4591 H.spc      1 <1>        0.000
     41 H           2.7851    2.8643    0.1661 H.spc      1 <1>        0.000
     42 H           3.6269    1.4086    0.8204 H.spc      1 <1>        0.000
     43 H           6.7628   -0.2176    5.1388 H.spc      1 <1>        0.000
     44 H           5.0445    0.5027    5.4433 H.spc      1 <1>        0.000
@<TRIPOS>BOND
     1    1    6 1  
     2    1    2 1  
     3    2    3 1  
     4    8   16 1  
     5   16   17 1  
     6   14   15 1  
     7   13   14 1  
     8   12    8 1  
     9   12   13 1  
    10   11   15 1  
    11   11   12 1  
    12   10   17 1  
    13   10   11 1  
    14    9   10 2  
    15    7    9 1  
    16    5    7 2  
    17    5    6 1  
    18    4   18 2  
    19    4    5 1  
    20    3    4 1  
    21    1   19 1  
    22    1   20 1  
    23    2   21 1  
    24    2   22 1  
    25    3   23 1  
    26    3   24 1  
    27    6   25 1  
    28    6   26 1  
    29    7   27 1  
    30    8   28 1  
    31    8   29 1  
    32    9   30 1  
    33   11   31 1  
    34   12   32 1  
    35   13   33 1  
    36   13   34 1  
    37   14   35 1  
    38   14   36 1  
    39   15   37 1  
    40   15   38 1  
    41   16   39 1  
    42   16   40 1  
    43   17   41 1  
    44   17   42 1  
    45   18   43 1  
    46   18   44 1  
