#      Rotatable Fragment
#      Build by yxyuan
#
# Name:          frag4-462-37/48856
# Creation time: Sat Jun  5 12:52:48 2010


@<TRIPOS>MOLECULE
frag4-462-37/48856
    7     7     1     1     1
SMALL
USER_CHARGES


@<TRIPOS>ATOM
      1 N1         -1.0724    0.4517   -0.0204 N.ar       1 <1>        0.000
      2 N2         -0.0846    1.3707   -0.3435 N.ar       1 <1>        0.000
      3 C1          1.0321    0.7145   -0.2618 C.ar       1 <1>        0.000
      4 N3          0.6929   -0.6137    0.0825 N.ar       1 <1>        0.000
      5 C2         -0.6581   -0.7080    0.2211 C.ar       1 <1>        0.000
      6 H           2.0344    1.1099   -0.4263 H.spc      1 <1>        0.000
      7 H          -1.2452   -1.5886    0.4819 H.spc      1 <1>        0.000
@<TRIPOS>BOND
     1    1    2 ar 
     2    1    5 ar 
     3    2    3 ar 
     4    3    4 ar 
     5    4    5 ar 
     6    3    6 1  
     7    5    7 1  
# Name:          frag4-462-37/48856 -- energy: -0.087107
# Creation time: Sat Jun  5 12:52:48 2010


@<TRIPOS>MOLECULE
frag4-462-37/48856 -- energy: -0.087107
    7     7     1     1     1
SMALL
USER_CHARGES


@<TRIPOS>ATOM
      1 N1         -1.0724    0.4517   -0.0204 N.ar       1 <1>        0.000
      2 N2         -0.0846    1.3707   -0.3435 N.ar       1 <1>        0.000
      3 C1          1.0321    0.7145   -0.2618 C.ar       1 <1>        0.000
      4 N3          0.6929   -0.6137    0.0825 N.ar       1 <1>        0.000
      5 C2         -0.6581   -0.7080    0.2211 C.ar       1 <1>        0.000
      6 H           2.0344    1.1099   -0.4263 H.spc      1 <1>        0.000
      7 H          -1.2452   -1.5886    0.4819 H.spc      1 <1>        0.000
@<TRIPOS>BOND
     1    1    2 ar 
     2    1    5 ar 
     3    2    3 ar 
     4    3    4 ar 
     5    4    5 ar 
     6    3    6 1  
     7    5    7 1  
