#      Rotatable Fragment
#      Build by yxyuan
#
# Name:          frag4-320-274/48856
# Creation time: Sat Jun  5 12:53:51 2010


@<TRIPOS>MOLECULE
frag4-320-274/48856
   14    14     1     1     1
SMALL
USER_CHARGES


@<TRIPOS>ATOM
      1 N1          3.4444    0.9941    0.1836 N.3        1 <1>        0.000
      2 C1          4.4951    1.5315    0.9880 C.3        1 <1>        0.000
      3 C2          3.9959    2.9289    1.3298 C.3        1 <1>        0.000
      4 C3          2.8802    3.3097    0.3870 C.3        1 <1>        0.000
      5 C4          2.4420    1.9531    0.0017 C.3        1 <1>        0.000
      6 H           3.0477    0.1788    0.6509 H.spc      1 <1>        0.000
      7 H           5.4546    1.5438    0.4710 H.spc      1 <1>        0.000
      8 H           4.6948    0.9291    1.8742 H.spc      1 <1>        0.000
      9 H           4.8147    3.6415    1.2302 H.spc      1 <1>        0.000
     10 H           3.6254    2.9416    2.3548 H.spc      1 <1>        0.000
     11 H           3.1739    3.9541   -0.4416 H.spc      1 <1>        0.000
     12 H           2.1043    3.9416    0.8192 H.spc      1 <1>        0.000
     13 H           1.5971    1.6804    0.6341 H.spc      1 <1>        0.000
     14 H           2.1825    1.9716   -1.0568 H.spc      1 <1>        0.000
@<TRIPOS>BOND
     1    1    2 1  
     2    1    5 1  
     3    2    3 1  
     4    3    4 1  
     5    4    5 1  
     6    1    6 1  
     7    2    7 1  
     8    2    8 1  
     9    3    9 1  
    10    3   10 1  
    11    4   11 1  
    12    4   12 1  
    13    5   13 1  
    14    5   14 1  
# Name:          frag4-320-274/48856 -- energy: -0.822330
# Creation time: Sat Jun  5 12:53:51 2010


@<TRIPOS>MOLECULE
frag4-320-274/48856 -- energy: -0.822330
   14    14     1     1     1
SMALL
USER_CHARGES


@<TRIPOS>ATOM
      1 N1          3.4444    0.9941    0.1836 N.3        1 <1>        0.000
      2 C1          4.4951    1.5315    0.9880 C.3        1 <1>        0.000
      3 C2          3.9959    2.9289    1.3298 C.3        1 <1>        0.000
      4 C3          2.8802    3.3097    0.3870 C.3        1 <1>        0.000
      5 C4          2.4420    1.9531    0.0017 C.3        1 <1>        0.000
      6 H           3.0477    0.1788    0.6509 H.spc      1 <1>        0.000
      7 H           5.4546    1.5438    0.4710 H.spc      1 <1>        0.000
      8 H           4.6948    0.9291    1.8742 H.spc      1 <1>        0.000
      9 H           4.8147    3.6415    1.2302 H.spc      1 <1>        0.000
     10 H           3.6254    2.9416    2.3548 H.spc      1 <1>        0.000
     11 H           3.1739    3.9541   -0.4416 H.spc      1 <1>        0.000
     12 H           2.1043    3.9416    0.8192 H.spc      1 <1>        0.000
     13 H           1.5971    1.6804    0.6341 H.spc      1 <1>        0.000
     14 H           2.1825    1.9716   -1.0568 H.spc      1 <1>        0.000
@<TRIPOS>BOND
     1    1    2 1  
     2    1    5 1  
     3    2    3 1  
     4    3    4 1  
     5    4    5 1  
     6    1    6 1  
     7    2    7 1  
     8    2    8 1  
     9    3    9 1  
    10    3   10 1  
    11    4   11 1  
    12    4   12 1  
    13    5   13 1  
    14    5   14 1  
