#      Rotatable Fragment
#      Build by yxyuan
#
# Name:          frag4-421-50/48856
# Creation time: Sat Jun  5 12:52:06 2010


@<TRIPOS>MOLECULE
frag4-421-50/48856
   18    19     1     1     1
SMALL
USER_CHARGES


@<TRIPOS>ATOM
      1 N2          2.5039    0.2159   -0.0633 N.3        1 <1>        0.000
      2 C6          1.7565   -0.9768   -0.0448 C.3        1 <1>        0.000
      3 C7          0.3313   -0.6749   -0.0084 C.ar       1 <1>        0.000
      4 C8          0.2112    0.7214   -0.0037 C.ar       1 <1>        0.000
      5 C9         -1.0245    1.3333    0.0269 C.ar       1 <1>        0.000
      6 C10        -2.1702    0.5200    0.0566 C.ar       1 <1>        0.000
      7 C11        -2.0493   -0.8842    0.0496 C.ar       1 <1>        0.000
      8 C12        -0.7819   -1.4883    0.0176 C.ar       1 <1>        0.000
      9 C13         1.5638    1.2627   -0.0372 C.3        1 <1>        0.000
     10 H           3.0938    0.2695   -0.8937 H.spc      1 <1>        0.000
     11 H           2.0229   -1.5519    0.8420 H.spc      1 <1>        0.000
     12 H           1.9774   -1.5511   -0.9445 H.spc      1 <1>        0.000
     13 H          -1.1102    2.4199    0.0280 H.spc      1 <1>        0.000
     14 H          -3.1588    0.9782    0.0852 H.spc      1 <1>        0.000
     15 H          -2.9450   -1.5051    0.0691 H.spc      1 <1>        0.000
     16 H          -0.6806   -2.5736    0.0134 H.spc      1 <1>        0.000
     17 H           1.6827    1.8723   -0.9329 H.spc      1 <1>        0.000
     18 H           1.7284    1.8688    0.8537 H.spc      1 <1>        0.000
@<TRIPOS>BOND
     1    6    7 ar 
     2    7    8 ar 
     3    1    2 1  
     4    2    3 1  
     5    1    9 1  
     6    3    4 ar 
     7    3    8 ar 
     8    4    5 ar 
     9    4    9 1  
    10    5    6 ar 
    11    1   10 1  
    12    2   11 1  
    13    2   12 1  
    14    5   13 1  
    15    6   14 1  
    16    7   15 1  
    17    8   16 1  
    18    9   17 1  
    19    9   18 1  
# Name:          frag4-421-50/48856 -- energy: -0.929307
# Creation time: Sat Jun  5 12:52:06 2010


@<TRIPOS>MOLECULE
frag4-421-50/48856 -- energy: -0.929307
   18    19     1     1     1
SMALL
USER_CHARGES


@<TRIPOS>ATOM
      1 N2          2.5039    0.2159   -0.0633 N.3        1 <1>        0.000
      2 C6          1.7565   -0.9768   -0.0448 C.3        1 <1>        0.000
      3 C7          0.3313   -0.6749   -0.0084 C.ar       1 <1>        0.000
      4 C8          0.2112    0.7214   -0.0037 C.ar       1 <1>        0.000
      5 C9         -1.0245    1.3333    0.0269 C.ar       1 <1>        0.000
      6 C10        -2.1702    0.5200    0.0566 C.ar       1 <1>        0.000
      7 C11        -2.0493   -0.8842    0.0496 C.ar       1 <1>        0.000
      8 C12        -0.7819   -1.4883    0.0176 C.ar       1 <1>        0.000
      9 C13         1.5638    1.2627   -0.0372 C.3        1 <1>        0.000
     10 H           3.0938    0.2695   -0.8937 H.spc      1 <1>        0.000
     11 H           2.0229   -1.5519    0.8420 H.spc      1 <1>        0.000
     12 H           1.9774   -1.5511   -0.9445 H.spc      1 <1>        0.000
     13 H          -1.1102    2.4199    0.0280 H.spc      1 <1>        0.000
     14 H          -3.1588    0.9782    0.0852 H.spc      1 <1>        0.000
     15 H          -2.9450   -1.5051    0.0691 H.spc      1 <1>        0.000
     16 H          -0.6806   -2.5736    0.0134 H.spc      1 <1>        0.000
     17 H           1.6827    1.8723   -0.9329 H.spc      1 <1>        0.000
     18 H           1.7284    1.8688    0.8537 H.spc      1 <1>        0.000
@<TRIPOS>BOND
     1    6    7 ar 
     2    7    8 ar 
     3    1    2 1  
     4    2    3 1  
     5    1    9 1  
     6    3    4 ar 
     7    3    8 ar 
     8    4    5 ar 
     9    4    9 1  
    10    5    6 ar 
    11    1   10 1  
    12    2   11 1  
    13    2   12 1  
    14    5   13 1  
    15    6   14 1  
    16    7   15 1  
    17    8   16 1  
    18    9   17 1  
    19    9   18 1  
