#      Rotatable Fragment
#      Build by yxyuan
#
# Name:          frag4-309-406/48856
# Creation time: Sat Jun  5 12:52:47 2010


@<TRIPOS>MOLECULE
frag4-309-406/48856
   10    10     1     1     1
SMALL
USER_CHARGES


@<TRIPOS>ATOM
      1 N1         -0.5996    1.2336    0.1320 N.ar       1 <1>        0.000
      2 C1          0.8052    1.0613    0.1573 C.ar       1 <1>        0.000
      3 C2          1.3481   -0.1691    0.0183 C.ar       1 <1>        0.000
      4 C3          0.4567   -1.2664   -0.1488 C.ar       1 <1>        0.000
      5 N2         -0.8004   -1.1023   -0.1566 N.ar       1 <1>        0.000
      6 C4         -1.2860    0.1693   -0.0123 C.ar       1 <1>        0.000
      7 H           1.4541    1.9270    0.2898 H.spc      1 <1>        0.000
      8 H           2.4281   -0.3154    0.0336 H.spc      1 <1>        0.000
      9 H           0.8640   -2.2698   -0.2728 H.spc      1 <1>        0.000
     10 H          -2.3700    0.2834   -0.0217 H.spc      1 <1>        0.000
@<TRIPOS>BOND
     1    1    6 ar 
     2    1    2 ar 
     3    2    3 ar 
     4    3    4 ar 
     5    4    5 ar 
     6    5    6 ar 
     7    2    7 1  
     8    3    8 1  
     9    4    9 1  
    10    6   10 1  
# Name:          frag4-309-406/48856 -- energy: 0.520852
# Creation time: Sat Jun  5 12:52:47 2010


@<TRIPOS>MOLECULE
frag4-309-406/48856 -- energy: 0.520852
   10    10     1     1     1
SMALL
USER_CHARGES


@<TRIPOS>ATOM
      1 N1         -0.5996    1.2336    0.1320 N.ar       1 <1>        0.000
      2 C1          0.8052    1.0613    0.1573 C.ar       1 <1>        0.000
      3 C2          1.3481   -0.1691    0.0183 C.ar       1 <1>        0.000
      4 C3          0.4567   -1.2664   -0.1488 C.ar       1 <1>        0.000
      5 N2         -0.8004   -1.1023   -0.1566 N.ar       1 <1>        0.000
      6 C4         -1.2860    0.1693   -0.0123 C.ar       1 <1>        0.000
      7 H           1.4541    1.9270    0.2898 H.spc      1 <1>        0.000
      8 H           2.4281   -0.3154    0.0336 H.spc      1 <1>        0.000
      9 H           0.8640   -2.2698   -0.2728 H.spc      1 <1>        0.000
     10 H          -2.3700    0.2834   -0.0217 H.spc      1 <1>        0.000
@<TRIPOS>BOND
     1    1    6 ar 
     2    1    2 ar 
     3    2    3 ar 
     4    3    4 ar 
     5    4    5 ar 
     6    5    6 ar 
     7    2    7 1  
     8    3    8 1  
     9    4    9 1  
    10    6   10 1  
