#      Rotatable Fragment
#      Build by yxyuan
#
# Name:          frag5-621-32/41815
# Creation time: Sat Jun  5 12:52:59 2010


@<TRIPOS>MOLECULE
frag5-621-32/41815
   20    21     1     1     1
SMALL
USER_CHARGES


@<TRIPOS>ATOM
      1 N1         -1.2348    2.5591   -0.2129 N.pl3      1 <1>        0.000
      2 C6         -1.0166    1.1305   -0.0993 C.ar       1 <1>        0.000
      3 C7          0.2839    0.6213   -0.0254 C.ar       1 <1>        0.000
      4 N2          1.3333    1.4771   -0.0612 N.ar       1 <1>        0.000
      5 C8          2.6134    1.0486    0.0059 C.ar       1 <1>        0.000
      6 C9          2.8828   -0.3077    0.1154 C.ar       1 <1>        0.000
      7 C10         1.8253   -1.2188    0.1554 C.ar       1 <1>        0.000
      8 C11         0.5040   -0.7397    0.0833 C.ar       1 <1>        0.000
      9 C12        -0.5910   -1.6301    0.1205 C.ar       1 <1>        0.000
     10 C13        -1.9051   -1.1311    0.0456 C.ar       1 <1>        0.000
     11 C14        -2.1045    0.2419   -0.0620 C.ar       1 <1>        0.000
     12 O3         -2.9941   -1.9873    0.0773 O.3        1 <1>        0.000
     13 H          -0.4386    3.1961   -0.2391 H.spc      1 <1>        0.000
     14 H          -2.1845    2.9273   -0.2666 H.spc      1 <1>        0.000
     15 H           3.4323    1.7673   -0.0260 H.spc      1 <1>        0.000
     16 H           3.9129   -0.6599    0.1698 H.spc      1 <1>        0.000
     17 H           2.0208   -2.2877    0.2414 H.spc      1 <1>        0.000
     18 H          -0.4190   -2.7030    0.2071 H.spc      1 <1>        0.000
     19 H          -3.1200    0.6340   -0.1182 H.spc      1 <1>        0.000
     20 H          -3.8040   -1.4755    0.0161 H.spc      1 <1>        0.000
@<TRIPOS>BOND
     1    6    7 ar 
     2    4    5 ar 
     3    9   10 ar 
     4    3    8 ar 
     5    8    9 ar 
     6   10   12 1  
     7    5    6 ar 
     8    3    4 ar 
     9    7    8 ar 
    10    1    2 1  
    11    2    3 ar 
    12    2   11 ar 
    13   10   11 ar 
    14    1   13 1  
    15    1   14 1  
    16    5   15 1  
    17    6   16 1  
    18    7   17 1  
    19    9   18 1  
    20   11   19 1  
    21   12   20 1  
# Name:          frag5-621-32/41815 -- energy: -0.585997
# Creation time: Sat Jun  5 12:52:59 2010


@<TRIPOS>MOLECULE
frag5-621-32/41815 -- energy: -0.585997
   20    21     1     1     1
SMALL
USER_CHARGES


@<TRIPOS>ATOM
      1 N1         -1.2348    2.5591   -0.2129 N.pl3      1 <1>        0.000
      2 C6         -1.0166    1.1305   -0.0993 C.ar       1 <1>        0.000
      3 C7          0.2839    0.6213   -0.0254 C.ar       1 <1>        0.000
      4 N2          1.3333    1.4771   -0.0612 N.ar       1 <1>        0.000
      5 C8          2.6134    1.0486    0.0059 C.ar       1 <1>        0.000
      6 C9          2.8828   -0.3077    0.1154 C.ar       1 <1>        0.000
      7 C10         1.8253   -1.2188    0.1554 C.ar       1 <1>        0.000
      8 C11         0.5040   -0.7397    0.0833 C.ar       1 <1>        0.000
      9 C12        -0.5910   -1.6301    0.1205 C.ar       1 <1>        0.000
     10 C13        -1.9051   -1.1311    0.0456 C.ar       1 <1>        0.000
     11 C14        -2.1045    0.2419   -0.0620 C.ar       1 <1>        0.000
     12 O3         -2.9941   -1.9873    0.0773 O.3        1 <1>        0.000
     13 H          -0.4386    3.1961   -0.2391 H.spc      1 <1>        0.000
     14 H          -2.1845    2.9273   -0.2666 H.spc      1 <1>        0.000
     15 H           3.4323    1.7673   -0.0260 H.spc      1 <1>        0.000
     16 H           3.9129   -0.6599    0.1698 H.spc      1 <1>        0.000
     17 H           2.0208   -2.2877    0.2414 H.spc      1 <1>        0.000
     18 H          -0.4190   -2.7030    0.2071 H.spc      1 <1>        0.000
     19 H          -3.1200    0.6340   -0.1182 H.spc      1 <1>        0.000
     20 H          -3.8040   -1.4755    0.0161 H.spc      1 <1>        0.000
@<TRIPOS>BOND
     1    6    7 ar 
     2    4    5 ar 
     3    9   10 ar 
     4    3    8 ar 
     5    8    9 ar 
     6   10   12 1  
     7    5    6 ar 
     8    3    4 ar 
     9    7    8 ar 
    10    1    2 1  
    11    2    3 ar 
    12    2   11 ar 
    13   10   11 ar 
    14    1   13 1  
    15    1   14 1  
    16    5   15 1  
    17    6   16 1  
    18    7   17 1  
    19    9   18 1  
    20   11   19 1  
    21   12   20 1  
