#      Rotatable Fragment
#      Build by yxyuan
#
# Name:          frag4-351-122/48856
# Creation time: Sat Jun  5 12:53:06 2010


@<TRIPOS>MOLECULE
frag4-351-122/48856
   18    18     1     1     1
SMALL
USER_CHARGES


@<TRIPOS>ATOM
      1 C1          4.2243   -2.4268    1.9295 C.3        1 <1>        0.000
      2 C2          5.6173   -2.6314    2.4365 C.3        1 <1>        0.000
      3 C3          6.4350   -1.3509    2.3832 C.3        1 <1>        0.000
      4 C4          5.7206   -0.1085    2.9242 C.3        1 <1>        0.000
      5 C5          4.2037   -0.1623    3.1487 C.3        1 <1>        0.000
      6 C6          3.4455   -1.4441    2.7892 C.3        1 <1>        0.000
      7 H           3.7076   -3.3862    1.9544 H.spc      1 <1>        0.000
      8 H           4.2847   -2.0229    0.9189 H.spc      1 <1>        0.000
      9 H           6.1047   -3.3742    1.8051 H.spc      1 <1>        0.000
     10 H           5.5582   -2.9557    3.4755 H.spc      1 <1>        0.000
     11 H           6.6525   -1.1582    1.3327 H.spc      1 <1>        0.000
     12 H           7.3121   -1.5095    3.0106 H.spc      1 <1>        0.000
     13 H           5.8646    0.6541    2.1588 H.spc      1 <1>        0.000
     14 H           6.1459    0.0511    3.9150 H.spc      1 <1>        0.000
     15 H           4.0748   -0.0521    4.2254 H.spc      1 <1>        0.000
     16 H           3.7944    0.6013    2.4872 H.spc      1 <1>        0.000
     17 H           2.5713   -1.1429    2.2120 H.spc      1 <1>        0.000
     18 H           3.2219   -1.9527    3.7270 H.spc      1 <1>        0.000
@<TRIPOS>BOND
     1    5    6 1  
     2    1    2 1  
     3    1    6 1  
     4    2    3 1  
     5    3    4 1  
     6    4    5 1  
     7    1    7 1  
     8    1    8 1  
     9    2    9 1  
    10    2   10 1  
    11    3   11 1  
    12    3   12 1  
    13    4   13 1  
    14    4   14 1  
    15    5   15 1  
    16    5   16 1  
    17    6   17 1  
    18    6   18 1  
# Name:          frag4-351-122/48856 -- energy: -1.390566
# Creation time: Sat Jun  5 12:53:06 2010


@<TRIPOS>MOLECULE
frag4-351-122/48856 -- energy: -1.390566
   18    18     1     1     1
SMALL
USER_CHARGES


@<TRIPOS>ATOM
      1 C1          4.2243   -2.4268    1.9295 C.3        1 <1>        0.000
      2 C2          5.6173   -2.6314    2.4365 C.3        1 <1>        0.000
      3 C3          6.4350   -1.3509    2.3832 C.3        1 <1>        0.000
      4 C4          5.7206   -0.1085    2.9242 C.3        1 <1>        0.000
      5 C5          4.2037   -0.1623    3.1487 C.3        1 <1>        0.000
      6 C6          3.4455   -1.4441    2.7892 C.3        1 <1>        0.000
      7 H           3.7076   -3.3862    1.9544 H.spc      1 <1>        0.000
      8 H           4.2847   -2.0229    0.9189 H.spc      1 <1>        0.000
      9 H           6.1047   -3.3742    1.8051 H.spc      1 <1>        0.000
     10 H           5.5582   -2.9557    3.4755 H.spc      1 <1>        0.000
     11 H           6.6525   -1.1582    1.3327 H.spc      1 <1>        0.000
     12 H           7.3121   -1.5095    3.0106 H.spc      1 <1>        0.000
     13 H           5.8646    0.6541    2.1588 H.spc      1 <1>        0.000
     14 H           6.1459    0.0511    3.9150 H.spc      1 <1>        0.000
     15 H           4.0748   -0.0521    4.2254 H.spc      1 <1>        0.000
     16 H           3.7944    0.6013    2.4872 H.spc      1 <1>        0.000
     17 H           2.5713   -1.1429    2.2120 H.spc      1 <1>        0.000
     18 H           3.2219   -1.9527    3.7270 H.spc      1 <1>        0.000
@<TRIPOS>BOND
     1    5    6 1  
     2    1    2 1  
     3    1    6 1  
     4    2    3 1  
     5    3    4 1  
     6    4    5 1  
     7    1    7 1  
     8    1    8 1  
     9    2    9 1  
    10    2   10 1  
    11    3   11 1  
    12    3   12 1  
    13    4   13 1  
    14    4   14 1  
    15    5   15 1  
    16    5   16 1  
    17    6   17 1  
    18    6   18 1  
