#      Rotatable Fragment
#      Build by yxyuan
#
# Name:          frag4-482-33/48856
# Creation time: Sat Jun  5 12:52:49 2010


@<TRIPOS>MOLECULE
frag4-482-33/48856
   15    16     1     1     1
SMALL
USER_CHARGES


@<TRIPOS>ATOM
      1 C13         0.6632    2.9453   -2.4207 C.3        1 <1>        0.000
      2 C14        -0.0851    4.2450   -2.0401 C.3        1 <1>        0.000
      3 O4         -0.5050    4.2188   -0.6990 O.3        1 <1>        0.000
      4 C15         0.5037    5.1721   -0.8934 C.3        1 <1>        0.000
      5 C16         1.8509    4.7733   -0.3714 C.3        1 <1>        0.000
      6 C17         2.5134    3.5406   -0.8209 C.2        1 <1>        0.000
      7 C18         1.9861    2.7155   -1.7323 C.2        1 <1>        0.000
      8 H           0.8821    3.0198   -3.4859 H.spc      1 <1>        0.000
      9 H           0.0158    2.1212   -2.1209 H.spc      1 <1>        0.000
     10 H          -0.4737    4.4371   -3.0402 H.spc      1 <1>        0.000
     11 H           0.6377    6.2413   -0.7291 H.spc      1 <1>        0.000
     12 H           1.6789    4.6040    0.6916 H.spc      1 <1>        0.000
     13 H           2.5113    5.5667   -0.7214 H.spc      1 <1>        0.000
     14 H           3.4820    3.2863   -0.3904 H.spc      1 <1>        0.000
     15 H           2.5484    1.8193   -1.9946 H.spc      1 <1>        0.000
@<TRIPOS>BOND
     1    1    2 1  
     2    1    7 1  
     3    2    3 1  
     4    2    4 1  
     5    3    4 1  
     6    4    5 1  
     7    5    6 1  
     8    6    7 2  
     9    1    8 1  
    10    1    9 1  
    11    2   10 1  
    12    4   11 1  
    13    5   12 1  
    14    5   13 1  
    15    6   14 1  
    16    7   15 1  
# Name:          frag4-482-33/48856 -- energy: -0.773964
# Creation time: Sat Jun  5 12:52:49 2010


@<TRIPOS>MOLECULE
frag4-482-33/48856 -- energy: -0.773964
   15    16     1     1     1
SMALL
USER_CHARGES


@<TRIPOS>ATOM
      1 C13         0.6632    2.9453   -2.4207 C.3        1 <1>        0.000
      2 C14        -0.0851    4.2450   -2.0401 C.3        1 <1>        0.000
      3 O4         -0.5050    4.2188   -0.6990 O.3        1 <1>        0.000
      4 C15         0.5037    5.1721   -0.8934 C.3        1 <1>        0.000
      5 C16         1.8509    4.7733   -0.3714 C.3        1 <1>        0.000
      6 C17         2.5134    3.5406   -0.8209 C.2        1 <1>        0.000
      7 C18         1.9861    2.7155   -1.7323 C.2        1 <1>        0.000
      8 H           0.8821    3.0198   -3.4859 H.spc      1 <1>        0.000
      9 H           0.0158    2.1212   -2.1209 H.spc      1 <1>        0.000
     10 H          -0.4737    4.4371   -3.0402 H.spc      1 <1>        0.000
     11 H           0.6377    6.2413   -0.7291 H.spc      1 <1>        0.000
     12 H           1.6789    4.6040    0.6916 H.spc      1 <1>        0.000
     13 H           2.5113    5.5667   -0.7214 H.spc      1 <1>        0.000
     14 H           3.4820    3.2863   -0.3904 H.spc      1 <1>        0.000
     15 H           2.5484    1.8193   -1.9946 H.spc      1 <1>        0.000
@<TRIPOS>BOND
     1    1    2 1  
     2    1    7 1  
     3    2    3 1  
     4    2    4 1  
     5    3    4 1  
     6    4    5 1  
     7    5    6 1  
     8    6    7 2  
     9    1    8 1  
    10    1    9 1  
    11    2   10 1  
    12    4   11 1  
    13    5   12 1  
    14    5   13 1  
    15    6   14 1  
    16    7   15 1  
