#      Rotatable Fragment
#      Build by yxyuan
#
# Name:          frag3-230-3/31924
# Creation time: Sat Jun  5 12:52:24 2010


@<TRIPOS>MOLECULE
frag3-230-3/31924
    7     6     1     1     1
SMALL
USER_CHARGES


@<TRIPOS>ATOM
      1 N2          0.7677   -2.3067   -4.0485 N.am       1 <1>        0.000
      2 S1         -0.7600   -1.8529   -4.4787 S.o2       1 <1>        0.000
      3 O5         -0.7842   -0.8849   -5.5300 O.2        1 <1>        0.000
      4 O6         -1.7208   -2.8988   -4.3157 O.2        1 <1>        0.000
      5 H           1.5734   -1.9001   -4.5238 H.spc      1 <1>        0.000
      6 H           0.9060   -2.9937   -3.3074 H.spc      1 <1>        0.000
      7 H          -1.3394   -1.0460   -3.5943 H.spc      1 <1>        0.000
@<TRIPOS>BOND
     1    1    2 1  
     2    2    3 2  
     3    2    4 2  
     4    1    5 1  
     5    1    6 1  
     6    2    7 1  
# Name:          frag3-230-3/31924 -- energy: -0.113758
# Creation time: Sat Jun  5 12:52:24 2010


@<TRIPOS>MOLECULE
frag3-230-3/31924 -- energy: -0.113758
    7     6     1     1     1
SMALL
USER_CHARGES


@<TRIPOS>ATOM
      1 N2          0.7677   -2.3067   -4.0485 N.am       1 <1>        0.000
      2 S1         -0.7600   -1.8529   -4.4787 S.o2       1 <1>        0.000
      3 O5         -0.7842   -0.8849   -5.5300 O.2        1 <1>        0.000
      4 O6         -1.7208   -2.8988   -4.3157 O.2        1 <1>        0.000
      5 H           1.5734   -1.9001   -4.5238 H.spc      1 <1>        0.000
      6 H           0.9060   -2.9937   -3.3074 H.spc      1 <1>        0.000
      7 H          -1.3394   -1.0460   -3.5943 H.spc      1 <1>        0.000
@<TRIPOS>BOND
     1    1    2 1  
     2    2    3 2  
     3    2    4 2  
     4    1    5 1  
     5    1    6 1  
     6    2    7 1  
