#      Rotatable Fragment
#      Build by yxyuan
#
# Name:          frag2-044-180/319335
# Creation time: Sat Jun  5 12:53:36 2010


@<TRIPOS>MOLECULE
frag2-044-180/319335
   16    17     1     1     1
SMALL
USER_CHARGES


@<TRIPOS>ATOM
      1 C4          2.5686    0.4530    0.2146 C.ar       1 <1>        0.000
      2 N2          1.4649    1.2312    0.1670 N.ar       1 <1>        0.000
      3 C7          2.4423   -0.9209    0.1416 C.ar       1 <1>        0.000
      4 C11         0.2346    0.6822    0.0487 C.ar       1 <1>        0.000
      5 N3          1.2226   -1.4770    0.0208 N.ar       1 <1>        0.000
      6 C18         0.1111   -0.7100   -0.0261 C.ar       1 <1>        0.000
      7 C19        -0.9100    1.4830    0.0010 C.ar       1 <1>        0.000
      8 C20        -1.1551   -1.2875   -0.1482 C.ar       1 <1>        0.000
      9 C21        -2.1694    0.8999   -0.1208 C.ar       1 <1>        0.000
     10 C22        -2.2903   -0.4864   -0.1953 C.ar       1 <1>        0.000
     11 H           3.5547    0.9074    0.3102 H.spc      1 <1>        0.000
     12 H           3.3291   -1.5535    0.1818 H.spc      1 <1>        0.000
     13 H          -0.8169    2.5675    0.0593 H.spc      1 <1>        0.000
     14 H          -1.2534   -2.3715   -0.2068 H.spc      1 <1>        0.000
     15 H          -3.0597    1.5277   -0.1578 H.spc      1 <1>        0.000
     16 H          -3.2755   -0.9429   -0.2906 H.spc      1 <1>        0.000
@<TRIPOS>BOND
     1    8   10 ar 
     2    9   10 ar 
     3    1    2 ar 
     4    2    4 ar 
     5    1    3 ar 
     6    3    5 ar 
     7    4    6 ar 
     8    4    7 ar 
     9    5    6 ar 
    10    6    8 ar 
    11    7    9 ar 
    12    1   11 1  
    13    3   12 1  
    14    7   13 1  
    15    8   14 1  
    16    9   15 1  
    17   10   16 1  
# Name:          frag2-044-180/319335 -- energy: 0.195596
# Creation time: Sat Jun  5 12:53:36 2010


@<TRIPOS>MOLECULE
frag2-044-180/319335 -- energy: 0.195596
   16    17     1     1     1
SMALL
USER_CHARGES


@<TRIPOS>ATOM
      1 C4          2.5686    0.4530    0.2146 C.ar       1 <1>        0.000
      2 N2          1.4649    1.2312    0.1670 N.ar       1 <1>        0.000
      3 C7          2.4423   -0.9209    0.1416 C.ar       1 <1>        0.000
      4 C11         0.2346    0.6822    0.0487 C.ar       1 <1>        0.000
      5 N3          1.2226   -1.4770    0.0208 N.ar       1 <1>        0.000
      6 C18         0.1111   -0.7100   -0.0261 C.ar       1 <1>        0.000
      7 C19        -0.9100    1.4830    0.0010 C.ar       1 <1>        0.000
      8 C20        -1.1551   -1.2875   -0.1482 C.ar       1 <1>        0.000
      9 C21        -2.1694    0.8999   -0.1208 C.ar       1 <1>        0.000
     10 C22        -2.2903   -0.4864   -0.1953 C.ar       1 <1>        0.000
     11 H           3.5547    0.9074    0.3102 H.spc      1 <1>        0.000
     12 H           3.3291   -1.5535    0.1818 H.spc      1 <1>        0.000
     13 H          -0.8169    2.5675    0.0593 H.spc      1 <1>        0.000
     14 H          -1.2534   -2.3715   -0.2068 H.spc      1 <1>        0.000
     15 H          -3.0597    1.5277   -0.1578 H.spc      1 <1>        0.000
     16 H          -3.2755   -0.9429   -0.2906 H.spc      1 <1>        0.000
@<TRIPOS>BOND
     1    8   10 ar 
     2    9   10 ar 
     3    1    2 ar 
     4    2    4 ar 
     5    1    3 ar 
     6    3    5 ar 
     7    4    6 ar 
     8    4    7 ar 
     9    5    6 ar 
    10    6    8 ar 
    11    7    9 ar 
    12    1   11 1  
    13    3   12 1  
    14    7   13 1  
    15    8   14 1  
    16    9   15 1  
    17   10   16 1  
