#      Rotatable Fragment
#      Build by yxyuan
#
# Name:          frag5-509-462/138278
# Creation time: Sat Jun  5 12:53:40 2010


@<TRIPOS>MOLECULE
frag5-509-462/138278
   17    17     1     1     1
SMALL
USER_CHARGES


@<TRIPOS>ATOM
      1 N1         -1.2200    1.5503   -0.3922 N.am       1 <1>        0.000
      2 S1         -1.0763   -0.0086   -0.5671 S.o2       1 <1>        0.000
      3 C11        -2.6818   -0.5034   -0.2822 C.ar       1 <1>        0.000
      4 O2         -0.7631   -0.1946   -1.9632 O.2        1 <1>        0.000
      5 O3         -0.2575   -0.4786    0.5219 O.2        1 <1>        0.000
      6 C13        -3.8394    0.2673    0.0441 C.ar       1 <1>        0.000
      7 C14        -2.9993   -1.8456   -0.3543 C.ar       1 <1>        0.000
      8 C15        -5.1315   -0.2467    0.2454 C.ar       1 <1>        0.000
      9 C16        -4.2333   -2.4241   -0.1241 C.ar       1 <1>        0.000
     10 C17        -5.3055   -1.6139    0.1773 C.ar       1 <1>        0.000
     11 H          -1.0895    2.1676   -1.1936 H.spc      1 <1>        0.000
     12 H          -1.4436    1.9424    0.5225 H.spc      1 <1>        0.000
     13 H          -3.7094    1.3448    0.1455 H.spc      1 <1>        0.000
     14 H          -2.1881   -2.5226   -0.6220 H.spc      1 <1>        0.000
     15 H          -5.9726    0.4158    0.4496 H.spc      1 <1>        0.000
     16 H          -4.3561   -3.5057   -0.1803 H.spc      1 <1>        0.000
     17 H          -6.2871   -2.0507    0.3612 H.spc      1 <1>        0.000
@<TRIPOS>BOND
     1    9   10 ar 
     2    7    9 ar 
     3    8   10 ar 
     4    1    2 1  
     5    2    3 1  
     6    2    4 2  
     7    2    5 2  
     8    3    6 ar 
     9    3    7 ar 
    10    6    8 ar 
    11    1   11 1  
    12    1   12 1  
    13    6   13 1  
    14    7   14 1  
    15    8   15 1  
    16    9   16 1  
    17   10   17 1  
# Name:          frag5-509-462/138278
# Creation time: Sat Jun  5 12:53:40 2010


@<TRIPOS>MOLECULE
frag5-509-462/138278
   17    17     1     1     1
SMALL
USER_CHARGES


@<TRIPOS>ATOM
      1 N1         -1.3034    1.4447   -1.0400 N.am       1 <1>        0.000
      2 S1         -1.0845   -0.0212   -0.5034 S.o2       1 <1>        0.000
      3 C11        -2.6717   -0.5530   -0.2380 C.ar       1 <1>        0.000
      4 O2         -0.4675   -0.7118   -1.6135 O.2        1 <1>        0.000
      5 O3         -0.4737    0.1577    0.7857 O.2        1 <1>        0.000
      6 C13        -3.2113   -1.6060   -0.9590 C.ar       1 <1>        0.000
      7 C14        -3.6648    0.0874    0.5501 C.ar       1 <1>        0.000
      8 C15        -4.4157   -2.2252   -0.6904 C.ar       1 <1>        0.000
      9 C16        -4.9256   -0.4498    0.8254 C.ar       1 <1>        0.000
     10 C17        -5.2894   -1.6209    0.1886 C.ar       1 <1>        0.000
     11 H          -1.0163    1.6891   -1.9878 H.spc      1 <1>        0.000
     12 H          -1.7322    2.1489   -0.4395 H.spc      1 <1>        0.000
     13 H          -2.6374   -1.9761   -1.8086 H.spc      1 <1>        0.000
     14 H          -3.4274    1.0652    0.9691 H.spc      1 <1>        0.000
     15 H          -4.6709   -3.1732   -1.1639 H.spc      1 <1>        0.000
     16 H          -5.6033    0.0417    1.5234 H.spc      1 <1>        0.000
     17 H          -6.2655   -2.0663    0.3808 H.spc      1 <1>        0.000
@<TRIPOS>BOND
     1    9   10 ar 
     2    7    9 ar 
     3    8   10 ar 
     4    1    2 1  
     5    2    3 1  
     6    2    4 2  
     7    2    5 2  
     8    3    6 ar 
     9    3    7 ar 
    10    6    8 ar 
    11    1   11 1  
    12    1   12 1  
    13    6   13 1  
    14    7   14 1  
    15    8   15 1  
    16    9   16 1  
    17   10   17 1  
# Name:          frag5-509-462/138278 -- energy: -0.896346
# Creation time: Sat Jun  5 12:53:40 2010


@<TRIPOS>MOLECULE
frag5-509-462/138278 -- energy: -0.896346
   17    17     1     1     1
SMALL
USER_CHARGES


@<TRIPOS>ATOM
      1 N1         -1.2200    1.5503   -0.3922 N.am       1 <1>        0.000
      2 S1         -1.0763   -0.0086   -0.5671 S.o2       1 <1>        0.000
      3 C11        -2.6818   -0.5034   -0.2822 C.ar       1 <1>        0.000
      4 O2         -0.7631   -0.1946   -1.9632 O.2        1 <1>        0.000
      5 O3         -0.2575   -0.4786    0.5219 O.2        1 <1>        0.000
      6 C13        -3.8394    0.2673    0.0441 C.ar       1 <1>        0.000
      7 C14        -2.9993   -1.8456   -0.3543 C.ar       1 <1>        0.000
      8 C15        -5.1315   -0.2467    0.2454 C.ar       1 <1>        0.000
      9 C16        -4.2333   -2.4241   -0.1241 C.ar       1 <1>        0.000
     10 C17        -5.3055   -1.6139    0.1773 C.ar       1 <1>        0.000
     11 H          -1.0895    2.1676   -1.1936 H.spc      1 <1>        0.000
     12 H          -1.4436    1.9424    0.5225 H.spc      1 <1>        0.000
     13 H          -3.7094    1.3448    0.1455 H.spc      1 <1>        0.000
     14 H          -2.1881   -2.5226   -0.6220 H.spc      1 <1>        0.000
     15 H          -5.9726    0.4158    0.4496 H.spc      1 <1>        0.000
     16 H          -4.3561   -3.5057   -0.1803 H.spc      1 <1>        0.000
     17 H          -6.2871   -2.0507    0.3612 H.spc      1 <1>        0.000
@<TRIPOS>BOND
     1    9   10 ar 
     2    7    9 ar 
     3    8   10 ar 
     4    1    2 1  
     5    2    3 1  
     6    2    4 2  
     7    2    5 2  
     8    3    6 ar 
     9    3    7 ar 
    10    6    8 ar 
    11    1   11 1  
    12    1   12 1  
    13    6   13 1  
    14    7   14 1  
    15    8   15 1  
    16    9   16 1  
    17   10   17 1  
# Name:          frag5-509-462/138278 -- energy: -0.883226
# Creation time: Sat Jun  5 12:53:40 2010


@<TRIPOS>MOLECULE
frag5-509-462/138278 -- energy: -0.883226
   17    17     1     1     1
SMALL
USER_CHARGES


@<TRIPOS>ATOM
      1 N1         -1.3034    1.4447   -1.0400 N.am       1 <1>        0.000
      2 S1         -1.0845   -0.0212   -0.5034 S.o2       1 <1>        0.000
      3 C11        -2.6717   -0.5530   -0.2380 C.ar       1 <1>        0.000
      4 O2         -0.4675   -0.7118   -1.6135 O.2        1 <1>        0.000
      5 O3         -0.4737    0.1577    0.7857 O.2        1 <1>        0.000
      6 C13        -3.2113   -1.6060   -0.9590 C.ar       1 <1>        0.000
      7 C14        -3.6648    0.0874    0.5501 C.ar       1 <1>        0.000
      8 C15        -4.4157   -2.2252   -0.6904 C.ar       1 <1>        0.000
      9 C16        -4.9256   -0.4498    0.8254 C.ar       1 <1>        0.000
     10 C17        -5.2894   -1.6209    0.1886 C.ar       1 <1>        0.000
     11 H          -1.0163    1.6891   -1.9878 H.spc      1 <1>        0.000
     12 H          -1.7322    2.1489   -0.4395 H.spc      1 <1>        0.000
     13 H          -2.6374   -1.9761   -1.8086 H.spc      1 <1>        0.000
     14 H          -3.4274    1.0652    0.9691 H.spc      1 <1>        0.000
     15 H          -4.6709   -3.1732   -1.1639 H.spc      1 <1>        0.000
     16 H          -5.6033    0.0417    1.5234 H.spc      1 <1>        0.000
     17 H          -6.2655   -2.0663    0.3808 H.spc      1 <1>        0.000
@<TRIPOS>BOND
     1    9   10 ar 
     2    7    9 ar 
     3    8   10 ar 
     4    1    2 1  
     5    2    3 1  
     6    2    4 2  
     7    2    5 2  
     8    3    6 ar 
     9    3    7 ar 
    10    6    8 ar 
    11    1   11 1  
    12    1   12 1  
    13    6   13 1  
    14    7   14 1  
    15    8   15 1  
    16    9   16 1  
    17   10   17 1  
