#      Rotatable Fragment
#      Build by yxyuan
#
# Name:          frag4-426-137/150395
# Creation time: Sat Jun  5 12:53:35 2010


@<TRIPOS>MOLECULE
frag4-426-137/150395
   16    17     1     1     1
SMALL
USER_CHARGES


@<TRIPOS>ATOM
      1 C1          1.2289   -1.6091    0.2581 C.ar       1 <1>        0.000
      2 C2          0.0332   -0.7507    0.1297 C.ar       1 <1>        0.000
      3 N1          2.4430   -1.1664    0.3559 N.ar       1 <1>        0.000
      4 C4          0.3226    0.6120   -0.1000 C.ar       1 <1>        0.000
      5 C5         -1.2735   -1.2373    0.2191 C.ar       1 <1>        0.000
      6 N3          2.6439    0.1587    0.0048 N.ar       1 <1>        0.000
      7 C7          1.7118    0.9671   -0.1787 C.ar       1 <1>        0.000
      8 C8         -0.7765    1.4595   -0.2150 C.ar       1 <1>        0.000
      9 C9         -2.3419   -0.3550    0.1107 C.ar       1 <1>        0.000
     10 C12        -2.0948    0.9936   -0.1117 C.ar       1 <1>        0.000
     11 H           1.0796   -2.6887    0.2715 H.spc      1 <1>        0.000
     12 H          -1.4537   -2.3013    0.3728 H.spc      1 <1>        0.000
     13 H           1.9660    2.0011   -0.4119 H.spc      1 <1>        0.000
     14 H          -0.6060    2.5215   -0.3914 H.spc      1 <1>        0.000
     15 H          -3.3657   -0.7185    0.1995 H.spc      1 <1>        0.000
     16 H          -2.9272    1.6909   -0.2061 H.spc      1 <1>        0.000
@<TRIPOS>BOND
     1    6    7 ar 
     2    8   10 ar 
     3    9   10 ar 
     4    1    2 ar 
     5    1    3 ar 
     6    2    4 ar 
     7    2    5 ar 
     8    3    6 ar 
     9    4    7 ar 
    10    4    8 ar 
    11    5    9 ar 
    12    1   11 1  
    13    5   12 1  
    14    7   13 1  
    15    8   14 1  
    16    9   15 1  
    17   10   16 1  
# Name:          frag4-426-137/150395 -- energy: 0.099704
# Creation time: Sat Jun  5 12:53:35 2010


@<TRIPOS>MOLECULE
frag4-426-137/150395 -- energy: 0.099704
   16    17     1     1     1
SMALL
USER_CHARGES


@<TRIPOS>ATOM
      1 C1          1.2289   -1.6091    0.2581 C.ar       1 <1>        0.000
      2 C2          0.0332   -0.7507    0.1297 C.ar       1 <1>        0.000
      3 N1          2.4430   -1.1664    0.3559 N.ar       1 <1>        0.000
      4 C4          0.3226    0.6120   -0.1000 C.ar       1 <1>        0.000
      5 C5         -1.2735   -1.2373    0.2191 C.ar       1 <1>        0.000
      6 N3          2.6439    0.1587    0.0048 N.ar       1 <1>        0.000
      7 C7          1.7118    0.9671   -0.1787 C.ar       1 <1>        0.000
      8 C8         -0.7765    1.4595   -0.2150 C.ar       1 <1>        0.000
      9 C9         -2.3419   -0.3550    0.1107 C.ar       1 <1>        0.000
     10 C12        -2.0948    0.9936   -0.1117 C.ar       1 <1>        0.000
     11 H           1.0796   -2.6887    0.2715 H.spc      1 <1>        0.000
     12 H          -1.4537   -2.3013    0.3728 H.spc      1 <1>        0.000
     13 H           1.9660    2.0011   -0.4119 H.spc      1 <1>        0.000
     14 H          -0.6060    2.5215   -0.3914 H.spc      1 <1>        0.000
     15 H          -3.3657   -0.7185    0.1995 H.spc      1 <1>        0.000
     16 H          -2.9272    1.6909   -0.2061 H.spc      1 <1>        0.000
@<TRIPOS>BOND
     1    6    7 ar 
     2    8   10 ar 
     3    9   10 ar 
     4    1    2 ar 
     5    1    3 ar 
     6    2    4 ar 
     7    2    5 ar 
     8    3    6 ar 
     9    4    7 ar 
    10    4    8 ar 
    11    5    9 ar 
    12    1   11 1  
    13    5   12 1  
    14    7   13 1  
    15    8   14 1  
    16    9   15 1  
    17   10   16 1  
