#      Rotatable Fragment
#      Build by yxyuan
#
# Name:          frag3-155-19/96164
# Creation time: Sat Jun  5 12:53:06 2010


@<TRIPOS>MOLECULE
frag3-155-19/96164
   12    11     1     1     1
SMALL
USER_CHARGES


@<TRIPOS>ATOM
      1 C4          2.4969    0.1489   -0.0642 C.2        1 <1>        0.000
      2 C8          1.1841   -0.4287    0.1908 C.2        1 <1>        0.000
      3 O2          2.6598    1.3188   -0.3673 O.2        1 <1>        0.000
      4 C10         0.9814   -1.6160    0.7923 C.2        1 <1>        0.000
      5 C12        -0.3209   -2.1772    1.0726 C.2        1 <1>        0.000
      6 C14        -0.5381   -3.4636    1.3688 C.2        1 <1>        0.000
      7 H           3.3733   -0.4937    0.0197 H.spc      1 <1>        0.000
      8 H           0.3084    0.1376   -0.1262 H.spc      1 <1>        0.000
      9 H           1.8579   -2.1927    1.0877 H.spc      1 <1>        0.000
     10 H          -1.1815   -1.5091    1.0406 H.spc      1 <1>        0.000
     11 H           0.2978   -4.1620    1.4103 H.spc      1 <1>        0.000
     12 H          -1.5509   -3.8134    1.5687 H.spc      1 <1>        0.000
@<TRIPOS>BOND
     1    1    2 1  
     2    1    3 2  
     3    2    4 2  
     4    4    5 1  
     5    5    6 2  
     6    1    7 1  
     7    2    8 1  
     8    4    9 1  
     9    5   10 1  
    10    6   11 1  
    11    6   12 1  
# Name:          frag3-155-19/96164
# Creation time: Sat Jun  5 12:53:06 2010


@<TRIPOS>MOLECULE
frag3-155-19/96164
   12    11     1     1     1
SMALL
USER_CHARGES


@<TRIPOS>ATOM
      1 C4          2.0106    0.5934   -0.3380 C.2        1 <1>        0.000
      2 C8          0.8714   -0.2850   -0.1079 C.2        1 <1>        0.000
      3 O2          3.0509    0.5092    0.2903 O.2        1 <1>        0.000
      4 C10         0.9365   -1.4455    0.5757 C.2        1 <1>        0.000
      5 C12        -0.1982   -2.3044    0.8314 C.2        1 <1>        0.000
      6 C14        -0.2079   -3.2856    1.7415 C.2        1 <1>        0.000
      7 H           1.9284    1.3610   -1.1075 H.spc      1 <1>        0.000
      8 H          -0.0947    0.0148   -0.5140 H.spc      1 <1>        0.000
      9 H           1.9078   -1.7563    0.9606 H.spc      1 <1>        0.000
     10 H          -1.1031   -2.1425    0.2458 H.spc      1 <1>        0.000
     11 H           0.6787   -3.4771    2.3459 H.spc      1 <1>        0.000
     12 H          -1.1024   -3.8932    1.8783 H.spc      1 <1>        0.000
@<TRIPOS>BOND
     1    1    2 1  
     2    1    3 2  
     3    2    4 2  
     4    4    5 1  
     5    5    6 2  
     6    1    7 1  
     7    2    8 1  
     8    4    9 1  
     9    5   10 1  
    10    6   11 1  
    11    6   12 1  
# Name:          frag3-155-19/96164
# Creation time: Sat Jun  5 12:53:06 2010


@<TRIPOS>MOLECULE
frag3-155-19/96164
   12    11     1     1     1
SMALL
USER_CHARGES


@<TRIPOS>ATOM
      1 C4          2.3660    0.2521    0.1156 C.2        1 <1>        0.000
      2 C8          1.3060   -0.7333    0.2679 C.2        1 <1>        0.000
      3 O2          2.3763    1.1046   -0.7617 O.2        1 <1>        0.000
      4 C10         1.1010   -1.4976    1.3504 C.2        1 <1>        0.000
      5 C12         0.0387   -2.4472    1.5128 C.2        1 <1>        0.000
      6 C14        -0.7248   -2.8964    0.5080 C.2        1 <1>        0.000
      7 H           3.1960    0.2293    0.8217 H.spc      1 <1>        0.000
      8 H           0.6201   -0.8610   -0.5695 H.spc      1 <1>        0.000
      9 H           1.8019   -1.3877    2.1779 H.spc      1 <1>        0.000
     10 H          -0.1596   -2.8267    2.5152 H.spc      1 <1>        0.000
     11 H          -0.5549   -2.5387   -0.5075 H.spc      1 <1>        0.000
     12 H          -1.5159   -3.6196    0.7059 H.spc      1 <1>        0.000
@<TRIPOS>BOND
     1    1    2 1  
     2    1    3 2  
     3    2    4 2  
     4    4    5 1  
     5    5    6 2  
     6    1    7 1  
     7    2    8 1  
     8    4    9 1  
     9    5   10 1  
    10    6   11 1  
    11    6   12 1  
# Name:          frag3-155-19/96164
# Creation time: Sat Jun  5 12:53:06 2010


@<TRIPOS>MOLECULE
frag3-155-19/96164
   12    11     1     1     1
SMALL
USER_CHARGES


@<TRIPOS>ATOM
      1 C4          2.5622   -0.0080   -0.1753 C.2        1 <1>        0.000
      2 C8          1.7612   -1.1065    0.3480 C.2        1 <1>        0.000
      3 O2          2.1820    1.1459   -0.2848 O.2        1 <1>        0.000
      4 C10         0.5146   -0.9586    0.8391 C.2        1 <1>        0.000
      5 C12        -0.3216   -2.0093    1.3355 C.2        1 <1>        0.000
      6 C14        -0.2352   -3.2814    0.9305 C.2        1 <1>        0.000
      7 H           3.5798   -0.2346   -0.4936 H.spc      1 <1>        0.000
      8 H           2.1952   -2.1064    0.3421 H.spc      1 <1>        0.000
      9 H           0.1065    0.0519    0.8602 H.spc      1 <1>        0.000
     10 H          -1.0712   -1.7586    2.0860 H.spc      1 <1>        0.000
     11 H           0.5036   -3.5658    0.1812 H.spc      1 <1>        0.000
     12 H          -0.9036   -4.0334    1.3498 H.spc      1 <1>        0.000
@<TRIPOS>BOND
     1    1    2 1  
     2    1    3 2  
     3    2    4 2  
     4    4    5 1  
     5    5    6 2  
     6    1    7 1  
     7    2    8 1  
     8    4    9 1  
     9    5   10 1  
    10    6   11 1  
    11    6   12 1  
# Name:          frag3-155-19/96164 -- energy: -0.667220
# Creation time: Sat Jun  5 12:53:06 2010


@<TRIPOS>MOLECULE
frag3-155-19/96164 -- energy: -0.667220
   12    11     1     1     1
SMALL
USER_CHARGES


@<TRIPOS>ATOM
      1 C4          2.4969    0.1489   -0.0642 C.2        1 <1>        0.000
      2 C8          1.1841   -0.4287    0.1908 C.2        1 <1>        0.000
      3 O2          2.6598    1.3188   -0.3673 O.2        1 <1>        0.000
      4 C10         0.9814   -1.6160    0.7923 C.2        1 <1>        0.000
      5 C12        -0.3209   -2.1772    1.0726 C.2        1 <1>        0.000
      6 C14        -0.5381   -3.4636    1.3688 C.2        1 <1>        0.000
      7 H           3.3733   -0.4937    0.0197 H.spc      1 <1>        0.000
      8 H           0.3084    0.1376   -0.1262 H.spc      1 <1>        0.000
      9 H           1.8579   -2.1927    1.0877 H.spc      1 <1>        0.000
     10 H          -1.1815   -1.5091    1.0406 H.spc      1 <1>        0.000
     11 H           0.2978   -4.1620    1.4103 H.spc      1 <1>        0.000
     12 H          -1.5509   -3.8134    1.5687 H.spc      1 <1>        0.000
@<TRIPOS>BOND
     1    1    2 1  
     2    1    3 2  
     3    2    4 2  
     4    4    5 1  
     5    5    6 2  
     6    1    7 1  
     7    2    8 1  
     8    4    9 1  
     9    5   10 1  
    10    6   11 1  
    11    6   12 1  
# Name:          frag3-155-19/96164 -- energy: -0.654765
# Creation time: Sat Jun  5 12:53:06 2010


@<TRIPOS>MOLECULE
frag3-155-19/96164 -- energy: -0.654765
   12    11     1     1     1
SMALL
USER_CHARGES


@<TRIPOS>ATOM
      1 C4          2.0106    0.5934   -0.3380 C.2        1 <1>        0.000
      2 C8          0.8714   -0.2850   -0.1079 C.2        1 <1>        0.000
      3 O2          3.0509    0.5092    0.2903 O.2        1 <1>        0.000
      4 C10         0.9365   -1.4455    0.5757 C.2        1 <1>        0.000
      5 C12        -0.1982   -2.3044    0.8314 C.2        1 <1>        0.000
      6 C14        -0.2079   -3.2856    1.7415 C.2        1 <1>        0.000
      7 H           1.9284    1.3610   -1.1075 H.spc      1 <1>        0.000
      8 H          -0.0947    0.0148   -0.5140 H.spc      1 <1>        0.000
      9 H           1.9078   -1.7563    0.9606 H.spc      1 <1>        0.000
     10 H          -1.1031   -2.1425    0.2458 H.spc      1 <1>        0.000
     11 H           0.6787   -3.4771    2.3459 H.spc      1 <1>        0.000
     12 H          -1.1024   -3.8932    1.8783 H.spc      1 <1>        0.000
@<TRIPOS>BOND
     1    1    2 1  
     2    1    3 2  
     3    2    4 2  
     4    4    5 1  
     5    5    6 2  
     6    1    7 1  
     7    2    8 1  
     8    4    9 1  
     9    5   10 1  
    10    6   11 1  
    11    6   12 1  
# Name:          frag3-155-19/96164 -- energy: -0.558560
# Creation time: Sat Jun  5 12:53:06 2010


@<TRIPOS>MOLECULE
frag3-155-19/96164 -- energy: -0.558560
   12    11     1     1     1
SMALL
USER_CHARGES


@<TRIPOS>ATOM
      1 C4          2.3660    0.2521    0.1156 C.2        1 <1>        0.000
      2 C8          1.3060   -0.7333    0.2679 C.2        1 <1>        0.000
      3 O2          2.3763    1.1046   -0.7617 O.2        1 <1>        0.000
      4 C10         1.1010   -1.4976    1.3504 C.2        1 <1>        0.000
      5 C12         0.0387   -2.4472    1.5128 C.2        1 <1>        0.000
      6 C14        -0.7248   -2.8964    0.5080 C.2        1 <1>        0.000
      7 H           3.1960    0.2293    0.8217 H.spc      1 <1>        0.000
      8 H           0.6201   -0.8610   -0.5695 H.spc      1 <1>        0.000
      9 H           1.8019   -1.3877    2.1779 H.spc      1 <1>        0.000
     10 H          -0.1596   -2.8267    2.5152 H.spc      1 <1>        0.000
     11 H          -0.5549   -2.5387   -0.5075 H.spc      1 <1>        0.000
     12 H          -1.5159   -3.6196    0.7059 H.spc      1 <1>        0.000
@<TRIPOS>BOND
     1    1    2 1  
     2    1    3 2  
     3    2    4 2  
     4    4    5 1  
     5    5    6 2  
     6    1    7 1  
     7    2    8 1  
     8    4    9 1  
     9    5   10 1  
    10    6   11 1  
    11    6   12 1  
# Name:          frag3-155-19/96164 -- energy: -0.685399
# Creation time: Sat Jun  5 12:53:06 2010


@<TRIPOS>MOLECULE
frag3-155-19/96164 -- energy: -0.685399
   12    11     1     1     1
SMALL
USER_CHARGES


@<TRIPOS>ATOM
      1 C4          2.5622   -0.0080   -0.1753 C.2        1 <1>        0.000
      2 C8          1.7612   -1.1065    0.3480 C.2        1 <1>        0.000
      3 O2          2.1820    1.1459   -0.2848 O.2        1 <1>        0.000
      4 C10         0.5146   -0.9586    0.8391 C.2        1 <1>        0.000
      5 C12        -0.3216   -2.0093    1.3355 C.2        1 <1>        0.000
      6 C14        -0.2352   -3.2814    0.9305 C.2        1 <1>        0.000
      7 H           3.5798   -0.2346   -0.4936 H.spc      1 <1>        0.000
      8 H           2.1952   -2.1064    0.3421 H.spc      1 <1>        0.000
      9 H           0.1065    0.0519    0.8602 H.spc      1 <1>        0.000
     10 H          -1.0712   -1.7586    2.0860 H.spc      1 <1>        0.000
     11 H           0.5036   -3.5658    0.1812 H.spc      1 <1>        0.000
     12 H          -0.9036   -4.0334    1.3498 H.spc      1 <1>        0.000
@<TRIPOS>BOND
     1    1    2 1  
     2    1    3 2  
     3    2    4 2  
     4    4    5 1  
     5    5    6 2  
     6    1    7 1  
     7    2    8 1  
     8    4    9 1  
     9    5   10 1  
    10    6   11 1  
    11    6   12 1  
