#      Rotatable Fragment
#      Build by yxyuan
#
# Name:          frag3-228-3/31924
# Creation time: Sat Jun  5 12:52:24 2010


@<TRIPOS>MOLECULE
frag3-228-3/31924
    3     2     1     1     1
SMALL
USER_CHARGES


@<TRIPOS>ATOM
      1 F1          1.0863   -0.1602    0.0000 F          1 <1>        0.000
      2 O1         -0.2016    0.4230    0.0000 O.3        1 <1>        0.000
      3 H          -0.7901   -0.1036   -0.5459 H.spc      1 <1>        0.000
@<TRIPOS>BOND
     1    1    2 1  
     2    2    3 1  
# Name:          frag3-228-3/31924 -- energy: 0.000000
# Creation time: Sat Jun  5 12:52:24 2010


@<TRIPOS>MOLECULE
frag3-228-3/31924 -- energy: 0.000000
    3     2     1     1     1
SMALL
USER_CHARGES


@<TRIPOS>ATOM
      1 F1          1.0863   -0.1602    0.0000 F          1 <1>        0.000
      2 O1         -0.2016    0.4230    0.0000 O.3        1 <1>        0.000
      3 H          -0.7901   -0.1036   -0.5459 H.spc      1 <1>        0.000
@<TRIPOS>BOND
     1    1    2 1  
     2    2    3 1  
