#      Rotatable Fragment
#      Build by yxyuan
#
# Name:          frag4-359-102/48856
# Creation time: Sat Jun  5 12:53:15 2010


@<TRIPOS>MOLECULE
frag4-359-102/48856
   17    17     1     1     1
SMALL
USER_CHARGES


@<TRIPOS>ATOM
      1 N2         -1.1817   -0.9006   -0.7685 N.3        1 <1>        0.000
      2 C7         -2.0674   -1.5051    0.2227 C.3        1 <1>        0.000
      3 C8         -3.4605   -0.8623    0.1631 C.3        1 <1>        0.000
      4 C9         -4.0427   -0.9423   -1.2513 C.3        1 <1>        0.000
      5 C10        -3.0437   -1.6177   -2.1991 C.3        1 <1>        0.000
      6 C11        -1.6787   -0.9042   -2.1394 C.3        1 <1>        0.000
      7 H          -1.0721    0.0778   -0.5018 H.spc      1 <1>        0.000
      8 H          -1.6470   -1.3473    1.2159 H.spc      1 <1>        0.000
      9 H          -2.1599   -2.5705    0.0117 H.spc      1 <1>        0.000
     10 H          -3.3737    0.1866    0.4464 H.spc      1 <1>        0.000
     11 H          -4.1219   -1.3980    0.8440 H.spc      1 <1>        0.000
     12 H          -4.2480    0.0664   -1.6098 H.spc      1 <1>        0.000
     13 H          -4.9617   -1.5279   -1.2258 H.spc      1 <1>        0.000
     14 H          -2.9144   -2.6568   -1.8965 H.spc      1 <1>        0.000
     15 H          -3.4283   -1.5631   -3.2175 H.spc      1 <1>        0.000
     16 H          -1.7944    0.1237   -2.4831 H.spc      1 <1>        0.000
     17 H          -0.9692   -1.4302   -2.7782 H.spc      1 <1>        0.000
@<TRIPOS>BOND
     1    5    6 1  
     2    1    6 1  
     3    1    2 1  
     4    2    3 1  
     5    3    4 1  
     6    4    5 1  
     7    1    7 1  
     8    2    8 1  
     9    2    9 1  
    10    3   10 1  
    11    3   11 1  
    12    4   12 1  
    13    4   13 1  
    14    5   14 1  
    15    5   15 1  
    16    6   16 1  
    17    6   17 1  
# Name:          frag4-359-102/48856 -- energy: -0.479428
# Creation time: Sat Jun  5 12:53:15 2010


@<TRIPOS>MOLECULE
frag4-359-102/48856 -- energy: -0.479428
   17    17     1     1     1
SMALL
USER_CHARGES


@<TRIPOS>ATOM
      1 N2         -1.1817   -0.9006   -0.7685 N.3        1 <1>        0.000
      2 C7         -2.0674   -1.5051    0.2227 C.3        1 <1>        0.000
      3 C8         -3.4605   -0.8623    0.1631 C.3        1 <1>        0.000
      4 C9         -4.0427   -0.9423   -1.2513 C.3        1 <1>        0.000
      5 C10        -3.0437   -1.6177   -2.1991 C.3        1 <1>        0.000
      6 C11        -1.6787   -0.9042   -2.1394 C.3        1 <1>        0.000
      7 H          -1.0721    0.0778   -0.5018 H.spc      1 <1>        0.000
      8 H          -1.6470   -1.3473    1.2159 H.spc      1 <1>        0.000
      9 H          -2.1599   -2.5705    0.0117 H.spc      1 <1>        0.000
     10 H          -3.3737    0.1866    0.4464 H.spc      1 <1>        0.000
     11 H          -4.1219   -1.3980    0.8440 H.spc      1 <1>        0.000
     12 H          -4.2480    0.0664   -1.6098 H.spc      1 <1>        0.000
     13 H          -4.9617   -1.5279   -1.2258 H.spc      1 <1>        0.000
     14 H          -2.9144   -2.6568   -1.8965 H.spc      1 <1>        0.000
     15 H          -3.4283   -1.5631   -3.2175 H.spc      1 <1>        0.000
     16 H          -1.7944    0.1237   -2.4831 H.spc      1 <1>        0.000
     17 H          -0.9692   -1.4302   -2.7782 H.spc      1 <1>        0.000
@<TRIPOS>BOND
     1    5    6 1  
     2    1    6 1  
     3    1    2 1  
     4    2    3 1  
     5    3    4 1  
     6    4    5 1  
     7    1    7 1  
     8    2    8 1  
     9    2    9 1  
    10    3   10 1  
    11    3   11 1  
    12    4   12 1  
    13    4   13 1  
    14    5   14 1  
    15    5   15 1  
    16    6   16 1  
    17    6   17 1  
