#      Rotatable Fragment
#      Build by yxyuan
#
# Name:          frag2-067-11/319335
# Creation time: Sat Jun  5 12:51:55 2010


@<TRIPOS>MOLECULE
frag2-067-11/319335
   16    17     1     1     1
SMALL
USER_CHARGES


@<TRIPOS>ATOM
      1 C16         1.1615   -1.5594   -0.1677 C.ar       1 <1>        0.000
      2 C17        -0.0350   -0.8372   -0.1306 C.ar       1 <1>        0.000
      3 N4          2.3477   -0.9464    0.0005 N.ar       1 <1>        0.000
      4 C18         0.0229    0.5560    0.0870 C.ar       1 <1>        0.000
      5 C19        -1.2854   -1.4375   -0.3009 C.ar       1 <1>        0.000
      6 C20         2.4261    0.3857    0.2085 C.ar       1 <1>        0.000
      7 C21         1.2751    1.1503    0.2577 C.ar       1 <1>        0.000
      8 C22        -1.1749    1.2763    0.1227 C.ar       1 <1>        0.000
      9 N5         -2.4196   -0.7056   -0.2589 N.ar       1 <1>        0.000
     10 C23        -2.3846    0.6324   -0.0503 C.ar       1 <1>        0.000
     11 H           1.1332   -2.6360   -0.3355 H.spc      1 <1>        0.000
     12 H          -1.3462   -2.5126   -0.4702 H.spc      1 <1>        0.000
     13 H           3.3993    0.8593    0.3379 H.spc      1 <1>        0.000
     14 H           1.3456    2.2241    0.4309 H.spc      1 <1>        0.000
     15 H          -1.1540    2.3535    0.2882 H.spc      1 <1>        0.000
     16 H          -3.3132    1.2023   -0.0189 H.spc      1 <1>        0.000
@<TRIPOS>BOND
     1    9   10 ar 
     2    8   10 ar 
     3    1    2 ar 
     4    2    4 ar 
     5    1    3 ar 
     6    2    5 ar 
     7    3    6 ar 
     8    4    7 ar 
     9    4    8 ar 
    10    5    9 ar 
    11    6    7 ar 
    12    1   11 1  
    13    5   12 1  
    14    6   13 1  
    15    7   14 1  
    16    8   15 1  
    17   10   16 1  
# Name:          frag2-067-11/319335 -- energy: 0.025241
# Creation time: Sat Jun  5 12:51:55 2010


@<TRIPOS>MOLECULE
frag2-067-11/319335 -- energy: 0.025241
   16    17     1     1     1
SMALL
USER_CHARGES


@<TRIPOS>ATOM
      1 C16         1.1615   -1.5594   -0.1677 C.ar       1 <1>        0.000
      2 C17        -0.0350   -0.8372   -0.1306 C.ar       1 <1>        0.000
      3 N4          2.3477   -0.9464    0.0005 N.ar       1 <1>        0.000
      4 C18         0.0229    0.5560    0.0870 C.ar       1 <1>        0.000
      5 C19        -1.2854   -1.4375   -0.3009 C.ar       1 <1>        0.000
      6 C20         2.4261    0.3857    0.2085 C.ar       1 <1>        0.000
      7 C21         1.2751    1.1503    0.2577 C.ar       1 <1>        0.000
      8 C22        -1.1749    1.2763    0.1227 C.ar       1 <1>        0.000
      9 N5         -2.4196   -0.7056   -0.2589 N.ar       1 <1>        0.000
     10 C23        -2.3846    0.6324   -0.0503 C.ar       1 <1>        0.000
     11 H           1.1332   -2.6360   -0.3355 H.spc      1 <1>        0.000
     12 H          -1.3462   -2.5126   -0.4702 H.spc      1 <1>        0.000
     13 H           3.3993    0.8593    0.3379 H.spc      1 <1>        0.000
     14 H           1.3456    2.2241    0.4309 H.spc      1 <1>        0.000
     15 H          -1.1540    2.3535    0.2882 H.spc      1 <1>        0.000
     16 H          -3.3132    1.2023   -0.0189 H.spc      1 <1>        0.000
@<TRIPOS>BOND
     1    9   10 ar 
     2    8   10 ar 
     3    1    2 ar 
     4    2    4 ar 
     5    1    3 ar 
     6    2    5 ar 
     7    3    6 ar 
     8    4    7 ar 
     9    4    8 ar 
    10    5    9 ar 
    11    6    7 ar 
    12    1   11 1  
    13    5   12 1  
    14    6   13 1  
    15    7   14 1  
    16    8   15 1  
    17   10   16 1  
