#      Rotatable Fragment
#      Build by yxyuan
#
# Name:          frag3-222-6/96164
# Creation time: Sat Jun  5 12:53:14 2010


@<TRIPOS>MOLECULE
frag3-222-6/96164
   12    11     1     1     1
SMALL
USER_CHARGES


@<TRIPOS>ATOM
      1 N3         -0.7678    1.2798   -0.5322 N.pl3      1 <1>        0.000
      2 C11        -0.3569    0.0775   -0.0658 C.2        1 <1>        0.000
      3 C12         0.9478   -0.2096    0.2146 C.2        1 <1>        0.000
      4 N4         -1.3610   -0.8019    0.1131 N.pl3      1 <1>        0.000
      5 C14         1.9746    0.6428   -0.2912 C.1        1 <1>        0.000
      6 N5          2.7588    1.3485   -0.7776 N.1        1 <1>        0.000
      7 C15         1.2625   -1.3678    1.0021 C.1        1 <1>        0.000
      8 N6          1.4589   -2.3314    1.6165 N.1        1 <1>        0.000
      9 H          -0.0890    2.0246   -0.6904 H.spc      1 <1>        0.000
     10 H          -1.7562    1.4411   -0.7255 H.spc      1 <1>        0.000
     11 H          -1.1634   -1.7350    0.4747 H.spc      1 <1>        0.000
     12 H          -2.3191   -0.5349   -0.1130 H.spc      1 <1>        0.000
@<TRIPOS>BOND
     1    1    2 1  
     2    2    3 2  
     3    2    4 1  
     4    3    5 1  
     5    3    7 1  
     6    5    6 3  
     7    7    8 3  
     8    1    9 1  
     9    1   10 1  
    10    4   11 1  
    11    4   12 1  
# Name:          frag3-222-6/96164 -- energy: -0.590358
# Creation time: Sat Jun  5 12:53:14 2010


@<TRIPOS>MOLECULE
frag3-222-6/96164 -- energy: -0.590358
   12    11     1     1     1
SMALL
USER_CHARGES


@<TRIPOS>ATOM
      1 N3         -0.7678    1.2798   -0.5322 N.pl3      1 <1>        0.000
      2 C11        -0.3569    0.0775   -0.0658 C.2        1 <1>        0.000
      3 C12         0.9478   -0.2096    0.2146 C.2        1 <1>        0.000
      4 N4         -1.3610   -0.8019    0.1131 N.pl3      1 <1>        0.000
      5 C14         1.9746    0.6428   -0.2912 C.1        1 <1>        0.000
      6 N5          2.7588    1.3485   -0.7776 N.1        1 <1>        0.000
      7 C15         1.2625   -1.3678    1.0021 C.1        1 <1>        0.000
      8 N6          1.4589   -2.3314    1.6165 N.1        1 <1>        0.000
      9 H          -0.0890    2.0246   -0.6904 H.spc      1 <1>        0.000
     10 H          -1.7562    1.4411   -0.7255 H.spc      1 <1>        0.000
     11 H          -1.1634   -1.7350    0.4747 H.spc      1 <1>        0.000
     12 H          -2.3191   -0.5349   -0.1130 H.spc      1 <1>        0.000
@<TRIPOS>BOND
     1    1    2 1  
     2    2    3 2  
     3    2    4 1  
     4    3    5 1  
     5    3    7 1  
     6    5    6 3  
     7    7    8 3  
     8    1    9 1  
     9    1   10 1  
    10    4   11 1  
    11    4   12 1  
