#      Rotatable Fragment
#      Build by yxyuan
#
# Name:          frag4-370-284/150395
# Creation time: Sat Jun  5 12:53:32 2010


@<TRIPOS>MOLECULE
frag4-370-284/150395
    7     7     1     1     1
SMALL
USER_CHARGES


@<TRIPOS>ATOM
      1 C1          1.1558   -0.0736   -0.0547 C.ar       1 <1>        0.000
      2 N1         -0.1394   -0.6527   -0.0736 N.ar       1 <1>        0.000
      3 N2          0.9947    1.2187    0.0389 N.ar       1 <1>        0.000
      4 C4         -1.1099    0.2298    0.0669 C.ar       1 <1>        0.000
      5 N4         -0.4065    1.3428    0.1180 N.ar       1 <1>        0.000
      6 H           2.1052   -0.6065   -0.1082 H.spc      1 <1>        0.000
      7 H          -2.1881    0.0805    0.1244 H.spc      1 <1>        0.000
@<TRIPOS>BOND
     1    1    2 ar 
     2    1    3 ar 
     3    4    5 ar 
     4    2    4 ar 
     5    3    5 ar 
     6    1    6 1  
     7    4    7 1  
# Name:          frag4-370-284/150395 -- energy: -0.083812
# Creation time: Sat Jun  5 12:53:32 2010


@<TRIPOS>MOLECULE
frag4-370-284/150395 -- energy: -0.083812
    7     7     1     1     1
SMALL
USER_CHARGES


@<TRIPOS>ATOM
      1 C1          1.1558   -0.0736   -0.0547 C.ar       1 <1>        0.000
      2 N1         -0.1394   -0.6527   -0.0736 N.ar       1 <1>        0.000
      3 N2          0.9947    1.2187    0.0389 N.ar       1 <1>        0.000
      4 C4         -1.1099    0.2298    0.0669 C.ar       1 <1>        0.000
      5 N4         -0.4065    1.3428    0.1180 N.ar       1 <1>        0.000
      6 H           2.1052   -0.6065   -0.1082 H.spc      1 <1>        0.000
      7 H          -2.1881    0.0805    0.1244 H.spc      1 <1>        0.000
@<TRIPOS>BOND
     1    1    2 ar 
     2    1    3 ar 
     3    4    5 ar 
     4    2    4 ar 
     5    3    5 ar 
     6    1    6 1  
     7    4    7 1  
