#      Rotatable Fragment
#      Build by yxyuan
#
# Name:          frag4-317-303/48856
# Creation time: Sat Jun  5 12:53:33 2010


@<TRIPOS>MOLECULE
frag4-317-303/48856
   20    21     1     1     1
SMALL
USER_CHARGES


@<TRIPOS>ATOM
      1 C1          1.2013   -0.7876    0.8414 C.3        1 <1>        0.000
      2 C2          2.4269   -1.7206    0.9433 C.3        1 <1>        0.000
      3 C3          3.6984   -0.8737    0.7385 C.3        1 <1>        0.000
      4 O3          3.6992   -0.3515   -0.5925 O.3        1 <1>        0.000
      5 C4          2.5616    0.3299   -1.0106 C.ar       1 <1>        0.000
      6 C5          1.3259    0.1554   -0.3538 C.ar       1 <1>        0.000
      7 C6          0.2028    0.8575   -0.8044 C.ar       1 <1>        0.000
      8 C7          0.2918    1.7207   -1.8966 C.ar       1 <1>        0.000
      9 C8          1.5148    1.8922   -2.5494 C.ar       1 <1>        0.000
     10 C9          2.6393    1.1982   -2.1035 C.ar       1 <1>        0.000
     11 H           1.1405   -0.1910    1.7516 H.spc      1 <1>        0.000
     12 H           0.3078   -1.3984    0.7121 H.spc      1 <1>        0.000
     13 H           2.4510   -2.2006    1.9216 H.spc      1 <1>        0.000
     14 H           2.3690   -2.4983    0.1817 H.spc      1 <1>        0.000
     15 H           4.5819   -1.4935    0.8911 H.spc      1 <1>        0.000
     16 H           3.7134   -0.0531    1.4558 H.spc      1 <1>        0.000
     17 H          -0.7528    0.7285   -0.2962 H.spc      1 <1>        0.000
     18 H          -0.5910    2.2601   -2.2399 H.spc      1 <1>        0.000
     19 H           1.5899    2.5654   -3.4034 H.spc      1 <1>        0.000
     20 H           3.5924    1.3347   -2.6144 H.spc      1 <1>        0.000
@<TRIPOS>BOND
     1    8    9 ar 
     2    4    5 1  
     3    5    6 ar 
     4    2    3 1  
     5    6    7 ar 
     6    3    4 1  
     7    7    8 ar 
     8    5   10 ar 
     9    9   10 ar 
    10    1    2 1  
    11    1    6 1  
    12    1   11 1  
    13    1   12 1  
    14    2   13 1  
    15    2   14 1  
    16    3   15 1  
    17    3   16 1  
    18    7   17 1  
    19    8   18 1  
    20    9   19 1  
    21   10   20 1  
# Name:          frag4-317-303/48856 -- energy: -1.016264
# Creation time: Sat Jun  5 12:53:33 2010


@<TRIPOS>MOLECULE
frag4-317-303/48856 -- energy: -1.016264
   20    21     1     1     1
SMALL
USER_CHARGES


@<TRIPOS>ATOM
      1 C1          1.2013   -0.7876    0.8414 C.3        1 <1>        0.000
      2 C2          2.4269   -1.7206    0.9433 C.3        1 <1>        0.000
      3 C3          3.6984   -0.8737    0.7385 C.3        1 <1>        0.000
      4 O3          3.6992   -0.3515   -0.5925 O.3        1 <1>        0.000
      5 C4          2.5616    0.3299   -1.0106 C.ar       1 <1>        0.000
      6 C5          1.3259    0.1554   -0.3538 C.ar       1 <1>        0.000
      7 C6          0.2028    0.8575   -0.8044 C.ar       1 <1>        0.000
      8 C7          0.2918    1.7207   -1.8966 C.ar       1 <1>        0.000
      9 C8          1.5148    1.8922   -2.5494 C.ar       1 <1>        0.000
     10 C9          2.6393    1.1982   -2.1035 C.ar       1 <1>        0.000
     11 H           1.1405   -0.1910    1.7516 H.spc      1 <1>        0.000
     12 H           0.3078   -1.3984    0.7121 H.spc      1 <1>        0.000
     13 H           2.4510   -2.2006    1.9216 H.spc      1 <1>        0.000
     14 H           2.3690   -2.4983    0.1817 H.spc      1 <1>        0.000
     15 H           4.5819   -1.4935    0.8911 H.spc      1 <1>        0.000
     16 H           3.7134   -0.0531    1.4558 H.spc      1 <1>        0.000
     17 H          -0.7528    0.7285   -0.2962 H.spc      1 <1>        0.000
     18 H          -0.5910    2.2601   -2.2399 H.spc      1 <1>        0.000
     19 H           1.5899    2.5654   -3.4034 H.spc      1 <1>        0.000
     20 H           3.5924    1.3347   -2.6144 H.spc      1 <1>        0.000
@<TRIPOS>BOND
     1    8    9 ar 
     2    4    5 1  
     3    5    6 ar 
     4    2    3 1  
     5    6    7 ar 
     6    3    4 1  
     7    7    8 ar 
     8    5   10 ar 
     9    9   10 ar 
    10    1    2 1  
    11    1    6 1  
    12    1   11 1  
    13    1   12 1  
    14    2   13 1  
    15    2   14 1  
    16    3   15 1  
    17    3   16 1  
    18    7   17 1  
    19    8   18 1  
    20    9   19 1  
    21   10   20 1  
