#      Rotatable Fragment
#      Build by yxyuan
#
# Name:          frag5-657-69/138278
# Creation time: Sat Jun  5 12:51:51 2010


@<TRIPOS>MOLECULE
frag5-657-69/138278
   25    27     1     1     1
SMALL
USER_CHARGES


@<TRIPOS>ATOM
      1 C1          0.5524    0.3299   -1.0685 C.ar       1 <1>        0.000
      2 C2         -0.2027   -0.0236   -0.0074 C.ar       1 <1>        0.000
      3 C3          1.9494    0.2270   -0.6773 C.ar       1 <1>        0.000
      4 C5         -1.6806   -0.0271   -0.0075 C.ar       1 <1>        0.000
      5 N1          0.6148   -0.3795    1.0849 N.ar       1 <1>        0.000
      6 C6          1.9677   -0.2128    0.6571 C.ar       1 <1>        0.000
      7 C7          3.1387    0.4771   -1.3612 C.ar       1 <1>        0.000
      8 C9         -2.4457   -0.1837    1.1830 C.ar       1 <1>        0.000
      9 C10        -2.4723    0.1427   -1.1646 C.ar       1 <1>        0.000
     10 C11         3.1546   -0.4098    1.3271 C.ar       1 <1>        0.000
     11 C12         4.3445    0.2806   -0.6897 C.ar       1 <1>        0.000
     12 C13        -3.8538   -0.1795    1.2118 C.ar       1 <1>        0.000
     13 C14        -3.8773    0.1467   -1.1585 C.ar       1 <1>        0.000
     14 C15         4.3552   -0.1602    0.6459 C.ar       1 <1>        0.000
     15 C18        -4.5677   -0.0151    0.0336 C.ar       1 <1>        0.000
     16 H           0.1810    0.6380   -2.0459 H.spc      1 <1>        0.000
     17 H           3.1258    0.8182   -2.3964 H.spc      1 <1>        0.000
     18 H          -1.9120   -0.3141    2.1244 H.spc      1 <1>        0.000
     19 H          -1.9633    0.2787   -2.1188 H.spc      1 <1>        0.000
     20 H           3.1610   -0.7516    2.3621 H.spc      1 <1>        0.000
     21 H           5.2867    0.4701   -1.2039 H.spc      1 <1>        0.000
     22 H          -4.3813   -0.3051    2.1573 H.spc      1 <1>        0.000
     23 H          -4.4254    0.2771   -2.0916 H.spc      1 <1>        0.000
     24 H           5.3063   -0.3094    1.1570 H.spc      1 <1>        0.000
     25 H          -5.6576   -0.0131    0.0446 H.spc      1 <1>        0.000
@<TRIPOS>BOND
     1    3    7 ar 
     2    6   10 ar 
     3   13   15 ar 
     4    1    2 ar 
     5    2    5 ar 
     6    2    4 1  
     7    5    6 ar 
     8    9   13 ar 
     9   10   14 ar 
    10    7   11 ar 
    11    8   12 ar 
    12   11   14 ar 
    13    3    6 ar 
    14   12   15 ar 
    15    1    3 ar 
    16    4    8 ar 
    17    4    9 ar 
    18    1   16 1  
    19    7   17 1  
    20    8   18 1  
    21    9   19 1  
    22   10   20 1  
    23   11   21 1  
    24   12   22 1  
    25   13   23 1  
    26   14   24 1  
    27   15   25 1  
# Name:          frag5-657-69/138278
# Creation time: Sat Jun  5 12:51:51 2010


@<TRIPOS>MOLECULE
frag5-657-69/138278
   25    27     1     1     1
SMALL
USER_CHARGES


@<TRIPOS>ATOM
      1 C1          0.5479   -0.1599   -1.0915 C.ar       1 <1>        0.000
      2 C2         -0.2034   -0.0194    0.0233 C.ar       1 <1>        0.000
      3 C3          1.9461   -0.0821   -0.7001 C.ar       1 <1>        0.000
      4 C5         -1.6803   -0.0237    0.0288 C.ar       1 <1>        0.000
      5 N1          0.6203    0.1332    1.1559 N.ar       1 <1>        0.000
      6 C6          1.9704    0.0995    0.6935 C.ar       1 <1>        0.000
      7 C7          3.1322   -0.1519   -1.4297 C.ar       1 <1>        0.000
      8 C9         -2.4529    0.8696   -0.7648 C.ar       1 <1>        0.000
      9 C10        -2.4647   -0.9127    0.7975 C.ar       1 <1>        0.000
     10 C11         3.1609    0.2129    1.3767 C.ar       1 <1>        0.000
     11 C12         4.3413   -0.0372   -0.7451 C.ar       1 <1>        0.000
     12 C13        -3.8612    0.8787   -0.7837 C.ar       1 <1>        0.000
     13 C14        -3.8700   -0.9184    0.7958 C.ar       1 <1>        0.000
     14 C15         4.3580    0.1438    0.6496 C.ar       1 <1>        0.000
     15 C18        -4.5677   -0.0196    0.0026 C.ar       1 <1>        0.000
     16 H           0.1722   -0.3057   -2.1043 H.spc      1 <1>        0.000
     17 H           3.1146   -0.2929   -2.5104 H.spc      1 <1>        0.000
     18 H          -1.9253    1.5870   -1.3933 H.spc      1 <1>        0.000
     19 H          -1.9495   -1.6366    1.4289 H.spc      1 <1>        0.000
     20 H           3.1723    0.3531    2.4576 H.spc      1 <1>        0.000
     21 H           5.2810   -0.0882   -1.2950 H.spc      1 <1>        0.000
     22 H          -4.3946    1.5898   -1.4146 H.spc      1 <1>        0.000
     23 H          -4.4123   -1.6299    1.4185 H.spc      1 <1>        0.000
     24 H           5.3114    0.2313    1.1707 H.spc      1 <1>        0.000
     25 H          -5.6577   -0.0191   -0.0028 H.spc      1 <1>        0.000
@<TRIPOS>BOND
     1    3    7 ar 
     2    6   10 ar 
     3   13   15 ar 
     4    1    2 ar 
     5    2    5 ar 
     6    2    4 1  
     7    5    6 ar 
     8    9   13 ar 
     9   10   14 ar 
    10    7   11 ar 
    11    8   12 ar 
    12   11   14 ar 
    13    3    6 ar 
    14   12   15 ar 
    15    1    3 ar 
    16    4    8 ar 
    17    4    9 ar 
    18    1   16 1  
    19    7   17 1  
    20    8   18 1  
    21    9   19 1  
    22   10   20 1  
    23   11   21 1  
    24   12   22 1  
    25   13   23 1  
    26   14   24 1  
    27   15   25 1  
# Name:          frag5-657-69/138278 -- energy: -1.271508
# Creation time: Sat Jun  5 12:51:51 2010


@<TRIPOS>MOLECULE
frag5-657-69/138278 -- energy: -1.271508
   25    27     1     1     1
SMALL
USER_CHARGES


@<TRIPOS>ATOM
      1 C1          0.5524    0.3299   -1.0685 C.ar       1 <1>        0.000
      2 C2         -0.2027   -0.0236   -0.0074 C.ar       1 <1>        0.000
      3 C3          1.9494    0.2270   -0.6773 C.ar       1 <1>        0.000
      4 C5         -1.6806   -0.0271   -0.0075 C.ar       1 <1>        0.000
      5 N1          0.6148   -0.3795    1.0849 N.ar       1 <1>        0.000
      6 C6          1.9677   -0.2128    0.6571 C.ar       1 <1>        0.000
      7 C7          3.1387    0.4771   -1.3612 C.ar       1 <1>        0.000
      8 C9         -2.4457   -0.1837    1.1830 C.ar       1 <1>        0.000
      9 C10        -2.4723    0.1427   -1.1646 C.ar       1 <1>        0.000
     10 C11         3.1546   -0.4098    1.3271 C.ar       1 <1>        0.000
     11 C12         4.3445    0.2806   -0.6897 C.ar       1 <1>        0.000
     12 C13        -3.8538   -0.1795    1.2118 C.ar       1 <1>        0.000
     13 C14        -3.8773    0.1467   -1.1585 C.ar       1 <1>        0.000
     14 C15         4.3552   -0.1602    0.6459 C.ar       1 <1>        0.000
     15 C18        -4.5677   -0.0151    0.0336 C.ar       1 <1>        0.000
     16 H           0.1810    0.6380   -2.0459 H.spc      1 <1>        0.000
     17 H           3.1258    0.8182   -2.3964 H.spc      1 <1>        0.000
     18 H          -1.9120   -0.3141    2.1244 H.spc      1 <1>        0.000
     19 H          -1.9633    0.2787   -2.1188 H.spc      1 <1>        0.000
     20 H           3.1610   -0.7516    2.3621 H.spc      1 <1>        0.000
     21 H           5.2867    0.4701   -1.2039 H.spc      1 <1>        0.000
     22 H          -4.3813   -0.3051    2.1573 H.spc      1 <1>        0.000
     23 H          -4.4254    0.2771   -2.0916 H.spc      1 <1>        0.000
     24 H           5.3063   -0.3094    1.1570 H.spc      1 <1>        0.000
     25 H          -5.6576   -0.0131    0.0446 H.spc      1 <1>        0.000
@<TRIPOS>BOND
     1    3    7 ar 
     2    6   10 ar 
     3   13   15 ar 
     4    1    2 ar 
     5    2    5 ar 
     6    2    4 1  
     7    5    6 ar 
     8    9   13 ar 
     9   10   14 ar 
    10    7   11 ar 
    11    8   12 ar 
    12   11   14 ar 
    13    3    6 ar 
    14   12   15 ar 
    15    1    3 ar 
    16    4    8 ar 
    17    4    9 ar 
    18    1   16 1  
    19    7   17 1  
    20    8   18 1  
    21    9   19 1  
    22   10   20 1  
    23   11   21 1  
    24   12   22 1  
    25   13   23 1  
    26   14   24 1  
    27   15   25 1  
# Name:          frag5-657-69/138278 -- energy: -1.321392
# Creation time: Sat Jun  5 12:51:51 2010


@<TRIPOS>MOLECULE
frag5-657-69/138278 -- energy: -1.321392
   25    27     1     1     1
SMALL
USER_CHARGES


@<TRIPOS>ATOM
      1 C1          0.5479   -0.1599   -1.0915 C.ar       1 <1>        0.000
      2 C2         -0.2034   -0.0194    0.0233 C.ar       1 <1>        0.000
      3 C3          1.9461   -0.0821   -0.7001 C.ar       1 <1>        0.000
      4 C5         -1.6803   -0.0237    0.0288 C.ar       1 <1>        0.000
      5 N1          0.6203    0.1332    1.1559 N.ar       1 <1>        0.000
      6 C6          1.9704    0.0995    0.6935 C.ar       1 <1>        0.000
      7 C7          3.1322   -0.1519   -1.4297 C.ar       1 <1>        0.000
      8 C9         -2.4529    0.8696   -0.7648 C.ar       1 <1>        0.000
      9 C10        -2.4647   -0.9127    0.7975 C.ar       1 <1>        0.000
     10 C11         3.1609    0.2129    1.3767 C.ar       1 <1>        0.000
     11 C12         4.3413   -0.0372   -0.7451 C.ar       1 <1>        0.000
     12 C13        -3.8612    0.8787   -0.7837 C.ar       1 <1>        0.000
     13 C14        -3.8700   -0.9184    0.7958 C.ar       1 <1>        0.000
     14 C15         4.3580    0.1438    0.6496 C.ar       1 <1>        0.000
     15 C18        -4.5677   -0.0196    0.0026 C.ar       1 <1>        0.000
     16 H           0.1722   -0.3057   -2.1043 H.spc      1 <1>        0.000
     17 H           3.1146   -0.2929   -2.5104 H.spc      1 <1>        0.000
     18 H          -1.9253    1.5870   -1.3933 H.spc      1 <1>        0.000
     19 H          -1.9495   -1.6366    1.4289 H.spc      1 <1>        0.000
     20 H           3.1723    0.3531    2.4576 H.spc      1 <1>        0.000
     21 H           5.2810   -0.0882   -1.2950 H.spc      1 <1>        0.000
     22 H          -4.3946    1.5898   -1.4146 H.spc      1 <1>        0.000
     23 H          -4.4123   -1.6299    1.4185 H.spc      1 <1>        0.000
     24 H           5.3114    0.2313    1.1707 H.spc      1 <1>        0.000
     25 H          -5.6577   -0.0191   -0.0028 H.spc      1 <1>        0.000
@<TRIPOS>BOND
     1    3    7 ar 
     2    6   10 ar 
     3   13   15 ar 
     4    1    2 ar 
     5    2    5 ar 
     6    2    4 1  
     7    5    6 ar 
     8    9   13 ar 
     9   10   14 ar 
    10    7   11 ar 
    11    8   12 ar 
    12   11   14 ar 
    13    3    6 ar 
    14   12   15 ar 
    15    1    3 ar 
    16    4    8 ar 
    17    4    9 ar 
    18    1   16 1  
    19    7   17 1  
    20    8   18 1  
    21    9   19 1  
    22   10   20 1  
    23   11   21 1  
    24   12   22 1  
    25   13   23 1  
    26   14   24 1  
    27   15   25 1  
