#      Rotatable Fragment
#      Build by yxyuan
#
# Name:          frag3-096-5856/31924
# Creation time: Sat Jun  5 12:51:59 2010


@<TRIPOS>MOLECULE
frag3-096-5856/31924
    5     4     1     1     1
SMALL
USER_CHARGES


@<TRIPOS>ATOM
      1 O3         -0.8831    0.3463    0.2162 O.3        1 <1>        0.000
      2 C11         0.3836   -0.0170    0.1534 C.2        1 <1>        0.000
      3 O4          1.2138    0.0948    1.0393 O.2        1 <1>        0.000
      4 H          -1.3138    0.1468   -0.6183 H.spc      1 <1>        0.000
      5 H           0.7214   -0.4610   -0.7830 H.spc      1 <1>        0.000
@<TRIPOS>BOND
     1    1    2 1  
     2    2    3 2  
     3    1    4 1  
     4    2    5 1  
# Name:          frag3-096-5856/31924 -- energy: -0.025314
# Creation time: Sat Jun  5 12:51:59 2010


@<TRIPOS>MOLECULE
frag3-096-5856/31924 -- energy: -0.025314
    5     4     1     1     1
SMALL
USER_CHARGES


@<TRIPOS>ATOM
      1 O3         -0.8831    0.3463    0.2162 O.3        1 <1>        0.000
      2 C11         0.3836   -0.0170    0.1534 C.2        1 <1>        0.000
      3 O4          1.2138    0.0948    1.0393 O.2        1 <1>        0.000
      4 H          -1.3138    0.1468   -0.6183 H.spc      1 <1>        0.000
      5 H           0.7214   -0.4610   -0.7830 H.spc      1 <1>        0.000
@<TRIPOS>BOND
     1    1    2 1  
     2    2    3 2  
     3    1    4 1  
     4    2    5 1  
