#      Rotatable Fragment
#      Build by yxyuan
#
# Name:          frag4-347-129/48856
# Creation time: Sat Jun  5 12:53:03 2010


@<TRIPOS>MOLECULE
frag4-347-129/48856
   16    17     1     1     1
SMALL
USER_CHARGES


@<TRIPOS>ATOM
      1 C6         -1.6583    1.6177   -0.9055 C.3        1 <1>        0.000
      2 C7         -2.0659    0.5517   -1.9304 C.3        1 <1>        0.000
      3 S1         -1.6592   -1.1682   -1.9558 S.3        1 <1>        0.000
      4 C8         -3.3674   -1.7420   -1.7235 C.3        1 <1>        0.000
      5 C9         -4.1741   -0.5455   -1.1689 C.3        1 <1>        0.000
      6 N3         -3.2433    0.4905   -1.1042 N.3        1 <1>        0.000
      7 C10        -2.9444    1.3711   -0.1031 C.3        1 <1>        0.000
      8 H          -1.4224    2.6263   -1.2449 H.spc      1 <1>        0.000
      9 H          -0.6918    1.5416   -0.4073 H.spc      1 <1>        0.000
     10 H          -1.7978    0.8187   -2.9526 H.spc      1 <1>        0.000
     11 H          -3.4010   -2.5838   -1.0318 H.spc      1 <1>        0.000
     12 H          -3.7898   -2.0881   -2.6668 H.spc      1 <1>        0.000
     13 H          -4.6180   -0.7623   -0.1973 H.spc      1 <1>        0.000
     14 H          -5.0267   -0.2950   -1.8001 H.spc      1 <1>        0.000
     15 H          -2.9471    1.0990    0.9524 H.spc      1 <1>        0.000
     16 H          -3.6161    2.1706    0.2095 H.spc      1 <1>        0.000
@<TRIPOS>BOND
     1    6    7 1  
     2    1    2 1  
     3    1    7 1  
     4    2    3 1  
     5    2    6 1  
     6    3    4 1  
     7    4    5 1  
     8    5    6 1  
     9    1    8 1  
    10    1    9 1  
    11    2   10 1  
    12    4   11 1  
    13    4   12 1  
    14    5   13 1  
    15    5   14 1  
    16    7   15 1  
    17    7   16 1  
# Name:          frag4-347-129/48856 -- energy: -1.307888
# Creation time: Sat Jun  5 12:53:03 2010


@<TRIPOS>MOLECULE
frag4-347-129/48856 -- energy: -1.307888
   16    17     1     1     1
SMALL
USER_CHARGES


@<TRIPOS>ATOM
      1 C6         -1.6583    1.6177   -0.9055 C.3        1 <1>        0.000
      2 C7         -2.0659    0.5517   -1.9304 C.3        1 <1>        0.000
      3 S1         -1.6592   -1.1682   -1.9558 S.3        1 <1>        0.000
      4 C8         -3.3674   -1.7420   -1.7235 C.3        1 <1>        0.000
      5 C9         -4.1741   -0.5455   -1.1689 C.3        1 <1>        0.000
      6 N3         -3.2433    0.4905   -1.1042 N.3        1 <1>        0.000
      7 C10        -2.9444    1.3711   -0.1031 C.3        1 <1>        0.000
      8 H          -1.4224    2.6263   -1.2449 H.spc      1 <1>        0.000
      9 H          -0.6918    1.5416   -0.4073 H.spc      1 <1>        0.000
     10 H          -1.7978    0.8187   -2.9526 H.spc      1 <1>        0.000
     11 H          -3.4010   -2.5838   -1.0318 H.spc      1 <1>        0.000
     12 H          -3.7898   -2.0881   -2.6668 H.spc      1 <1>        0.000
     13 H          -4.6180   -0.7623   -0.1973 H.spc      1 <1>        0.000
     14 H          -5.0267   -0.2950   -1.8001 H.spc      1 <1>        0.000
     15 H          -2.9471    1.0990    0.9524 H.spc      1 <1>        0.000
     16 H          -3.6161    2.1706    0.2095 H.spc      1 <1>        0.000
@<TRIPOS>BOND
     1    6    7 1  
     2    1    2 1  
     3    1    7 1  
     4    2    3 1  
     5    2    6 1  
     6    3    4 1  
     7    4    5 1  
     8    5    6 1  
     9    1    8 1  
    10    1    9 1  
    11    2   10 1  
    12    4   11 1  
    13    4   12 1  
    14    5   13 1  
    15    5   14 1  
    16    7   15 1  
    17    7   16 1  
