#      Rotatable Fragment
#      Build by yxyuan
#
# Name:          frag3-233-6/96164
# Creation time: Sat Jun  5 12:53:15 2010


@<TRIPOS>MOLECULE
frag3-233-6/96164
   18    17     1     1     1
SMALL
USER_CHARGES


@<TRIPOS>ATOM
      1 C16        -0.8416    0.3770   -0.1867 C.2        1 <1>        0.000
      2 C18         0.4099    0.8412   -0.2117 C.2        1 <1>        0.000
      3 N1          1.4850    0.0759    0.0949 N.am       1 <1>        0.000
      4 C19         2.7647    0.5170    0.0283 C.2        1 <1>        0.000
      5 C20         3.8834   -0.3670    0.4342 C.2        1 <1>        0.000
      6 O6          3.0165    1.6498   -0.3606 O.2        1 <1>        0.000
      7 C21         4.0721   -1.6625    0.1298 C.2        1 <1>        0.000
      8 C22         3.2230   -2.5541   -0.6807 C.2        1 <1>        0.000
      9 C23         3.4681   -3.8618   -0.8200 C.2        1 <1>        0.000
     10 H          -1.0328   -0.6600    0.0894 H.spc      1 <1>        0.000
     11 H          -1.6721    1.0350   -0.4424 H.spc      1 <1>        0.000
     12 H           0.5740    1.8819   -0.4911 H.spc      1 <1>        0.000
     13 H           1.3222   -0.8860    0.3925 H.spc      1 <1>        0.000
     14 H           4.6501    0.0917    1.0586 H.spc      1 <1>        0.000
     15 H           4.9758   -2.1153    0.5377 H.spc      1 <1>        0.000
     16 H           2.3574   -2.1292   -1.1889 H.spc      1 <1>        0.000
     17 H           4.3273   -4.3113   -0.3222 H.spc      1 <1>        0.000
     18 H           2.8086   -4.4778   -1.4313 H.spc      1 <1>        0.000
@<TRIPOS>BOND
     1    7    8 1  
     2    8    9 2  
     3    5    7 2  
     4    4    6 2  
     5    1    2 2  
     6    2    3 1  
     7    3    4 am 
     8    4    5 1  
     9    1   10 1  
    10    1   11 1  
    11    2   12 1  
    12    3   13 1  
    13    5   14 1  
    14    7   15 1  
    15    8   16 1  
    16    9   17 1  
    17    9   18 1  
# Name:          frag3-233-6/96164
# Creation time: Sat Jun  5 12:53:15 2010


@<TRIPOS>MOLECULE
frag3-233-6/96164
   18    17     1     1     1
SMALL
USER_CHARGES


@<TRIPOS>ATOM
      1 C16        -0.7097    2.0105    0.3240 C.2        1 <1>        0.000
      2 C18         0.2662    1.2967   -0.2371 C.2        1 <1>        0.000
      3 N1          1.2547    0.7068    0.4765 N.am       1 <1>        0.000
      4 C19         2.2185   -0.0748   -0.0715 C.2        1 <1>        0.000
      5 C20         3.0878   -0.9028    0.7975 C.2        1 <1>        0.000
      6 O6          2.3812   -0.1051   -1.2838 O.2        1 <1>        0.000
      7 C21         3.9003   -1.9129    0.4376 C.2        1 <1>        0.000
      8 C22         4.1449   -2.4738   -0.9004 C.2        1 <1>        0.000
      9 C23         4.9370   -3.5292   -1.1154 C.2        1 <1>        0.000
     10 H          -0.7367    2.1410    1.4058 H.spc      1 <1>        0.000
     11 H          -1.4808    2.4638   -0.2990 H.spc      1 <1>        0.000
     12 H           0.2688    1.1824   -1.3211 H.spc      1 <1>        0.000
     13 H           1.2757    0.8591    1.4848 H.spc      1 <1>        0.000
     14 H           3.0662   -0.6636    1.8607 H.spc      1 <1>        0.000
     15 H           4.4548   -2.3811    1.2508 H.spc      1 <1>        0.000
     16 H           3.6575   -2.0071   -1.7564 H.spc      1 <1>        0.000
     17 H           5.4368   -4.0152   -0.2775 H.spc      1 <1>        0.000
     18 H           5.0830   -3.9036   -2.1286 H.spc      1 <1>        0.000
@<TRIPOS>BOND
     1    7    8 1  
     2    8    9 2  
     3    5    7 2  
     4    4    6 2  
     5    1    2 2  
     6    2    3 1  
     7    3    4 am 
     8    4    5 1  
     9    1   10 1  
    10    1   11 1  
    11    2   12 1  
    12    3   13 1  
    13    5   14 1  
    14    7   15 1  
    15    8   16 1  
    16    9   17 1  
    17    9   18 1  
# Name:          frag3-233-6/96164
# Creation time: Sat Jun  5 12:53:15 2010


@<TRIPOS>MOLECULE
frag3-233-6/96164
   18    17     1     1     1
SMALL
USER_CHARGES


@<TRIPOS>ATOM
      1 C16        -0.8331    0.4901   -0.4537 C.2        1 <1>        0.000
      2 C18         0.3926    0.8738   -0.0908 C.2        1 <1>        0.000
      3 N1          1.4898    0.0998   -0.2696 N.am       1 <1>        0.000
      4 C19         2.7469    0.4909    0.0514 C.2        1 <1>        0.000
      5 C20         3.9194   -0.2318   -0.4969 C.2        1 <1>        0.000
      6 O6          2.9344    1.4470    0.7926 O.2        1 <1>        0.000
      7 C21         4.1047   -1.5592   -0.5968 C.2        1 <1>        0.000
      8 C22         3.2046   -2.6514   -0.1871 C.2        1 <1>        0.000
      9 C23         3.5215   -3.9438   -0.3216 C.2        1 <1>        0.000
     10 H          -0.9842   -0.4851   -0.9166 H.spc      1 <1>        0.000
     11 H          -1.6830    1.1519   -0.2871 H.spc      1 <1>        0.000
     12 H           0.5163    1.8538    0.3701 H.spc      1 <1>        0.000
     13 H           1.3625   -0.8303   -0.6685 H.spc      1 <1>        0.000
     14 H           4.7338    0.3919   -0.8654 H.spc      1 <1>        0.000
     15 H           5.0499   -1.8702   -1.0417 H.spc      1 <1>        0.000
     16 H           2.2373   -2.3947    0.2449 H.spc      1 <1>        0.000
     17 H           4.4825   -4.2275   -0.7506 H.spc      1 <1>        0.000
     18 H           2.8187   -4.7134   -0.0022 H.spc      1 <1>        0.000
@<TRIPOS>BOND
     1    7    8 1  
     2    8    9 2  
     3    5    7 2  
     4    4    6 2  
     5    1    2 2  
     6    2    3 1  
     7    3    4 am 
     8    4    5 1  
     9    1   10 1  
    10    1   11 1  
    11    2   12 1  
    12    3   13 1  
    13    5   14 1  
    14    7   15 1  
    15    8   16 1  
    16    9   17 1  
    17    9   18 1  
# Name:          frag3-233-6/96164
# Creation time: Sat Jun  5 12:53:15 2010


@<TRIPOS>MOLECULE
frag3-233-6/96164
   18    17     1     1     1
SMALL
USER_CHARGES


@<TRIPOS>ATOM
      1 C16        -0.8287    0.6203   -0.5175 C.2        1 <1>        0.000
      2 C18         0.3854    0.7939    0.0061 C.2        1 <1>        0.000
      3 N1          1.5018    0.2324   -0.5163 N.am       1 <1>        0.000
      4 C19         2.7155    0.2671    0.0851 C.2        1 <1>        0.000
      5 C20         3.9209   -0.2140   -0.6308 C.2        1 <1>        0.000
      6 O6          2.8363    0.7006    1.2243 O.2        1 <1>        0.000
      7 C21         4.2319   -1.4759   -0.9788 C.2        1 <1>        0.000
      8 C22         3.4718   -2.7129   -0.7361 C.2        1 <1>        0.000
      9 C23         3.2461   -3.1961    0.4914 C.2        1 <1>        0.000
     10 H          -0.9555    0.0027   -1.4067 H.spc      1 <1>        0.000
     11 H          -1.6942    1.0960   -0.0563 H.spc      1 <1>        0.000
     12 H           0.4839    1.4163    0.8955 H.spc      1 <1>        0.000
     13 H           1.4244   -0.2443   -1.4147 H.spc      1 <1>        0.000
     14 H           4.6462    0.5502   -0.9103 H.spc      1 <1>        0.000
     15 H           5.1742   -1.5989   -1.5127 H.spc      1 <1>        0.000
     16 H           3.0759   -3.2586   -1.5926 H.spc      1 <1>        0.000
     17 H           3.6315   -2.6688    1.3641 H.spc      1 <1>        0.000
     18 H           2.6769   -4.1169    0.6185 H.spc      1 <1>        0.000
@<TRIPOS>BOND
     1    7    8 1  
     2    8    9 2  
     3    5    7 2  
     4    4    6 2  
     5    1    2 2  
     6    2    3 1  
     7    3    4 am 
     8    4    5 1  
     9    1   10 1  
    10    1   11 1  
    11    2   12 1  
    12    3   13 1  
    13    5   14 1  
    14    7   15 1  
    15    8   16 1  
    16    9   17 1  
    17    9   18 1  
# Name:          frag3-233-6/96164
# Creation time: Sat Jun  5 12:53:15 2010


@<TRIPOS>MOLECULE
frag3-233-6/96164
   18    17     1     1     1
SMALL
USER_CHARGES


@<TRIPOS>ATOM
      1 C16        -0.9005    1.1529    0.2975 C.2        1 <1>        0.000
      2 C18         0.2487    0.4939    0.2535 C.2        1 <1>        0.000
      3 N1          1.3953    1.0152   -0.2231 N.am       1 <1>        0.000
      4 C19         2.5939    0.3819   -0.2294 C.2        1 <1>        0.000
      5 C20         2.8035   -0.7656    0.6991 C.2        1 <1>        0.000
      6 O6          3.5004    0.7259   -0.9680 O.2        1 <1>        0.000
      7 C21         3.3417   -1.9637    0.4108 C.2        1 <1>        0.000
      8 C22         3.8526   -2.4775   -0.8569 C.2        1 <1>        0.000
      9 C23         4.6453   -3.5475   -0.9559 C.2        1 <1>        0.000
     10 H          -0.9545    2.1792   -0.0658 H.spc      1 <1>        0.000
     11 H          -1.7915    0.6686    0.6970 H.spc      1 <1>        0.000
     12 H           0.2668   -0.5306    0.6251 H.spc      1 <1>        0.000
     13 H           1.3591    1.9587   -0.6089 H.spc      1 <1>        0.000
     14 H           2.4837   -0.6162    1.7303 H.spc      1 <1>        0.000
     15 H           3.4063   -2.6559    1.2503 H.spc      1 <1>        0.000
     16 H           3.5713   -1.9588   -1.7734 H.spc      1 <1>        0.000
     17 H           4.9450   -4.0886   -0.0584 H.spc      1 <1>        0.000
     18 H           4.9926   -3.8798   -1.9342 H.spc      1 <1>        0.000
@<TRIPOS>BOND
     1    7    8 1  
     2    8    9 2  
     3    5    7 2  
     4    4    6 2  
     5    1    2 2  
     6    2    3 1  
     7    3    4 am 
     8    4    5 1  
     9    1   10 1  
    10    1   11 1  
    11    2   12 1  
    12    3   13 1  
    13    5   14 1  
    14    7   15 1  
    15    8   16 1  
    16    9   17 1  
    17    9   18 1  
# Name:          frag3-233-6/96164
# Creation time: Sat Jun  5 12:53:15 2010


@<TRIPOS>MOLECULE
frag3-233-6/96164
   18    17     1     1     1
SMALL
USER_CHARGES


@<TRIPOS>ATOM
      1 C16        -0.7528    0.3009   -0.3992 C.2        1 <1>        0.000
      2 C18         0.5618    0.2921   -0.5791 C.2        1 <1>        0.000
      3 N1          1.4509    0.6111    0.3821 N.am       1 <1>        0.000
      4 C19         2.7952    0.5988    0.2258 C.2        1 <1>        0.000
      5 C20         3.3890   -0.1518   -0.9164 C.2        1 <1>        0.000
      6 O6          3.5375    1.2006    0.9853 O.2        1 <1>        0.000
      7 C21         3.5924   -1.4796   -1.0046 C.2        1 <1>        0.000
      8 C22         3.3052   -2.5347   -0.0335 C.2        1 <1>        0.000
      9 C23         3.6018   -3.8218   -0.2329 C.2        1 <1>        0.000
     10 H          -1.1684    0.5774    0.5698 H.spc      1 <1>        0.000
     11 H          -1.4171    0.0316   -1.2204 H.spc      1 <1>        0.000
     12 H           0.9444    0.0108   -1.5602 H.spc      1 <1>        0.000
     13 H           1.0837    0.8817    1.2944 H.spc      1 <1>        0.000
     14 H           3.6932    0.4418   -1.7785 H.spc      1 <1>        0.000
     15 H           4.0378   -1.8191   -1.9397 H.spc      1 <1>        0.000
     16 H           2.8231   -2.2558    0.9035 H.spc      1 <1>        0.000
     17 H           4.0841   -4.1327   -1.1596 H.spc      1 <1>        0.000
     18 H           3.3615   -4.5612    0.5311 H.spc      1 <1>        0.000
@<TRIPOS>BOND
     1    7    8 1  
     2    8    9 2  
     3    5    7 2  
     4    4    6 2  
     5    1    2 2  
     6    2    3 1  
     7    3    4 am 
     8    4    5 1  
     9    1   10 1  
    10    1   11 1  
    11    2   12 1  
    12    3   13 1  
    13    5   14 1  
    14    7   15 1  
    15    8   16 1  
    16    9   17 1  
    17    9   18 1  
# Name:          frag3-233-6/96164
# Creation time: Sat Jun  5 12:53:15 2010


@<TRIPOS>MOLECULE
frag3-233-6/96164
   18    17     1     1     1
SMALL
USER_CHARGES


@<TRIPOS>ATOM
      1 C16        -0.6303    1.9242   -0.3384 C.2        1 <1>        0.000
      2 C18         0.1755    0.9253    0.0184 C.2        1 <1>        0.000
      3 N1          1.4688    0.8410   -0.3739 N.am       1 <1>        0.000
      4 C19         2.3038   -0.1668   -0.0167 C.2        1 <1>        0.000
      5 C20         3.7017   -0.1841   -0.5081 C.2        1 <1>        0.000
      6 O6          1.9134   -1.0693    0.7121 O.2        1 <1>        0.000
      7 C21         4.5751   -1.2092   -0.4907 C.2        1 <1>        0.000
      8 C22         4.3840   -2.5768    0.0136 C.2        1 <1>        0.000
      9 C23         3.5889   -3.4689   -0.5888 C.2        1 <1>        0.000
     10 H          -0.2561    2.7250   -0.9762 H.spc      1 <1>        0.000
     11 H          -1.6639    1.9407    0.0074 H.spc      1 <1>        0.000
     12 H          -0.2254    0.1380    0.6568 H.spc      1 <1>        0.000
     13 H           1.8371    1.5792   -0.9737 H.spc      1 <1>        0.000
     14 H           4.0686    0.7485   -0.9368 H.spc      1 <1>        0.000
     15 H           5.5591   -0.9954   -0.9080 H.spc      1 <1>        0.000
     16 H           4.9132   -2.8774    0.9179 H.spc      1 <1>        0.000
     17 H           3.0486   -3.1933   -1.4945 H.spc      1 <1>        0.000
     18 H           3.4816   -4.4711   -0.1738 H.spc      1 <1>        0.000
@<TRIPOS>BOND
     1    7    8 1  
     2    8    9 2  
     3    5    7 2  
     4    4    6 2  
     5    1    2 2  
     6    2    3 1  
     7    3    4 am 
     8    4    5 1  
     9    1   10 1  
    10    1   11 1  
    11    2   12 1  
    12    3   13 1  
    13    5   14 1  
    14    7   15 1  
    15    8   16 1  
    16    9   17 1  
    17    9   18 1  
# Name:          frag3-233-6/96164
# Creation time: Sat Jun  5 12:53:15 2010


@<TRIPOS>MOLECULE
frag3-233-6/96164
   18    17     1     1     1
SMALL
USER_CHARGES


@<TRIPOS>ATOM
      1 C16        -0.6917    0.0086   -0.4825 C.2        1 <1>        0.000
      2 C18         0.4717    0.4730   -0.0232 C.2        1 <1>        0.000
      3 N1          1.6706    0.0376   -0.4782 N.am       1 <1>        0.000
      4 C19         2.8599    0.5318   -0.0581 C.2        1 <1>        0.000
      5 C20         4.1078   -0.2423   -0.2608 C.2        1 <1>        0.000
      6 O6          2.9235    1.6226    0.4952 O.2        1 <1>        0.000
      7 C21         4.2854   -1.5722   -0.1655 C.2        1 <1>        0.000
      8 C22         3.2976   -2.6137    0.1643 C.2        1 <1>        0.000
      9 C23         2.5561   -3.2298   -0.7638 C.2        1 <1>        0.000
     10 H          -0.7049   -0.7561   -1.2591 H.spc      1 <1>        0.000
     11 H          -1.6290    0.3939   -0.0811 H.spc      1 <1>        0.000
     12 H           0.4565    1.2376    0.7535 H.spc      1 <1>        0.000
     13 H           1.6786   -0.7051   -1.1773 H.spc      1 <1>        0.000
     14 H           4.9926    0.3393   -0.5196 H.spc      1 <1>        0.000
     15 H           5.2977   -1.9273   -0.3585 H.spc      1 <1>        0.000
     16 H           3.1648   -2.8947    1.2091 H.spc      1 <1>        0.000
     17 H           2.6702   -2.9667   -1.8154 H.spc      1 <1>        0.000
     18 H           1.8381   -3.9947   -0.4682 H.spc      1 <1>        0.000
@<TRIPOS>BOND
     1    7    8 1  
     2    8    9 2  
     3    5    7 2  
     4    4    6 2  
     5    1    2 2  
     6    2    3 1  
     7    3    4 am 
     8    4    5 1  
     9    1   10 1  
    10    1   11 1  
    11    2   12 1  
    12    3   13 1  
    13    5   14 1  
    14    7   15 1  
    15    8   16 1  
    16    9   17 1  
    17    9   18 1  
# Name:          frag3-233-6/96164
# Creation time: Sat Jun  5 12:53:15 2010


@<TRIPOS>MOLECULE
frag3-233-6/96164
   18    17     1     1     1
SMALL
USER_CHARGES


@<TRIPOS>ATOM
      1 C16        -0.8529    1.7174   -0.2718 C.2        1 <1>        0.000
      2 C18         0.3672    1.3848    0.1464 C.2        1 <1>        0.000
      3 N1          1.1921    0.5678   -0.5500 N.am       1 <1>        0.000
      4 C19         2.3292    0.0294   -0.0442 C.2        1 <1>        0.000
      5 C20         3.4072   -0.4244   -0.9542 C.2        1 <1>        0.000
      6 O6          2.4824   -0.0805    1.1657 O.2        1 <1>        0.000
      7 C21         4.0293   -1.6166   -0.9711 C.2        1 <1>        0.000
      8 C22         3.8202   -2.7839   -0.1030 C.2        1 <1>        0.000
      9 C23         4.7064   -3.7786    0.0098 C.2        1 <1>        0.000
     10 H          -1.2304    1.3270   -1.2169 H.spc      1 <1>        0.000
     11 H          -1.4739    2.3800    0.3311 H.spc      1 <1>        0.000
     12 H           0.7185    1.7900    1.0953 H.spc      1 <1>        0.000
     13 H           0.9432    0.3437   -1.5134 H.spc      1 <1>        0.000
     14 H           3.7365    0.2970   -1.7020 H.spc      1 <1>        0.000
     15 H           4.7966   -1.7336   -1.7364 H.spc      1 <1>        0.000
     16 H           2.8988   -2.8414    0.4765 H.spc      1 <1>        0.000
     17 H           5.6363   -3.7471   -0.5580 H.spc      1 <1>        0.000
     18 H           4.4990   -4.6211    0.6696 H.spc      1 <1>        0.000
@<TRIPOS>BOND
     1    7    8 1  
     2    8    9 2  
     3    5    7 2  
     4    4    6 2  
     5    1    2 2  
     6    2    3 1  
     7    3    4 am 
     8    4    5 1  
     9    1   10 1  
    10    1   11 1  
    11    2   12 1  
    12    3   13 1  
    13    5   14 1  
    14    7   15 1  
    15    8   16 1  
    16    9   17 1  
    17    9   18 1  
# Name:          frag3-233-6/96164
# Creation time: Sat Jun  5 12:53:15 2010


@<TRIPOS>MOLECULE
frag3-233-6/96164
   18    17     1     1     1
SMALL
USER_CHARGES


@<TRIPOS>ATOM
      1 C16        -0.8835    0.8200    0.0735 C.2        1 <1>        0.000
      2 C18         0.3565    0.6842   -0.3955 C.2        1 <1>        0.000
      3 N1          1.4014    0.3012    0.3761 N.am       1 <1>        0.000
      4 C19         2.6791    0.2218   -0.0681 C.2        1 <1>        0.000
      5 C20         3.7089   -0.4788    0.7354 C.2        1 <1>        0.000
      6 O6          3.0025    0.7322   -1.1338 O.2        1 <1>        0.000
      7 C21         4.0894   -1.7681    0.6544 C.2        1 <1>        0.000
      8 C22         3.5921   -2.8218   -0.2427 C.2        1 <1>        0.000
      9 C23         3.5345   -2.6752   -1.5718 C.2        1 <1>        0.000
     10 H          -1.0938    0.6195    1.1241 H.spc      1 <1>        0.000
     11 H          -1.6874    1.1315   -0.5935 H.spc      1 <1>        0.000
     12 H           0.5383    0.8912   -1.4501 H.spc      1 <1>        0.000
     13 H           1.2157    0.0581    1.3491 H.spc      1 <1>        0.000
     14 H           4.2218    0.1242    1.4847 H.spc      1 <1>        0.000
     15 H           4.8729   -2.0721    1.3485 H.spc      1 <1>        0.000
     16 H           3.2560   -3.7625    0.1934 H.spc      1 <1>        0.000
     17 H           3.8647   -1.7440   -2.0322 H.spc      1 <1>        0.000
     18 H           3.1574   -3.4870   -2.1938 H.spc      1 <1>        0.000
@<TRIPOS>BOND
     1    7    8 1  
     2    8    9 2  
     3    5    7 2  
     4    4    6 2  
     5    1    2 2  
     6    2    3 1  
     7    3    4 am 
     8    4    5 1  
     9    1   10 1  
    10    1   11 1  
    11    2   12 1  
    12    3   13 1  
    13    5   14 1  
    14    7   15 1  
    15    8   16 1  
    16    9   17 1  
    17    9   18 1  
# Name:          frag3-233-6/96164
# Creation time: Sat Jun  5 12:53:15 2010


@<TRIPOS>MOLECULE
frag3-233-6/96164
   18    17     1     1     1
SMALL
USER_CHARGES


@<TRIPOS>ATOM
      1 C16        -0.8876    1.0837   -0.2258 C.2        1 <1>        0.000
      2 C18         0.3078    0.5363   -0.3957 C.2        1 <1>        0.000
      3 N1          1.3946    0.8674    0.3277 N.am       1 <1>        0.000
      4 C19         2.6395    0.3695    0.1313 C.2        1 <1>        0.000
      5 C20         2.8987   -0.4622   -1.0787 C.2        1 <1>        0.000
      6 O6          3.5511    0.5868    0.9108 O.2        1 <1>        0.000
      7 C21         3.3236   -1.7378   -1.1192 C.2        1 <1>        0.000
      8 C22         3.6499   -2.6477   -0.0241 C.2        1 <1>        0.000
      9 C23         4.6033   -3.5805   -0.0988 C.2        1 <1>        0.000
     10 H          -1.0329    1.8498    0.5358 H.spc      1 <1>        0.000
     11 H          -1.7251    0.7677   -0.8477 H.spc      1 <1>        0.000
     12 H           0.4176   -0.2267   -1.1663 H.spc      1 <1>        0.000
     13 H           1.2712    1.5444    1.0806 H.spc      1 <1>        0.000
     14 H           2.7238    0.0187   -2.0411 H.spc      1 <1>        0.000
     15 H           3.4422   -2.1551   -2.1192 H.spc      1 <1>        0.000
     16 H           3.0850   -2.5609    0.9041 H.spc      1 <1>        0.000
     17 H           5.1858   -3.6925   -1.0133 H.spc      1 <1>        0.000
     18 H           4.7987   -4.2296    0.7547 H.spc      1 <1>        0.000
@<TRIPOS>BOND
     1    7    8 1  
     2    8    9 2  
     3    5    7 2  
     4    4    6 2  
     5    1    2 2  
     6    2    3 1  
     7    3    4 am 
     8    4    5 1  
     9    1   10 1  
    10    1   11 1  
    11    2   12 1  
    12    3   13 1  
    13    5   14 1  
    14    7   15 1  
    15    8   16 1  
    16    9   17 1  
    17    9   18 1  
# Name:          frag3-233-6/96164
# Creation time: Sat Jun  5 12:53:15 2010


@<TRIPOS>MOLECULE
frag3-233-6/96164
   18    17     1     1     1
SMALL
USER_CHARGES


@<TRIPOS>ATOM
      1 C16        -0.6080   -0.1357   -0.5437 C.2        1 <1>        0.000
      2 C18         0.5181    0.5265   -0.2711 C.2        1 <1>        0.000
      3 N1          1.6575   -0.0890    0.1241 N.am       1 <1>        0.000
      4 C19         2.8690    0.5162    0.1543 C.2        1 <1>        0.000
      5 C20         4.1123   -0.2878    0.0770 C.2        1 <1>        0.000
      6 O6          2.9574    1.7343    0.2455 O.2        1 <1>        0.000
      7 C21         4.2611   -1.5476   -0.3700 C.2        1 <1>        0.000
      8 C22         3.2364   -2.4686   -0.8913 C.2        1 <1>        0.000
      9 C23         2.4772   -3.2329   -0.0972 C.2        1 <1>        0.000
     10 H          -0.6377   -1.2214   -0.4517 H.spc      1 <1>        0.000
     11 H          -1.4981    0.4091   -0.8584 H.spc      1 <1>        0.000
     12 H           0.5207    1.6119   -0.3711 H.spc      1 <1>        0.000
     13 H           1.6003   -1.0647    0.4159 H.spc      1 <1>        0.000
     14 H           5.0201    0.2040    0.4264 H.spc      1 <1>        0.000
     15 H           5.2776   -1.9402   -0.3428 H.spc      1 <1>        0.000
     16 H           3.0903   -2.5302   -1.9697 H.spc      1 <1>        0.000
     17 H           2.6041   -3.1894    0.9845 H.spc      1 <1>        0.000
     18 H           1.7319   -3.8989   -0.5322 H.spc      1 <1>        0.000
@<TRIPOS>BOND
     1    7    8 1  
     2    8    9 2  
     3    5    7 2  
     4    4    6 2  
     5    1    2 2  
     6    2    3 1  
     7    3    4 am 
     8    4    5 1  
     9    1   10 1  
    10    1   11 1  
    11    2   12 1  
    12    3   13 1  
    13    5   14 1  
    14    7   15 1  
    15    8   16 1  
    16    9   17 1  
    17    9   18 1  
# Name:          frag3-233-6/96164
# Creation time: Sat Jun  5 12:53:15 2010


@<TRIPOS>MOLECULE
frag3-233-6/96164
   18    17     1     1     1
SMALL
USER_CHARGES


@<TRIPOS>ATOM
      1 C16        -0.9622    1.1409    0.1069 C.2        1 <1>        0.000
      2 C18         0.3568    1.2321   -0.0619 C.2        1 <1>        0.000
      3 N1          1.2037    0.1987    0.1587 N.am       1 <1>        0.000
      4 C19         2.5341    0.2442   -0.0954 C.2        1 <1>        0.000
      5 C20         3.4747   -0.5823    0.6978 C.2        1 <1>        0.000
      6 O6          2.9785    0.9771   -0.9699 O.2        1 <1>        0.000
      7 C21         3.9148   -1.8239    0.4305 C.2        1 <1>        0.000
      8 C22         3.5861   -2.6977   -0.7060 C.2        1 <1>        0.000
      9 C23         4.3945   -3.6736   -1.1332 C.2        1 <1>        0.000
     10 H          -1.4057    0.2017    0.4374 H.spc      1 <1>        0.000
     11 H          -1.5974    2.0056   -0.0856 H.spc      1 <1>        0.000
     12 H           0.7734    2.1833   -0.3931 H.spc      1 <1>        0.000
     13 H           0.8173   -0.6654    0.5387 H.spc      1 <1>        0.000
     14 H           3.8570   -0.1267    1.6113 H.spc      1 <1>        0.000
     15 H           4.6122   -2.2411    1.1569 H.spc      1 <1>        0.000
     16 H           2.6397   -2.5427   -1.2241 H.spc      1 <1>        0.000
     17 H           5.3468   -3.8504   -0.6333 H.spc      1 <1>        0.000
     18 H           4.1011   -4.2922   -1.9813 H.spc      1 <1>        0.000
@<TRIPOS>BOND
     1    7    8 1  
     2    8    9 2  
     3    5    7 2  
     4    4    6 2  
     5    1    2 2  
     6    2    3 1  
     7    3    4 am 
     8    4    5 1  
     9    1   10 1  
    10    1   11 1  
    11    2   12 1  
    12    3   13 1  
    13    5   14 1  
    14    7   15 1  
    15    8   16 1  
    16    9   17 1  
    17    9   18 1  
# Name:          frag3-233-6/96164
# Creation time: Sat Jun  5 12:53:15 2010


@<TRIPOS>MOLECULE
frag3-233-6/96164
   18    17     1     1     1
SMALL
USER_CHARGES


@<TRIPOS>ATOM
      1 C16        -0.8667    0.6783    0.1936 C.2        1 <1>        0.000
      2 C18         0.3998    0.3386    0.3716 C.2        1 <1>        0.000
      3 N1          1.3684    0.5315   -0.5405 N.am       1 <1>        0.000
      4 C19         2.6900    0.3050   -0.3437 C.2        1 <1>        0.000
      5 C20         3.1071   -0.5380    0.8153 C.2        1 <1>        0.000
      6 O6          3.5451    0.7891   -1.0666 O.2        1 <1>        0.000
      7 C21         3.7365   -1.7302    0.7678 C.2        1 <1>        0.000
      8 C22         4.1614   -2.5103   -0.3855 C.2        1 <1>        0.000
      9 C23         3.3392   -2.8486   -1.3844 C.2        1 <1>        0.000
     10 H          -1.1794    1.1463   -0.7398 H.spc      1 <1>        0.000
     11 H          -1.5972    0.4901    0.9804 H.spc      1 <1>        0.000
     12 H           0.6752   -0.1272    1.3178 H.spc      1 <1>        0.000
     13 H           1.0849    0.8772   -1.4573 H.spc      1 <1>        0.000
     14 H           2.8784   -0.1482    1.8072 H.spc      1 <1>        0.000
     15 H           3.9602   -2.1757    1.7371 H.spc      1 <1>        0.000
     16 H           5.2008   -2.8346   -0.4374 H.spc      1 <1>        0.000
     17 H           2.2946   -2.5382   -1.3593 H.spc      1 <1>        0.000
     18 H           3.7136   -3.4348   -2.2237 H.spc      1 <1>        0.000
@<TRIPOS>BOND
     1    7    8 1  
     2    8    9 2  
     3    5    7 2  
     4    4    6 2  
     5    1    2 2  
     6    2    3 1  
     7    3    4 am 
     8    4    5 1  
     9    1   10 1  
    10    1   11 1  
    11    2   12 1  
    12    3   13 1  
    13    5   14 1  
    14    7   15 1  
    15    8   16 1  
    16    9   17 1  
    17    9   18 1  
# Name:          frag3-233-6/96164
# Creation time: Sat Jun  5 12:53:15 2010


@<TRIPOS>MOLECULE
frag3-233-6/96164
   18    17     1     1     1
SMALL
USER_CHARGES


@<TRIPOS>ATOM
      1 C16        -0.7730    0.5817   -0.4003 C.2        1 <1>        0.000
      2 C18         0.5227    0.3742   -0.5756 C.2        1 <1>        0.000
      3 N1          1.4655    0.6850    0.3318 N.am       1 <1>        0.000
      4 C19         2.7592    0.2878    0.2822 C.2        1 <1>        0.000
      5 C20         3.3178   -0.1842   -1.0187 C.2        1 <1>        0.000
      6 O6          3.4821    0.3092    1.2657 O.2        1 <1>        0.000
      7 C21         3.5542   -1.4575   -1.3942 C.2        1 <1>        0.000
      8 C22         3.3509   -2.6949   -0.6540 C.2        1 <1>        0.000
      9 C23         3.8014   -2.8858    0.5906 C.2        1 <1>        0.000
     10 H          -1.1327    1.0307    0.5255 H.spc      1 <1>        0.000
     11 H          -1.4801    0.3036   -1.1818 H.spc      1 <1>        0.000
     12 H           0.8456   -0.0767   -1.5140 H.spc      1 <1>        0.000
     13 H           1.1834    1.2667    1.1208 H.spc      1 <1>        0.000
     14 H           3.5625    0.5880   -1.7481 H.spc      1 <1>        0.000
     15 H           3.9568   -1.5783   -2.3999 H.spc      1 <1>        0.000
     16 H           2.8050   -3.5049   -1.1378 H.spc      1 <1>        0.000
     17 H           4.3504   -2.0932    1.0990 H.spc      1 <1>        0.000
     18 H           3.6195   -3.8340    1.0966 H.spc      1 <1>        0.000
@<TRIPOS>BOND
     1    7    8 1  
     2    8    9 2  
     3    5    7 2  
     4    4    6 2  
     5    1    2 2  
     6    2    3 1  
     7    3    4 am 
     8    4    5 1  
     9    1   10 1  
    10    1   11 1  
    11    2   12 1  
    12    3   13 1  
    13    5   14 1  
    14    7   15 1  
    15    8   16 1  
    16    9   17 1  
    17    9   18 1  
# Name:          frag3-233-6/96164
# Creation time: Sat Jun  5 12:53:15 2010


@<TRIPOS>MOLECULE
frag3-233-6/96164
   18    17     1     1     1
SMALL
USER_CHARGES


@<TRIPOS>ATOM
      1 C16        -0.4445   -0.4814   -0.1168 C.2        1 <1>        0.000
      2 C18         0.7826   -0.1490    0.2630 C.2        1 <1>        0.000
      3 N1          1.6560    0.5117   -0.5242 N.am       1 <1>        0.000
      4 C19         2.9773    0.6427   -0.2662 C.2        1 <1>        0.000
      5 C20         3.6333   -0.2871    0.6962 C.2        1 <1>        0.000
      6 O6          3.6511    1.5180   -0.7881 O.2        1 <1>        0.000
      7 C21         3.5321   -1.6316    0.7406 C.2        1 <1>        0.000
      8 C22         2.7669   -2.5313   -0.1248 C.2        1 <1>        0.000
      9 C23         2.9260   -2.5763   -1.4523 C.2        1 <1>        0.000
     10 H          -0.7957   -0.2198   -1.1150 H.spc      1 <1>        0.000
     11 H          -1.1013   -1.0160    0.5694 H.spc      1 <1>        0.000
     12 H           1.1028   -0.4254    1.2676 H.spc      1 <1>        0.000
     13 H           1.2944    0.9433   -1.3747 H.spc      1 <1>        0.000
     14 H           4.2692    0.1730    1.4526 H.spc      1 <1>        0.000
     15 H           4.1009   -2.1173    1.5335 H.spc      1 <1>        0.000
     16 H           2.0338   -3.1950    0.3337 H.spc      1 <1>        0.000
     17 H           3.6522   -1.9235   -1.9366 H.spc      1 <1>        0.000
     18 H           2.3294   -3.2658   -2.0496 H.spc      1 <1>        0.000
@<TRIPOS>BOND
     1    7    8 1  
     2    8    9 2  
     3    5    7 2  
     4    4    6 2  
     5    1    2 2  
     6    2    3 1  
     7    3    4 am 
     8    4    5 1  
     9    1   10 1  
    10    1   11 1  
    11    2   12 1  
    12    3   13 1  
    13    5   14 1  
    14    7   15 1  
    15    8   16 1  
    16    9   17 1  
    17    9   18 1  
# Name:          frag3-233-6/96164
# Creation time: Sat Jun  5 12:53:15 2010


@<TRIPOS>MOLECULE
frag3-233-6/96164
   18    17     1     1     1
SMALL
USER_CHARGES


@<TRIPOS>ATOM
      1 C16        -0.7062    0.1298    0.0017 C.2        1 <1>        0.000
      2 C18         0.5915    0.0497    0.2639 C.2        1 <1>        0.000
      3 N1          1.5242    0.8216   -0.3276 N.am       1 <1>        0.000
      4 C19         2.8610    0.6504   -0.2023 C.2        1 <1>        0.000
      5 C20         3.3775   -0.3758    0.7473 C.2        1 <1>        0.000
      6 O6          3.6593    1.3220   -0.8359 O.2        1 <1>        0.000
      7 C21         3.4169   -1.7103    0.5723 C.2        1 <1>        0.000
      8 C22         2.9781   -2.5129   -0.5686 C.2        1 <1>        0.000
      9 C23         3.7785   -3.3590   -1.2233 C.2        1 <1>        0.000
     10 H          -1.0710    0.8514   -0.7293 H.spc      1 <1>        0.000
     11 H          -1.4079   -0.5259    0.5172 H.spc      1 <1>        0.000
     12 H           0.9225   -0.6827    1.0002 H.spc      1 <1>        0.000
     13 H           1.1990    1.5913   -0.9126 H.spc      1 <1>        0.000
     14 H           3.7689   -0.0025    1.6936 H.spc      1 <1>        0.000
     15 H           3.8380   -2.2757    1.4036 H.spc      1 <1>        0.000
     16 H           1.9449   -2.4159   -0.9021 H.spc      1 <1>        0.000
     17 H           4.8167   -3.4775   -0.9131 H.spc      1 <1>        0.000
     18 H           3.3933   -3.9308   -2.0676 H.spc      1 <1>        0.000
@<TRIPOS>BOND
     1    7    8 1  
     2    8    9 2  
     3    5    7 2  
     4    4    6 2  
     5    1    2 2  
     6    2    3 1  
     7    3    4 am 
     8    4    5 1  
     9    1   10 1  
    10    1   11 1  
    11    2   12 1  
    12    3   13 1  
    13    5   14 1  
    14    7   15 1  
    15    8   16 1  
    16    9   17 1  
    17    9   18 1  
# Name:          frag3-233-6/96164 -- energy: -1.640583
# Creation time: Sat Jun  5 12:53:15 2010


@<TRIPOS>MOLECULE
frag3-233-6/96164 -- energy: -1.640583
   18    17     1     1     1
SMALL
USER_CHARGES


@<TRIPOS>ATOM
      1 C16        -0.8416    0.3770   -0.1867 C.2        1 <1>        0.000
      2 C18         0.4099    0.8412   -0.2117 C.2        1 <1>        0.000
      3 N1          1.4850    0.0759    0.0949 N.am       1 <1>        0.000
      4 C19         2.7647    0.5170    0.0283 C.2        1 <1>        0.000
      5 C20         3.8834   -0.3670    0.4342 C.2        1 <1>        0.000
      6 O6          3.0165    1.6498   -0.3606 O.2        1 <1>        0.000
      7 C21         4.0721   -1.6625    0.1298 C.2        1 <1>        0.000
      8 C22         3.2230   -2.5541   -0.6807 C.2        1 <1>        0.000
      9 C23         3.4681   -3.8618   -0.8200 C.2        1 <1>        0.000
     10 H          -1.0328   -0.6600    0.0894 H.spc      1 <1>        0.000
     11 H          -1.6721    1.0350   -0.4424 H.spc      1 <1>        0.000
     12 H           0.5740    1.8819   -0.4911 H.spc      1 <1>        0.000
     13 H           1.3222   -0.8860    0.3925 H.spc      1 <1>        0.000
     14 H           4.6501    0.0917    1.0586 H.spc      1 <1>        0.000
     15 H           4.9758   -2.1153    0.5377 H.spc      1 <1>        0.000
     16 H           2.3574   -2.1292   -1.1889 H.spc      1 <1>        0.000
     17 H           4.3273   -4.3113   -0.3222 H.spc      1 <1>        0.000
     18 H           2.8086   -4.4778   -1.4313 H.spc      1 <1>        0.000
@<TRIPOS>BOND
     1    7    8 1  
     2    8    9 2  
     3    5    7 2  
     4    4    6 2  
     5    1    2 2  
     6    2    3 1  
     7    3    4 am 
     8    4    5 1  
     9    1   10 1  
    10    1   11 1  
    11    2   12 1  
    12    3   13 1  
    13    5   14 1  
    14    7   15 1  
    15    8   16 1  
    16    9   17 1  
    17    9   18 1  
# Name:          frag3-233-6/96164 -- energy: -1.187982
# Creation time: Sat Jun  5 12:53:15 2010


@<TRIPOS>MOLECULE
frag3-233-6/96164 -- energy: -1.187982
   18    17     1     1     1
SMALL
USER_CHARGES


@<TRIPOS>ATOM
      1 C16        -0.7097    2.0105    0.3240 C.2        1 <1>        0.000
      2 C18         0.2662    1.2967   -0.2371 C.2        1 <1>        0.000
      3 N1          1.2547    0.7068    0.4765 N.am       1 <1>        0.000
      4 C19         2.2185   -0.0748   -0.0715 C.2        1 <1>        0.000
      5 C20         3.0878   -0.9028    0.7975 C.2        1 <1>        0.000
      6 O6          2.3812   -0.1051   -1.2838 O.2        1 <1>        0.000
      7 C21         3.9003   -1.9129    0.4376 C.2        1 <1>        0.000
      8 C22         4.1449   -2.4738   -0.9004 C.2        1 <1>        0.000
      9 C23         4.9370   -3.5292   -1.1154 C.2        1 <1>        0.000
     10 H          -0.7367    2.1410    1.4058 H.spc      1 <1>        0.000
     11 H          -1.4808    2.4638   -0.2990 H.spc      1 <1>        0.000
     12 H           0.2688    1.1824   -1.3211 H.spc      1 <1>        0.000
     13 H           1.2757    0.8591    1.4848 H.spc      1 <1>        0.000
     14 H           3.0662   -0.6636    1.8607 H.spc      1 <1>        0.000
     15 H           4.4548   -2.3811    1.2508 H.spc      1 <1>        0.000
     16 H           3.6575   -2.0071   -1.7564 H.spc      1 <1>        0.000
     17 H           5.4368   -4.0152   -0.2775 H.spc      1 <1>        0.000
     18 H           5.0830   -3.9036   -2.1286 H.spc      1 <1>        0.000
@<TRIPOS>BOND
     1    7    8 1  
     2    8    9 2  
     3    5    7 2  
     4    4    6 2  
     5    1    2 2  
     6    2    3 1  
     7    3    4 am 
     8    4    5 1  
     9    1   10 1  
    10    1   11 1  
    11    2   12 1  
    12    3   13 1  
    13    5   14 1  
    14    7   15 1  
    15    8   16 1  
    16    9   17 1  
    17    9   18 1  
# Name:          frag3-233-6/96164 -- energy: -1.488019
# Creation time: Sat Jun  5 12:53:15 2010


@<TRIPOS>MOLECULE
frag3-233-6/96164 -- energy: -1.488019
   18    17     1     1     1
SMALL
USER_CHARGES


@<TRIPOS>ATOM
      1 C16        -0.8331    0.4901   -0.4537 C.2        1 <1>        0.000
      2 C18         0.3926    0.8738   -0.0908 C.2        1 <1>        0.000
      3 N1          1.4898    0.0998   -0.2696 N.am       1 <1>        0.000
      4 C19         2.7469    0.4909    0.0514 C.2        1 <1>        0.000
      5 C20         3.9194   -0.2318   -0.4969 C.2        1 <1>        0.000
      6 O6          2.9344    1.4470    0.7926 O.2        1 <1>        0.000
      7 C21         4.1047   -1.5592   -0.5968 C.2        1 <1>        0.000
      8 C22         3.2046   -2.6514   -0.1871 C.2        1 <1>        0.000
      9 C23         3.5215   -3.9438   -0.3216 C.2        1 <1>        0.000
     10 H          -0.9842   -0.4851   -0.9166 H.spc      1 <1>        0.000
     11 H          -1.6830    1.1519   -0.2871 H.spc      1 <1>        0.000
     12 H           0.5163    1.8538    0.3701 H.spc      1 <1>        0.000
     13 H           1.3625   -0.8303   -0.6685 H.spc      1 <1>        0.000
     14 H           4.7338    0.3919   -0.8654 H.spc      1 <1>        0.000
     15 H           5.0499   -1.8702   -1.0417 H.spc      1 <1>        0.000
     16 H           2.2373   -2.3947    0.2449 H.spc      1 <1>        0.000
     17 H           4.4825   -4.2275   -0.7506 H.spc      1 <1>        0.000
     18 H           2.8187   -4.7134   -0.0022 H.spc      1 <1>        0.000
@<TRIPOS>BOND
     1    7    8 1  
     2    8    9 2  
     3    5    7 2  
     4    4    6 2  
     5    1    2 2  
     6    2    3 1  
     7    3    4 am 
     8    4    5 1  
     9    1   10 1  
    10    1   11 1  
    11    2   12 1  
    12    3   13 1  
    13    5   14 1  
    14    7   15 1  
    15    8   16 1  
    16    9   17 1  
    17    9   18 1  
# Name:          frag3-233-6/96164 -- energy: -1.726678
# Creation time: Sat Jun  5 12:53:15 2010


@<TRIPOS>MOLECULE
frag3-233-6/96164 -- energy: -1.726678
   18    17     1     1     1
SMALL
USER_CHARGES


@<TRIPOS>ATOM
      1 C16        -0.8287    0.6203   -0.5175 C.2        1 <1>        0.000
      2 C18         0.3854    0.7939    0.0061 C.2        1 <1>        0.000
      3 N1          1.5018    0.2324   -0.5163 N.am       1 <1>        0.000
      4 C19         2.7155    0.2671    0.0851 C.2        1 <1>        0.000
      5 C20         3.9209   -0.2140   -0.6308 C.2        1 <1>        0.000
      6 O6          2.8363    0.7006    1.2243 O.2        1 <1>        0.000
      7 C21         4.2319   -1.4759   -0.9788 C.2        1 <1>        0.000
      8 C22         3.4718   -2.7129   -0.7361 C.2        1 <1>        0.000
      9 C23         3.2461   -3.1961    0.4914 C.2        1 <1>        0.000
     10 H          -0.9555    0.0027   -1.4067 H.spc      1 <1>        0.000
     11 H          -1.6942    1.0960   -0.0563 H.spc      1 <1>        0.000
     12 H           0.4839    1.4163    0.8955 H.spc      1 <1>        0.000
     13 H           1.4244   -0.2443   -1.4147 H.spc      1 <1>        0.000
     14 H           4.6462    0.5502   -0.9103 H.spc      1 <1>        0.000
     15 H           5.1742   -1.5989   -1.5127 H.spc      1 <1>        0.000
     16 H           3.0759   -3.2586   -1.5926 H.spc      1 <1>        0.000
     17 H           3.6315   -2.6688    1.3641 H.spc      1 <1>        0.000
     18 H           2.6769   -4.1169    0.6185 H.spc      1 <1>        0.000
@<TRIPOS>BOND
     1    7    8 1  
     2    8    9 2  
     3    5    7 2  
     4    4    6 2  
     5    1    2 2  
     6    2    3 1  
     7    3    4 am 
     8    4    5 1  
     9    1   10 1  
    10    1   11 1  
    11    2   12 1  
    12    3   13 1  
    13    5   14 1  
    14    7   15 1  
    15    8   16 1  
    16    9   17 1  
    17    9   18 1  
# Name:          frag3-233-6/96164 -- energy: -1.568802
# Creation time: Sat Jun  5 12:53:15 2010


@<TRIPOS>MOLECULE
frag3-233-6/96164 -- energy: -1.568802
   18    17     1     1     1
SMALL
USER_CHARGES


@<TRIPOS>ATOM
      1 C16        -0.9005    1.1529    0.2975 C.2        1 <1>        0.000
      2 C18         0.2487    0.4939    0.2535 C.2        1 <1>        0.000
      3 N1          1.3953    1.0152   -0.2231 N.am       1 <1>        0.000
      4 C19         2.5939    0.3819   -0.2294 C.2        1 <1>        0.000
      5 C20         2.8035   -0.7656    0.6991 C.2        1 <1>        0.000
      6 O6          3.5004    0.7259   -0.9680 O.2        1 <1>        0.000
      7 C21         3.3417   -1.9637    0.4108 C.2        1 <1>        0.000
      8 C22         3.8526   -2.4775   -0.8569 C.2        1 <1>        0.000
      9 C23         4.6453   -3.5475   -0.9559 C.2        1 <1>        0.000
     10 H          -0.9545    2.1792   -0.0658 H.spc      1 <1>        0.000
     11 H          -1.7915    0.6686    0.6970 H.spc      1 <1>        0.000
     12 H           0.2668   -0.5306    0.6251 H.spc      1 <1>        0.000
     13 H           1.3591    1.9587   -0.6089 H.spc      1 <1>        0.000
     14 H           2.4837   -0.6162    1.7303 H.spc      1 <1>        0.000
     15 H           3.4063   -2.6559    1.2503 H.spc      1 <1>        0.000
     16 H           3.5713   -1.9588   -1.7734 H.spc      1 <1>        0.000
     17 H           4.9450   -4.0886   -0.0584 H.spc      1 <1>        0.000
     18 H           4.9926   -3.8798   -1.9342 H.spc      1 <1>        0.000
@<TRIPOS>BOND
     1    7    8 1  
     2    8    9 2  
     3    5    7 2  
     4    4    6 2  
     5    1    2 2  
     6    2    3 1  
     7    3    4 am 
     8    4    5 1  
     9    1   10 1  
    10    1   11 1  
    11    2   12 1  
    12    3   13 1  
    13    5   14 1  
    14    7   15 1  
    15    8   16 1  
    16    9   17 1  
    17    9   18 1  
# Name:          frag3-233-6/96164 -- energy: -1.706300
# Creation time: Sat Jun  5 12:53:15 2010


@<TRIPOS>MOLECULE
frag3-233-6/96164 -- energy: -1.706300
   18    17     1     1     1
SMALL
USER_CHARGES


@<TRIPOS>ATOM
      1 C16        -0.7528    0.3009   -0.3992 C.2        1 <1>        0.000
      2 C18         0.5618    0.2921   -0.5791 C.2        1 <1>        0.000
      3 N1          1.4509    0.6111    0.3821 N.am       1 <1>        0.000
      4 C19         2.7952    0.5988    0.2258 C.2        1 <1>        0.000
      5 C20         3.3890   -0.1518   -0.9164 C.2        1 <1>        0.000
      6 O6          3.5375    1.2006    0.9853 O.2        1 <1>        0.000
      7 C21         3.5924   -1.4796   -1.0046 C.2        1 <1>        0.000
      8 C22         3.3052   -2.5347   -0.0335 C.2        1 <1>        0.000
      9 C23         3.6018   -3.8218   -0.2329 C.2        1 <1>        0.000
     10 H          -1.1684    0.5774    0.5698 H.spc      1 <1>        0.000
     11 H          -1.4171    0.0316   -1.2204 H.spc      1 <1>        0.000
     12 H           0.9444    0.0108   -1.5602 H.spc      1 <1>        0.000
     13 H           1.0837    0.8817    1.2944 H.spc      1 <1>        0.000
     14 H           3.6932    0.4418   -1.7785 H.spc      1 <1>        0.000
     15 H           4.0378   -1.8191   -1.9397 H.spc      1 <1>        0.000
     16 H           2.8231   -2.2558    0.9035 H.spc      1 <1>        0.000
     17 H           4.0841   -4.1327   -1.1596 H.spc      1 <1>        0.000
     18 H           3.3615   -4.5612    0.5311 H.spc      1 <1>        0.000
@<TRIPOS>BOND
     1    7    8 1  
     2    8    9 2  
     3    5    7 2  
     4    4    6 2  
     5    1    2 2  
     6    2    3 1  
     7    3    4 am 
     8    4    5 1  
     9    1   10 1  
    10    1   11 1  
    11    2   12 1  
    12    3   13 1  
    13    5   14 1  
    14    7   15 1  
    15    8   16 1  
    16    9   17 1  
    17    9   18 1  
# Name:          frag3-233-6/96164 -- energy: -1.506021
# Creation time: Sat Jun  5 12:53:15 2010


@<TRIPOS>MOLECULE
frag3-233-6/96164 -- energy: -1.506021
   18    17     1     1     1
SMALL
USER_CHARGES


@<TRIPOS>ATOM
      1 C16        -0.6303    1.9242   -0.3384 C.2        1 <1>        0.000
      2 C18         0.1755    0.9253    0.0184 C.2        1 <1>        0.000
      3 N1          1.4688    0.8410   -0.3739 N.am       1 <1>        0.000
      4 C19         2.3038   -0.1668   -0.0167 C.2        1 <1>        0.000
      5 C20         3.7017   -0.1841   -0.5081 C.2        1 <1>        0.000
      6 O6          1.9134   -1.0693    0.7121 O.2        1 <1>        0.000
      7 C21         4.5751   -1.2092   -0.4907 C.2        1 <1>        0.000
      8 C22         4.3840   -2.5768    0.0136 C.2        1 <1>        0.000
      9 C23         3.5889   -3.4689   -0.5888 C.2        1 <1>        0.000
     10 H          -0.2561    2.7250   -0.9762 H.spc      1 <1>        0.000
     11 H          -1.6639    1.9407    0.0074 H.spc      1 <1>        0.000
     12 H          -0.2254    0.1380    0.6568 H.spc      1 <1>        0.000
     13 H           1.8371    1.5792   -0.9737 H.spc      1 <1>        0.000
     14 H           4.0686    0.7485   -0.9368 H.spc      1 <1>        0.000
     15 H           5.5591   -0.9954   -0.9080 H.spc      1 <1>        0.000
     16 H           4.9132   -2.8774    0.9179 H.spc      1 <1>        0.000
     17 H           3.0486   -3.1933   -1.4945 H.spc      1 <1>        0.000
     18 H           3.4816   -4.4711   -0.1738 H.spc      1 <1>        0.000
@<TRIPOS>BOND
     1    7    8 1  
     2    8    9 2  
     3    5    7 2  
     4    4    6 2  
     5    1    2 2  
     6    2    3 1  
     7    3    4 am 
     8    4    5 1  
     9    1   10 1  
    10    1   11 1  
    11    2   12 1  
    12    3   13 1  
    13    5   14 1  
    14    7   15 1  
    15    8   16 1  
    16    9   17 1  
    17    9   18 1  
# Name:          frag3-233-6/96164 -- energy: -1.951661
# Creation time: Sat Jun  5 12:53:15 2010


@<TRIPOS>MOLECULE
frag3-233-6/96164 -- energy: -1.951661
   18    17     1     1     1
SMALL
USER_CHARGES


@<TRIPOS>ATOM
      1 C16        -0.6917    0.0086   -0.4825 C.2        1 <1>        0.000
      2 C18         0.4717    0.4730   -0.0232 C.2        1 <1>        0.000
      3 N1          1.6706    0.0376   -0.4782 N.am       1 <1>        0.000
      4 C19         2.8599    0.5318   -0.0581 C.2        1 <1>        0.000
      5 C20         4.1078   -0.2423   -0.2608 C.2        1 <1>        0.000
      6 O6          2.9235    1.6226    0.4952 O.2        1 <1>        0.000
      7 C21         4.2854   -1.5722   -0.1655 C.2        1 <1>        0.000
      8 C22         3.2976   -2.6137    0.1643 C.2        1 <1>        0.000
      9 C23         2.5561   -3.2298   -0.7638 C.2        1 <1>        0.000
     10 H          -0.7049   -0.7561   -1.2591 H.spc      1 <1>        0.000
     11 H          -1.6290    0.3939   -0.0811 H.spc      1 <1>        0.000
     12 H           0.4565    1.2376    0.7535 H.spc      1 <1>        0.000
     13 H           1.6786   -0.7051   -1.1773 H.spc      1 <1>        0.000
     14 H           4.9926    0.3393   -0.5196 H.spc      1 <1>        0.000
     15 H           5.2977   -1.9273   -0.3585 H.spc      1 <1>        0.000
     16 H           3.1648   -2.8947    1.2091 H.spc      1 <1>        0.000
     17 H           2.6702   -2.9667   -1.8154 H.spc      1 <1>        0.000
     18 H           1.8381   -3.9947   -0.4682 H.spc      1 <1>        0.000
@<TRIPOS>BOND
     1    7    8 1  
     2    8    9 2  
     3    5    7 2  
     4    4    6 2  
     5    1    2 2  
     6    2    3 1  
     7    3    4 am 
     8    4    5 1  
     9    1   10 1  
    10    1   11 1  
    11    2   12 1  
    12    3   13 1  
    13    5   14 1  
    14    7   15 1  
    15    8   16 1  
    16    9   17 1  
    17    9   18 1  
# Name:          frag3-233-6/96164 -- energy: -1.488289
# Creation time: Sat Jun  5 12:53:15 2010


@<TRIPOS>MOLECULE
frag3-233-6/96164 -- energy: -1.488289
   18    17     1     1     1
SMALL
USER_CHARGES


@<TRIPOS>ATOM
      1 C16        -0.8529    1.7174   -0.2718 C.2        1 <1>        0.000
      2 C18         0.3672    1.3848    0.1464 C.2        1 <1>        0.000
      3 N1          1.1921    0.5678   -0.5500 N.am       1 <1>        0.000
      4 C19         2.3292    0.0294   -0.0442 C.2        1 <1>        0.000
      5 C20         3.4072   -0.4244   -0.9542 C.2        1 <1>        0.000
      6 O6          2.4824   -0.0805    1.1657 O.2        1 <1>        0.000
      7 C21         4.0293   -1.6166   -0.9711 C.2        1 <1>        0.000
      8 C22         3.8202   -2.7839   -0.1030 C.2        1 <1>        0.000
      9 C23         4.7064   -3.7786    0.0098 C.2        1 <1>        0.000
     10 H          -1.2304    1.3270   -1.2169 H.spc      1 <1>        0.000
     11 H          -1.4739    2.3800    0.3311 H.spc      1 <1>        0.000
     12 H           0.7185    1.7900    1.0953 H.spc      1 <1>        0.000
     13 H           0.9432    0.3437   -1.5134 H.spc      1 <1>        0.000
     14 H           3.7365    0.2970   -1.7020 H.spc      1 <1>        0.000
     15 H           4.7966   -1.7336   -1.7364 H.spc      1 <1>        0.000
     16 H           2.8988   -2.8414    0.4765 H.spc      1 <1>        0.000
     17 H           5.6363   -3.7471   -0.5580 H.spc      1 <1>        0.000
     18 H           4.4990   -4.6211    0.6696 H.spc      1 <1>        0.000
@<TRIPOS>BOND
     1    7    8 1  
     2    8    9 2  
     3    5    7 2  
     4    4    6 2  
     5    1    2 2  
     6    2    3 1  
     7    3    4 am 
     8    4    5 1  
     9    1   10 1  
    10    1   11 1  
    11    2   12 1  
    12    3   13 1  
    13    5   14 1  
    14    7   15 1  
    15    8   16 1  
    16    9   17 1  
    17    9   18 1  
# Name:          frag3-233-6/96164 -- energy: -1.761677
# Creation time: Sat Jun  5 12:53:15 2010


@<TRIPOS>MOLECULE
frag3-233-6/96164 -- energy: -1.761677
   18    17     1     1     1
SMALL
USER_CHARGES


@<TRIPOS>ATOM
      1 C16        -0.8835    0.8200    0.0735 C.2        1 <1>        0.000
      2 C18         0.3565    0.6842   -0.3955 C.2        1 <1>        0.000
      3 N1          1.4014    0.3012    0.3761 N.am       1 <1>        0.000
      4 C19         2.6791    0.2218   -0.0681 C.2        1 <1>        0.000
      5 C20         3.7089   -0.4788    0.7354 C.2        1 <1>        0.000
      6 O6          3.0025    0.7322   -1.1338 O.2        1 <1>        0.000
      7 C21         4.0894   -1.7681    0.6544 C.2        1 <1>        0.000
      8 C22         3.5921   -2.8218   -0.2427 C.2        1 <1>        0.000
      9 C23         3.5345   -2.6752   -1.5718 C.2        1 <1>        0.000
     10 H          -1.0938    0.6195    1.1241 H.spc      1 <1>        0.000
     11 H          -1.6874    1.1315   -0.5935 H.spc      1 <1>        0.000
     12 H           0.5383    0.8912   -1.4501 H.spc      1 <1>        0.000
     13 H           1.2157    0.0581    1.3491 H.spc      1 <1>        0.000
     14 H           4.2218    0.1242    1.4847 H.spc      1 <1>        0.000
     15 H           4.8729   -2.0721    1.3485 H.spc      1 <1>        0.000
     16 H           3.2560   -3.7625    0.1934 H.spc      1 <1>        0.000
     17 H           3.8647   -1.7440   -2.0322 H.spc      1 <1>        0.000
     18 H           3.1574   -3.4870   -2.1938 H.spc      1 <1>        0.000
@<TRIPOS>BOND
     1    7    8 1  
     2    8    9 2  
     3    5    7 2  
     4    4    6 2  
     5    1    2 2  
     6    2    3 1  
     7    3    4 am 
     8    4    5 1  
     9    1   10 1  
    10    1   11 1  
    11    2   12 1  
    12    3   13 1  
    13    5   14 1  
    14    7   15 1  
    15    8   16 1  
    16    9   17 1  
    17    9   18 1  
# Name:          frag3-233-6/96164 -- energy: -1.517966
# Creation time: Sat Jun  5 12:53:15 2010


@<TRIPOS>MOLECULE
frag3-233-6/96164 -- energy: -1.517966
   18    17     1     1     1
SMALL
USER_CHARGES


@<TRIPOS>ATOM
      1 C16        -0.8876    1.0837   -0.2258 C.2        1 <1>        0.000
      2 C18         0.3078    0.5363   -0.3957 C.2        1 <1>        0.000
      3 N1          1.3946    0.8674    0.3277 N.am       1 <1>        0.000
      4 C19         2.6395    0.3695    0.1313 C.2        1 <1>        0.000
      5 C20         2.8987   -0.4622   -1.0787 C.2        1 <1>        0.000
      6 O6          3.5511    0.5868    0.9108 O.2        1 <1>        0.000
      7 C21         3.3236   -1.7378   -1.1192 C.2        1 <1>        0.000
      8 C22         3.6499   -2.6477   -0.0241 C.2        1 <1>        0.000
      9 C23         4.6033   -3.5805   -0.0988 C.2        1 <1>        0.000
     10 H          -1.0329    1.8498    0.5358 H.spc      1 <1>        0.000
     11 H          -1.7251    0.7677   -0.8477 H.spc      1 <1>        0.000
     12 H           0.4176   -0.2267   -1.1663 H.spc      1 <1>        0.000
     13 H           1.2712    1.5444    1.0806 H.spc      1 <1>        0.000
     14 H           2.7238    0.0187   -2.0411 H.spc      1 <1>        0.000
     15 H           3.4422   -2.1551   -2.1192 H.spc      1 <1>        0.000
     16 H           3.0850   -2.5609    0.9041 H.spc      1 <1>        0.000
     17 H           5.1858   -3.6925   -1.0133 H.spc      1 <1>        0.000
     18 H           4.7987   -4.2296    0.7547 H.spc      1 <1>        0.000
@<TRIPOS>BOND
     1    7    8 1  
     2    8    9 2  
     3    5    7 2  
     4    4    6 2  
     5    1    2 2  
     6    2    3 1  
     7    3    4 am 
     8    4    5 1  
     9    1   10 1  
    10    1   11 1  
    11    2   12 1  
    12    3   13 1  
    13    5   14 1  
    14    7   15 1  
    15    8   16 1  
    16    9   17 1  
    17    9   18 1  
# Name:          frag3-233-6/96164 -- energy: -1.637789
# Creation time: Sat Jun  5 12:53:15 2010


@<TRIPOS>MOLECULE
frag3-233-6/96164 -- energy: -1.637789
   18    17     1     1     1
SMALL
USER_CHARGES


@<TRIPOS>ATOM
      1 C16        -0.6080   -0.1357   -0.5437 C.2        1 <1>        0.000
      2 C18         0.5181    0.5265   -0.2711 C.2        1 <1>        0.000
      3 N1          1.6575   -0.0890    0.1241 N.am       1 <1>        0.000
      4 C19         2.8690    0.5162    0.1543 C.2        1 <1>        0.000
      5 C20         4.1123   -0.2878    0.0770 C.2        1 <1>        0.000
      6 O6          2.9574    1.7343    0.2455 O.2        1 <1>        0.000
      7 C21         4.2611   -1.5476   -0.3700 C.2        1 <1>        0.000
      8 C22         3.2364   -2.4686   -0.8913 C.2        1 <1>        0.000
      9 C23         2.4772   -3.2329   -0.0972 C.2        1 <1>        0.000
     10 H          -0.6377   -1.2214   -0.4517 H.spc      1 <1>        0.000
     11 H          -1.4981    0.4091   -0.8584 H.spc      1 <1>        0.000
     12 H           0.5207    1.6119   -0.3711 H.spc      1 <1>        0.000
     13 H           1.6003   -1.0647    0.4159 H.spc      1 <1>        0.000
     14 H           5.0201    0.2040    0.4264 H.spc      1 <1>        0.000
     15 H           5.2776   -1.9402   -0.3428 H.spc      1 <1>        0.000
     16 H           3.0903   -2.5302   -1.9697 H.spc      1 <1>        0.000
     17 H           2.6041   -3.1894    0.9845 H.spc      1 <1>        0.000
     18 H           1.7319   -3.8989   -0.5322 H.spc      1 <1>        0.000
@<TRIPOS>BOND
     1    7    8 1  
     2    8    9 2  
     3    5    7 2  
     4    4    6 2  
     5    1    2 2  
     6    2    3 1  
     7    3    4 am 
     8    4    5 1  
     9    1   10 1  
    10    1   11 1  
    11    2   12 1  
    12    3   13 1  
    13    5   14 1  
    14    7   15 1  
    15    8   16 1  
    16    9   17 1  
    17    9   18 1  
# Name:          frag3-233-6/96164 -- energy: -1.543288
# Creation time: Sat Jun  5 12:53:15 2010


@<TRIPOS>MOLECULE
frag3-233-6/96164 -- energy: -1.543288
   18    17     1     1     1
SMALL
USER_CHARGES


@<TRIPOS>ATOM
      1 C16        -0.9622    1.1409    0.1069 C.2        1 <1>        0.000
      2 C18         0.3568    1.2321   -0.0619 C.2        1 <1>        0.000
      3 N1          1.2037    0.1987    0.1587 N.am       1 <1>        0.000
      4 C19         2.5341    0.2442   -0.0954 C.2        1 <1>        0.000
      5 C20         3.4747   -0.5823    0.6978 C.2        1 <1>        0.000
      6 O6          2.9785    0.9771   -0.9699 O.2        1 <1>        0.000
      7 C21         3.9148   -1.8239    0.4305 C.2        1 <1>        0.000
      8 C22         3.5861   -2.6977   -0.7060 C.2        1 <1>        0.000
      9 C23         4.3945   -3.6736   -1.1332 C.2        1 <1>        0.000
     10 H          -1.4057    0.2017    0.4374 H.spc      1 <1>        0.000
     11 H          -1.5974    2.0056   -0.0856 H.spc      1 <1>        0.000
     12 H           0.7734    2.1833   -0.3931 H.spc      1 <1>        0.000
     13 H           0.8173   -0.6654    0.5387 H.spc      1 <1>        0.000
     14 H           3.8570   -0.1267    1.6113 H.spc      1 <1>        0.000
     15 H           4.6122   -2.2411    1.1569 H.spc      1 <1>        0.000
     16 H           2.6397   -2.5427   -1.2241 H.spc      1 <1>        0.000
     17 H           5.3468   -3.8504   -0.6333 H.spc      1 <1>        0.000
     18 H           4.1011   -4.2922   -1.9813 H.spc      1 <1>        0.000
@<TRIPOS>BOND
     1    7    8 1  
     2    8    9 2  
     3    5    7 2  
     4    4    6 2  
     5    1    2 2  
     6    2    3 1  
     7    3    4 am 
     8    4    5 1  
     9    1   10 1  
    10    1   11 1  
    11    2   12 1  
    12    3   13 1  
    13    5   14 1  
    14    7   15 1  
    15    8   16 1  
    16    9   17 1  
    17    9   18 1  
# Name:          frag3-233-6/96164 -- energy: -1.812255
# Creation time: Sat Jun  5 12:53:15 2010


@<TRIPOS>MOLECULE
frag3-233-6/96164 -- energy: -1.812255
   18    17     1     1     1
SMALL
USER_CHARGES


@<TRIPOS>ATOM
      1 C16        -0.8667    0.6783    0.1936 C.2        1 <1>        0.000
      2 C18         0.3998    0.3386    0.3716 C.2        1 <1>        0.000
      3 N1          1.3684    0.5315   -0.5405 N.am       1 <1>        0.000
      4 C19         2.6900    0.3050   -0.3437 C.2        1 <1>        0.000
      5 C20         3.1071   -0.5380    0.8153 C.2        1 <1>        0.000
      6 O6          3.5451    0.7891   -1.0666 O.2        1 <1>        0.000
      7 C21         3.7365   -1.7302    0.7678 C.2        1 <1>        0.000
      8 C22         4.1614   -2.5103   -0.3855 C.2        1 <1>        0.000
      9 C23         3.3392   -2.8486   -1.3844 C.2        1 <1>        0.000
     10 H          -1.1794    1.1463   -0.7398 H.spc      1 <1>        0.000
     11 H          -1.5972    0.4901    0.9804 H.spc      1 <1>        0.000
     12 H           0.6752   -0.1272    1.3178 H.spc      1 <1>        0.000
     13 H           1.0849    0.8772   -1.4573 H.spc      1 <1>        0.000
     14 H           2.8784   -0.1482    1.8072 H.spc      1 <1>        0.000
     15 H           3.9602   -2.1757    1.7371 H.spc      1 <1>        0.000
     16 H           5.2008   -2.8346   -0.4374 H.spc      1 <1>        0.000
     17 H           2.2946   -2.5382   -1.3593 H.spc      1 <1>        0.000
     18 H           3.7136   -3.4348   -2.2237 H.spc      1 <1>        0.000
@<TRIPOS>BOND
     1    7    8 1  
     2    8    9 2  
     3    5    7 2  
     4    4    6 2  
     5    1    2 2  
     6    2    3 1  
     7    3    4 am 
     8    4    5 1  
     9    1   10 1  
    10    1   11 1  
    11    2   12 1  
    12    3   13 1  
    13    5   14 1  
    14    7   15 1  
    15    8   16 1  
    16    9   17 1  
    17    9   18 1  
# Name:          frag3-233-6/96164 -- energy: -1.915334
# Creation time: Sat Jun  5 12:53:15 2010


@<TRIPOS>MOLECULE
frag3-233-6/96164 -- energy: -1.915334
   18    17     1     1     1
SMALL
USER_CHARGES


@<TRIPOS>ATOM
      1 C16        -0.7730    0.5817   -0.4003 C.2        1 <1>        0.000
      2 C18         0.5227    0.3742   -0.5756 C.2        1 <1>        0.000
      3 N1          1.4655    0.6850    0.3318 N.am       1 <1>        0.000
      4 C19         2.7592    0.2878    0.2822 C.2        1 <1>        0.000
      5 C20         3.3178   -0.1842   -1.0187 C.2        1 <1>        0.000
      6 O6          3.4821    0.3092    1.2657 O.2        1 <1>        0.000
      7 C21         3.5542   -1.4575   -1.3942 C.2        1 <1>        0.000
      8 C22         3.3509   -2.6949   -0.6540 C.2        1 <1>        0.000
      9 C23         3.8014   -2.8858    0.5906 C.2        1 <1>        0.000
     10 H          -1.1327    1.0307    0.5255 H.spc      1 <1>        0.000
     11 H          -1.4801    0.3036   -1.1818 H.spc      1 <1>        0.000
     12 H           0.8456   -0.0767   -1.5140 H.spc      1 <1>        0.000
     13 H           1.1834    1.2667    1.1208 H.spc      1 <1>        0.000
     14 H           3.5625    0.5880   -1.7481 H.spc      1 <1>        0.000
     15 H           3.9568   -1.5783   -2.3999 H.spc      1 <1>        0.000
     16 H           2.8050   -3.5049   -1.1378 H.spc      1 <1>        0.000
     17 H           4.3504   -2.0932    1.0990 H.spc      1 <1>        0.000
     18 H           3.6195   -3.8340    1.0966 H.spc      1 <1>        0.000
@<TRIPOS>BOND
     1    7    8 1  
     2    8    9 2  
     3    5    7 2  
     4    4    6 2  
     5    1    2 2  
     6    2    3 1  
     7    3    4 am 
     8    4    5 1  
     9    1   10 1  
    10    1   11 1  
    11    2   12 1  
    12    3   13 1  
    13    5   14 1  
    14    7   15 1  
    15    8   16 1  
    16    9   17 1  
    17    9   18 1  
# Name:          frag3-233-6/96164 -- energy: -2.356717
# Creation time: Sat Jun  5 12:53:15 2010


@<TRIPOS>MOLECULE
frag3-233-6/96164 -- energy: -2.356717
   18    17     1     1     1
SMALL
USER_CHARGES


@<TRIPOS>ATOM
      1 C16        -0.4445   -0.4814   -0.1168 C.2        1 <1>        0.000
      2 C18         0.7826   -0.1490    0.2630 C.2        1 <1>        0.000
      3 N1          1.6560    0.5117   -0.5242 N.am       1 <1>        0.000
      4 C19         2.9773    0.6427   -0.2662 C.2        1 <1>        0.000
      5 C20         3.6333   -0.2871    0.6962 C.2        1 <1>        0.000
      6 O6          3.6511    1.5180   -0.7881 O.2        1 <1>        0.000
      7 C21         3.5321   -1.6316    0.7406 C.2        1 <1>        0.000
      8 C22         2.7669   -2.5313   -0.1248 C.2        1 <1>        0.000
      9 C23         2.9260   -2.5763   -1.4523 C.2        1 <1>        0.000
     10 H          -0.7957   -0.2198   -1.1150 H.spc      1 <1>        0.000
     11 H          -1.1013   -1.0160    0.5694 H.spc      1 <1>        0.000
     12 H           1.1028   -0.4254    1.2676 H.spc      1 <1>        0.000
     13 H           1.2944    0.9433   -1.3747 H.spc      1 <1>        0.000
     14 H           4.2692    0.1730    1.4526 H.spc      1 <1>        0.000
     15 H           4.1009   -2.1173    1.5335 H.spc      1 <1>        0.000
     16 H           2.0338   -3.1950    0.3337 H.spc      1 <1>        0.000
     17 H           3.6522   -1.9235   -1.9366 H.spc      1 <1>        0.000
     18 H           2.3294   -3.2658   -2.0496 H.spc      1 <1>        0.000
@<TRIPOS>BOND
     1    7    8 1  
     2    8    9 2  
     3    5    7 2  
     4    4    6 2  
     5    1    2 2  
     6    2    3 1  
     7    3    4 am 
     8    4    5 1  
     9    1   10 1  
    10    1   11 1  
    11    2   12 1  
    12    3   13 1  
    13    5   14 1  
    14    7   15 1  
    15    8   16 1  
    16    9   17 1  
    17    9   18 1  
# Name:          frag3-233-6/96164 -- energy: -1.799965
# Creation time: Sat Jun  5 12:53:15 2010


@<TRIPOS>MOLECULE
frag3-233-6/96164 -- energy: -1.799965
   18    17     1     1     1
SMALL
USER_CHARGES


@<TRIPOS>ATOM
      1 C16        -0.7062    0.1298    0.0017 C.2        1 <1>        0.000
      2 C18         0.5915    0.0497    0.2639 C.2        1 <1>        0.000
      3 N1          1.5242    0.8216   -0.3276 N.am       1 <1>        0.000
      4 C19         2.8610    0.6504   -0.2023 C.2        1 <1>        0.000
      5 C20         3.3775   -0.3758    0.7473 C.2        1 <1>        0.000
      6 O6          3.6593    1.3220   -0.8359 O.2        1 <1>        0.000
      7 C21         3.4169   -1.7103    0.5723 C.2        1 <1>        0.000
      8 C22         2.9781   -2.5129   -0.5686 C.2        1 <1>        0.000
      9 C23         3.7785   -3.3590   -1.2233 C.2        1 <1>        0.000
     10 H          -1.0710    0.8514   -0.7293 H.spc      1 <1>        0.000
     11 H          -1.4079   -0.5259    0.5172 H.spc      1 <1>        0.000
     12 H           0.9225   -0.6827    1.0002 H.spc      1 <1>        0.000
     13 H           1.1990    1.5913   -0.9126 H.spc      1 <1>        0.000
     14 H           3.7689   -0.0025    1.6936 H.spc      1 <1>        0.000
     15 H           3.8380   -2.2757    1.4036 H.spc      1 <1>        0.000
     16 H           1.9449   -2.4159   -0.9021 H.spc      1 <1>        0.000
     17 H           4.8167   -3.4775   -0.9131 H.spc      1 <1>        0.000
     18 H           3.3933   -3.9308   -2.0676 H.spc      1 <1>        0.000
@<TRIPOS>BOND
     1    7    8 1  
     2    8    9 2  
     3    5    7 2  
     4    4    6 2  
     5    1    2 2  
     6    2    3 1  
     7    3    4 am 
     8    4    5 1  
     9    1   10 1  
    10    1   11 1  
    11    2   12 1  
    12    3   13 1  
    13    5   14 1  
    14    7   15 1  
    15    8   16 1  
    16    9   17 1  
    17    9   18 1  
