#      Rotatable Fragment
#      Build by yxyuan
#
# Name:          frag4-478-92/150395
# Creation time: Sat Jun  5 12:53:37 2010


@<TRIPOS>MOLECULE
frag4-478-92/150395
   22    23     1     1     1
SMALL
USER_CHARGES


@<TRIPOS>ATOM
      1 C1         -1.3685   -0.0795    0.0792 C.ar       1 <1>        0.000
      2 C2         -1.3555   -1.4950    0.1237 C.ar       1 <1>        0.000
      3 C3         -0.0642    0.6783    0.2207 C.3        1 <1>        0.000
      4 C4         -2.5615    0.6170   -0.0952 C.ar       1 <1>        0.000
      5 C5         -0.0643   -2.2521    0.2736 C.3        1 <1>        0.000
      6 C6         -2.5920   -2.1617    0.0228 C.ar       1 <1>        0.000
      7 C7          1.2235   -0.0839    0.4197 C.3        1 <1>        0.000
      8 C8         -3.7691   -0.0736   -0.2198 C.ar       1 <1>        0.000
      9 C9          1.1358   -1.4530   -0.2559 C.3        1 <1>        0.000
     10 C10        -3.7826   -1.4673   -0.1541 C.ar       1 <1>        0.000
     11 H           0.0626    1.1894   -0.7336 H.spc      1 <1>        0.000
     12 H          -0.1825    1.2627    1.1331 H.spc      1 <1>        0.000
     13 H          -2.5529    1.7063   -0.1347 H.spc      1 <1>        0.000
     14 H           0.0962   -2.4457    1.3342 H.spc      1 <1>        0.000
     15 H          -0.1409   -3.1742   -0.3026 H.spc      1 <1>        0.000
     16 H          -2.6157   -3.2497    0.0850 H.spc      1 <1>        0.000
     17 H           1.3949   -0.2228    1.4871 H.spc      1 <1>        0.000
     18 H           2.0445    0.4805   -0.0225 H.spc      1 <1>        0.000
     19 H          -4.6992    0.4751   -0.3681 H.spc      1 <1>        0.000
     20 H           1.0123   -1.3062   -1.3289 H.spc      1 <1>        0.000
     21 H           2.0485   -2.0085   -0.0402 H.spc      1 <1>        0.000
     22 H          -4.7241   -2.0096   -0.2413 H.spc      1 <1>        0.000
@<TRIPOS>BOND
     1    3    7 1  
     2    8   10 ar 
     3    6   10 ar 
     4    2    6 ar 
     5    4    8 ar 
     6    5    9 1  
     7    1    3 1  
     8    1    2 ar 
     9    1    4 ar 
    10    2    5 1  
    11    7    9 1  
    12    3   11 1  
    13    3   12 1  
    14    4   13 1  
    15    5   14 1  
    16    5   15 1  
    17    6   16 1  
    18    7   17 1  
    19    7   18 1  
    20    8   19 1  
    21    9   20 1  
    22    9   21 1  
    23   10   22 1  
# Name:          frag4-478-92/150395 -- energy: -1.586570
# Creation time: Sat Jun  5 12:53:37 2010


@<TRIPOS>MOLECULE
frag4-478-92/150395 -- energy: -1.586570
   22    23     1     1     1
SMALL
USER_CHARGES


@<TRIPOS>ATOM
      1 C1         -1.3685   -0.0795    0.0792 C.ar       1 <1>        0.000
      2 C2         -1.3555   -1.4950    0.1237 C.ar       1 <1>        0.000
      3 C3         -0.0642    0.6783    0.2207 C.3        1 <1>        0.000
      4 C4         -2.5615    0.6170   -0.0952 C.ar       1 <1>        0.000
      5 C5         -0.0643   -2.2521    0.2736 C.3        1 <1>        0.000
      6 C6         -2.5920   -2.1617    0.0228 C.ar       1 <1>        0.000
      7 C7          1.2235   -0.0839    0.4197 C.3        1 <1>        0.000
      8 C8         -3.7691   -0.0736   -0.2198 C.ar       1 <1>        0.000
      9 C9          1.1358   -1.4530   -0.2559 C.3        1 <1>        0.000
     10 C10        -3.7826   -1.4673   -0.1541 C.ar       1 <1>        0.000
     11 H           0.0626    1.1894   -0.7336 H.spc      1 <1>        0.000
     12 H          -0.1825    1.2627    1.1331 H.spc      1 <1>        0.000
     13 H          -2.5529    1.7063   -0.1347 H.spc      1 <1>        0.000
     14 H           0.0962   -2.4457    1.3342 H.spc      1 <1>        0.000
     15 H          -0.1409   -3.1742   -0.3026 H.spc      1 <1>        0.000
     16 H          -2.6157   -3.2497    0.0850 H.spc      1 <1>        0.000
     17 H           1.3949   -0.2228    1.4871 H.spc      1 <1>        0.000
     18 H           2.0445    0.4805   -0.0225 H.spc      1 <1>        0.000
     19 H          -4.6992    0.4751   -0.3681 H.spc      1 <1>        0.000
     20 H           1.0123   -1.3062   -1.3289 H.spc      1 <1>        0.000
     21 H           2.0485   -2.0085   -0.0402 H.spc      1 <1>        0.000
     22 H          -4.7241   -2.0096   -0.2413 H.spc      1 <1>        0.000
@<TRIPOS>BOND
     1    3    7 1  
     2    8   10 ar 
     3    6   10 ar 
     4    2    6 ar 
     5    4    8 ar 
     6    5    9 1  
     7    1    3 1  
     8    1    2 ar 
     9    1    4 ar 
    10    2    5 1  
    11    7    9 1  
    12    3   11 1  
    13    3   12 1  
    14    4   13 1  
    15    5   14 1  
    16    5   15 1  
    17    6   16 1  
    18    7   17 1  
    19    7   18 1  
    20    8   19 1  
    21    9   20 1  
    22    9   21 1  
    23   10   22 1  
