#      Rotatable Fragment
#      Build by yxyuan
#
# Name:          frag2-024-10897/319335
# Creation time: Sat Jun  5 12:53:17 2010


@<TRIPOS>MOLECULE
frag2-024-10897/319335
    5     4     1     1     1
SMALL
USER_CHARGES


@<TRIPOS>ATOM
      1 S1         -2.7980   -0.4736    0.0098 S.o2       1 <1>        0.000
      2 O6         -4.0191   -1.1222   -0.4270 O.2        1 <1>        0.000
      3 O7         -1.5404   -1.1946   -0.0234 O.2        1 <1>        0.000
      4 H          -3.0005   -0.2190    1.2994 H.spc      1 <1>        0.000
      5 H          -2.6290    0.5281   -0.8487 H.spc      1 <1>        0.000
@<TRIPOS>BOND
     1    1    2 2  
     2    1    3 2  
     3    1    4 1  
     4    1    5 1  
# Name:          frag2-024-10897/319335 -- energy: 0.000000
# Creation time: Sat Jun  5 12:53:17 2010


@<TRIPOS>MOLECULE
frag2-024-10897/319335 -- energy: 0.000000
    5     4     1     1     1
SMALL
USER_CHARGES


@<TRIPOS>ATOM
      1 S1         -2.7980   -0.4736    0.0098 S.o2       1 <1>        0.000
      2 O6         -4.0191   -1.1222   -0.4270 O.2        1 <1>        0.000
      3 O7         -1.5404   -1.1946   -0.0234 O.2        1 <1>        0.000
      4 H          -3.0005   -0.2190    1.2994 H.spc      1 <1>        0.000
      5 H          -2.6290    0.5281   -0.8487 H.spc      1 <1>        0.000
@<TRIPOS>BOND
     1    1    2 2  
     2    1    3 2  
     3    1    4 1  
     4    1    5 1  
