#      Rotatable Fragment
#      Build by yxyuan
#
# Name:          frag3-104-163/31924
# Creation time: Sat Jun  5 12:52:00 2010


@<TRIPOS>MOLECULE
frag3-104-163/31924
    8     7     1     1     1
SMALL
USER_CHARGES


@<TRIPOS>ATOM
      1 N2          1.2390   -0.1844    0.0070 N.am       1 <1>        0.000
      2 C6          0.0010    0.4639    0.0403 C.2        1 <1>        0.000
      3 O1         -0.0636    1.6131   -0.4540 O.2        1 <1>        0.000
      4 N3         -1.1703   -0.0741    0.5808 N.am       1 <1>        0.000
      5 H           2.0466    0.2794   -0.4091 H.spc      1 <1>        0.000
      6 H           1.3348   -1.1213    0.3988 H.spc      1 <1>        0.000
      7 H          -2.0352    0.4662    0.5631 H.spc      1 <1>        0.000
      8 H          -1.1601   -1.0071    0.9930 H.spc      1 <1>        0.000
@<TRIPOS>BOND
     1    1    2 am 
     2    2    3 2  
     3    2    4 am 
     4    1    5 1  
     5    1    6 1  
     6    4    7 1  
     7    4    8 1  
# Name:          frag3-104-163/31924 -- energy: -0.227703
# Creation time: Sat Jun  5 12:52:00 2010


@<TRIPOS>MOLECULE
frag3-104-163/31924 -- energy: -0.227703
    8     7     1     1     1
SMALL
USER_CHARGES


@<TRIPOS>ATOM
      1 N2          1.2390   -0.1844    0.0070 N.am       1 <1>        0.000
      2 C6          0.0010    0.4639    0.0403 C.2        1 <1>        0.000
      3 O1         -0.0636    1.6131   -0.4540 O.2        1 <1>        0.000
      4 N3         -1.1703   -0.0741    0.5808 N.am       1 <1>        0.000
      5 H           2.0466    0.2794   -0.4091 H.spc      1 <1>        0.000
      6 H           1.3348   -1.1213    0.3988 H.spc      1 <1>        0.000
      7 H          -2.0352    0.4662    0.5631 H.spc      1 <1>        0.000
      8 H          -1.1601   -1.0071    0.9930 H.spc      1 <1>        0.000
@<TRIPOS>BOND
     1    1    2 am 
     2    2    3 2  
     3    2    4 am 
     4    1    5 1  
     5    1    6 1  
     6    4    7 1  
     7    4    8 1  
