#      Rotatable Fragment
#      Build by yxyuan
#
# Name:          frag4-475-34/48856
# Creation time: Sat Jun  5 12:52:49 2010


@<TRIPOS>MOLECULE
frag4-475-34/48856
    9     9     1     1     1
SMALL
USER_CHARGES


@<TRIPOS>ATOM
      1 C1          0.1340   -1.0865    0.4193 C.2        1 <1>        0.000
      2 N1          1.0507   -0.0816    0.2253 N.2        1 <1>        0.000
      3 C2          0.5561    1.0080   -0.2658 C.2        1 <1>        0.000
      4 C3         -0.8535    0.7324   -0.4439 C.3        1 <1>        0.000
      5 N2         -0.9795   -0.6025    0.0320 N.2        1 <1>        0.000
      6 H           0.3193   -2.0836    0.8187 H.spc      1 <1>        0.000
      7 H           1.0857    1.9326   -0.4955 H.spc      1 <1>        0.000
      8 H          -1.1793    0.8454   -1.4779 H.spc      1 <1>        0.000
      9 H          -1.4928    1.4345    0.0914 H.spc      1 <1>        0.000
@<TRIPOS>BOND
     1    1    2 1  
     2    1    5 2  
     3    2    3 2  
     4    3    4 1  
     5    4    5 1  
     6    1    6 1  
     7    3    7 1  
     8    4    8 1  
     9    4    9 1  
# Name:          frag4-475-34/48856 -- energy: -0.249949
# Creation time: Sat Jun  5 12:52:49 2010


@<TRIPOS>MOLECULE
frag4-475-34/48856 -- energy: -0.249949
    9     9     1     1     1
SMALL
USER_CHARGES


@<TRIPOS>ATOM
      1 C1          0.1340   -1.0865    0.4193 C.2        1 <1>        0.000
      2 N1          1.0507   -0.0816    0.2253 N.2        1 <1>        0.000
      3 C2          0.5561    1.0080   -0.2658 C.2        1 <1>        0.000
      4 C3         -0.8535    0.7324   -0.4439 C.3        1 <1>        0.000
      5 N2         -0.9795   -0.6025    0.0320 N.2        1 <1>        0.000
      6 H           0.3193   -2.0836    0.8187 H.spc      1 <1>        0.000
      7 H           1.0857    1.9326   -0.4955 H.spc      1 <1>        0.000
      8 H          -1.1793    0.8454   -1.4779 H.spc      1 <1>        0.000
      9 H          -1.4928    1.4345    0.0914 H.spc      1 <1>        0.000
@<TRIPOS>BOND
     1    1    2 1  
     2    1    5 2  
     3    2    3 2  
     4    3    4 1  
     5    4    5 1  
     6    1    6 1  
     7    3    7 1  
     8    4    8 1  
     9    4    9 1  
