#      Rotatable Fragment
#      Build by yxyuan
#
# Name:          frag5-577-43/41815
# Creation time: Sat Jun  5 12:52:55 2010


@<TRIPOS>MOLECULE
frag5-577-43/41815
   12    12     1     1     1
SMALL
USER_CHARGES


@<TRIPOS>ATOM
      1 I1         -1.9866   -2.7426    0.3488 I          1 <1>        0.000
      2 C1         -0.7639   -1.0481    0.1340 C.ar       1 <1>        0.000
      3 C2          0.6058   -1.2068   -0.0384 C.ar       1 <1>        0.000
      4 C3          1.4210   -0.0924   -0.1815 C.ar       1 <1>        0.000
      5 C4          0.8652    1.1874   -0.1514 C.ar       1 <1>        0.000
      6 C5         -0.5114    1.3466    0.0214 C.ar       1 <1>        0.000
      7 C6         -1.3272    0.2232    0.1649 C.ar       1 <1>        0.000
      8 H           1.0401   -2.2063   -0.0613 H.spc      1 <1>        0.000
      9 H           2.4953   -0.2169   -0.3174 H.spc      1 <1>        0.000
     10 H           1.5054    2.0625   -0.2627 H.spc      1 <1>        0.000
     11 H          -0.9475    2.3453    0.0441 H.spc      1 <1>        0.000
     12 H          -2.4022    0.3418    0.3007 H.spc      1 <1>        0.000
@<TRIPOS>BOND
     1    2    3 ar 
     2    1    2 1  
     3    2    7 ar 
     4    3    4 ar 
     5    4    5 ar 
     6    5    6 ar 
     7    6    7 ar 
     8    3    8 1  
     9    4    9 1  
    10    5   10 1  
    11    6   11 1  
    12    7   12 1  
# Name:          frag5-577-43/41815 -- energy: -0.152781
# Creation time: Sat Jun  5 12:52:55 2010


@<TRIPOS>MOLECULE
frag5-577-43/41815 -- energy: -0.152781
   12    12     1     1     1
SMALL
USER_CHARGES


@<TRIPOS>ATOM
      1 I1         -1.9866   -2.7426    0.3488 I          1 <1>        0.000
      2 C1         -0.7639   -1.0481    0.1340 C.ar       1 <1>        0.000
      3 C2          0.6058   -1.2068   -0.0384 C.ar       1 <1>        0.000
      4 C3          1.4210   -0.0924   -0.1815 C.ar       1 <1>        0.000
      5 C4          0.8652    1.1874   -0.1514 C.ar       1 <1>        0.000
      6 C5         -0.5114    1.3466    0.0214 C.ar       1 <1>        0.000
      7 C6         -1.3272    0.2232    0.1649 C.ar       1 <1>        0.000
      8 H           1.0401   -2.2063   -0.0613 H.spc      1 <1>        0.000
      9 H           2.4953   -0.2169   -0.3174 H.spc      1 <1>        0.000
     10 H           1.5054    2.0625   -0.2627 H.spc      1 <1>        0.000
     11 H          -0.9475    2.3453    0.0441 H.spc      1 <1>        0.000
     12 H          -2.4022    0.3418    0.3007 H.spc      1 <1>        0.000
@<TRIPOS>BOND
     1    2    3 ar 
     2    1    2 1  
     3    2    7 ar 
     4    3    4 ar 
     5    4    5 ar 
     6    5    6 ar 
     7    6    7 ar 
     8    3    8 1  
     9    4    9 1  
    10    5   10 1  
    11    6   11 1  
    12    7   12 1  
