#      Rotatable Fragment
#      Build by yxyuan
#
# Name:          frag4-390-69/48856
# Creation time: Sat Jun  5 12:53:42 2010


@<TRIPOS>MOLECULE
frag4-390-69/48856
   15    15     1     1     1
SMALL
USER_CHARGES


@<TRIPOS>ATOM
      1 N1         -1.7957    0.6997   -1.1415 N.3        1 <1>        0.000
      2 C1         -3.1704    0.6702   -0.7230 C.3        1 <1>        0.000
      3 C2         -3.9690   -0.1215   -1.7588 C.3        1 <1>        0.000
      4 O3         -3.3729   -1.3683   -1.9255 O.3        1 <1>        0.000
      5 C3         -2.0247   -1.6020   -1.6398 C.3        1 <1>        0.000
      6 C4         -1.1621   -0.3574   -1.8627 C.3        1 <1>        0.000
      7 H          -1.7788    1.4709   -1.8089 H.spc      1 <1>        0.000
      8 H          -3.5601    1.6852   -0.6457 H.spc      1 <1>        0.000
      9 H          -3.2539    0.1973    0.2555 H.spc      1 <1>        0.000
     10 H          -3.9774    0.4144   -2.7079 H.spc      1 <1>        0.000
     11 H          -4.9968   -0.2455   -1.4176 H.spc      1 <1>        0.000
     12 H          -1.6676   -2.3861   -2.3075 H.spc      1 <1>        0.000
     13 H          -1.9448   -1.8865   -0.5906 H.spc      1 <1>        0.000
     14 H          -0.1427   -0.5173   -1.5115 H.spc      1 <1>        0.000
     15 H          -1.0836   -0.1181   -2.9232 H.spc      1 <1>        0.000
@<TRIPOS>BOND
     1    1    6 1  
     2    1    2 1  
     3    2    3 1  
     4    3    4 1  
     5    4    5 1  
     6    5    6 1  
     7    1    7 1  
     8    2    8 1  
     9    2    9 1  
    10    3   10 1  
    11    3   11 1  
    12    5   12 1  
    13    5   13 1  
    14    6   14 1  
    15    6   15 1  
# Name:          frag4-390-69/48856 -- energy: -0.578217
# Creation time: Sat Jun  5 12:53:42 2010


@<TRIPOS>MOLECULE
frag4-390-69/48856 -- energy: -0.578217
   15    15     1     1     1
SMALL
USER_CHARGES


@<TRIPOS>ATOM
      1 N1         -1.7957    0.6997   -1.1415 N.3        1 <1>        0.000
      2 C1         -3.1704    0.6702   -0.7230 C.3        1 <1>        0.000
      3 C2         -3.9690   -0.1215   -1.7588 C.3        1 <1>        0.000
      4 O3         -3.3729   -1.3683   -1.9255 O.3        1 <1>        0.000
      5 C3         -2.0247   -1.6020   -1.6398 C.3        1 <1>        0.000
      6 C4         -1.1621   -0.3574   -1.8627 C.3        1 <1>        0.000
      7 H          -1.7788    1.4709   -1.8089 H.spc      1 <1>        0.000
      8 H          -3.5601    1.6852   -0.6457 H.spc      1 <1>        0.000
      9 H          -3.2539    0.1973    0.2555 H.spc      1 <1>        0.000
     10 H          -3.9774    0.4144   -2.7079 H.spc      1 <1>        0.000
     11 H          -4.9968   -0.2455   -1.4176 H.spc      1 <1>        0.000
     12 H          -1.6676   -2.3861   -2.3075 H.spc      1 <1>        0.000
     13 H          -1.9448   -1.8865   -0.5906 H.spc      1 <1>        0.000
     14 H          -0.1427   -0.5173   -1.5115 H.spc      1 <1>        0.000
     15 H          -1.0836   -0.1181   -2.9232 H.spc      1 <1>        0.000
@<TRIPOS>BOND
     1    1    6 1  
     2    1    2 1  
     3    2    3 1  
     4    3    4 1  
     5    4    5 1  
     6    5    6 1  
     7    1    7 1  
     8    2    8 1  
     9    2    9 1  
    10    3   10 1  
    11    3   11 1  
    12    5   12 1  
    13    5   13 1  
    14    6   14 1  
    15    6   15 1  
