#      Rotatable Fragment
#      Build by yxyuan
#
# Name:          frag4-382-256/150395
# Creation time: Sat Jun  5 12:53:33 2010


@<TRIPOS>MOLECULE
frag4-382-256/150395
   73    75     1     1     1
SMALL
USER_CHARGES


@<TRIPOS>ATOM
      1 C1         -0.4136   -5.0895   -0.2190 C.3        1 <1>        0.000
      2 C2         -1.7171   -5.7130    0.2561 C.3        1 <1>        0.000
      3 O1         -0.6572   -3.8989   -0.8914 O.3        1 <1>        0.000
      4 C3          0.7210   -4.9776    0.7832 C.3        1 <1>        0.000
      5 C4         -2.8498   -5.5850   -0.7438 C.3        1 <1>        0.000
      6 C5         -1.6744   -3.5553   -1.7590 C.3        1 <1>        0.000
      7 C6          2.0460   -4.4757    0.2226 C.3        1 <1>        0.000
      8 C14         3.0164   -3.1481    2.2361 C.3        1 <1>        0.000
      9 C7         -2.9876   -4.2198   -1.3892 C.3        1 <1>        0.000
     10 C9         -1.6910   -2.0677   -1.8725 C.3        1 <1>        0.000
     11 C10         3.2252   -4.1699    1.1314 C.3        1 <1>        0.000
     12 C13        -2.8740   -1.2246   -1.6362 C.3        1 <1>        0.000
     13 C26         4.4113   -0.0171    0.0978 C.3        1 <1>        0.000
     14 C28         0.7957    1.6401   -0.8812 C.3        1 <1>        0.000
     15 N1         -3.1498   -0.2265   -0.6962 N.3        1 <1>        0.000
     16 C16         4.2382   -2.3646    2.5826 C.2        1 <1>        0.000
     17 C17        -2.1380    0.7393   -0.3662 C.3        1 <1>        0.000
     18 C18        -4.4588   -0.2884   -0.1126 C.3        1 <1>        0.000
     19 C19         4.5939   -1.1089    2.2768 C.2        1 <1>        0.000
     20 C21        -0.8109    0.2388    0.0700 C.3        1 <1>        0.000
     21 C22        -2.5889    1.8128    0.6264 C.3        1 <1>        0.000
     22 C23        -4.8020    0.7441    0.9382 C.3        1 <1>        0.000
     23 C24         3.9008   -0.0529    1.4956 C.3        1 <1>        0.000
     24 O7          0.4532    0.5025   -0.1245 O.3        1 <1>        0.000
     25 C25        -3.6377    1.4017    1.6178 C.3        1 <1>        0.000
     26 C29         3.7256   -0.2630   -1.1984 C.3        1 <1>        0.000
     27 C32         2.2816    1.9547   -1.0532 C.3        1 <1>        0.000
     28 C33         3.1942    1.0036   -1.8257 C.3        1 <1>        0.000
     29 H          -0.0097   -5.8281   -0.9114 H.spc      1 <1>        0.000
     30 H          -1.5344   -6.7766    0.4092 H.spc      1 <1>        0.000
     31 H          -2.0197   -5.1882    1.1623 H.spc      1 <1>        0.000
     32 H           0.4045   -4.2491    1.5296 H.spc      1 <1>        0.000
     33 H           0.9044   -5.9848    1.1574 H.spc      1 <1>        0.000
     34 H          -2.6407   -6.2918   -1.5468 H.spc      1 <1>        0.000
     35 H          -3.7741   -5.7675   -0.1957 H.spc      1 <1>        0.000
     36 H          -1.4986   -3.9459   -2.7613 H.spc      1 <1>        0.000
     37 H           2.3988   -5.3027   -0.3935 H.spc      1 <1>        0.000
     38 H           1.7953   -3.5090   -0.2140 H.spc      1 <1>        0.000
     39 H           2.7215   -3.6968    3.1305 H.spc      1 <1>        0.000
     40 H           2.2690   -2.4386    1.8811 H.spc      1 <1>        0.000
     41 H          -3.5422   -4.3627   -2.3166 H.spc      1 <1>        0.000
     42 H          -3.4754   -3.5728   -0.6601 H.spc      1 <1>        0.000
     43 H          -1.0202   -1.7627   -1.0693 H.spc      1 <1>        0.000
     44 H          -1.4978   -1.9103   -2.9336 H.spc      1 <1>        0.000
     45 H           3.9922   -3.7467    0.4828 H.spc      1 <1>        0.000
     46 H           3.4537   -5.1069    1.6392 H.spc      1 <1>        0.000
     47 H          -3.5704   -1.9892   -1.2919 H.spc      1 <1>        0.000
     48 H          -2.8388   -0.6135   -2.5381 H.spc      1 <1>        0.000
     49 H           4.6178    1.0488    0.0011 H.spc      1 <1>        0.000
     50 H           5.0813   -0.8765    0.1211 H.spc      1 <1>        0.000
     51 H           0.3777    2.4886   -0.3395 H.spc      1 <1>        0.000
     52 H           0.4191    1.4476   -1.8858 H.spc      1 <1>        0.000
     53 H           4.9656   -2.9058    3.1877 H.spc      1 <1>        0.000
     54 H          -1.9928    1.1673   -1.3581 H.spc      1 <1>        0.000
     55 H          -4.5097   -1.2521    0.3942 H.spc      1 <1>        0.000
     56 H          -5.1552   -0.1158   -0.9332 H.spc      1 <1>        0.000
     57 H           5.5647   -0.8095    2.6718 H.spc      1 <1>        0.000
     58 H          -0.8369   -0.7040   -0.4764 H.spc      1 <1>        0.000
     59 H          -0.8652    0.5939    1.0991 H.spc      1 <1>        0.000
     60 H          -3.0305    2.6115    0.0305 H.spc      1 <1>        0.000
     61 H          -1.7067    2.0775    1.2094 H.spc      1 <1>        0.000
     62 H          -5.3535    0.2172    1.7168 H.spc      1 <1>        0.000
     63 H          -5.3439    1.5372    0.4229 H.spc      1 <1>        0.000
     64 H           2.8329   -0.2703    1.4767 H.spc      1 <1>        0.000
     65 H           4.0862    0.9133    1.9647 H.spc      1 <1>        0.000
     66 H          -3.9952    2.2925    2.1342 H.spc      1 <1>        0.000
     67 H          -3.1959    0.6901    2.3154 H.spc      1 <1>        0.000
     68 H           2.8794   -0.9236   -1.0095 H.spc      1 <1>        0.000
     69 H           4.4527   -0.6970   -1.8847 H.spc      1 <1>        0.000
     70 H           2.2942    2.8731   -1.6402 H.spc      1 <1>        0.000
     71 H           2.6775    1.9392   -0.0377 H.spc      1 <1>        0.000
     72 H           4.0893    1.5966   -2.0132 H.spc      1 <1>        0.000
     73 H           2.5666    0.6463   -2.6421 H.spc      1 <1>        0.000
@<TRIPOS>BOND
     1   27   28 1  
     2   13   26 1  
     3   26   28 1  
     4   23   13 1  
     5   24   14 1  
     6   14   27 1  
     7   10   12 1  
     8    7   11 1  
     9    6    9 1  
    10    6   10 1  
    11    5    9 1  
    12    4    7 1  
    13    3    6 1  
    14    2    5 1  
    15    1    4 1  
    16    1    3 1  
    17    1    2 1  
    18   11    8 1  
    19   12   15 1  
    20    8   16 1  
    21   15   17 1  
    22   15   18 1  
    23   16   19 2  
    24   17   20 1  
    25   17   21 1  
    26   18   22 1  
    27   19   23 1  
    28   20   24 1  
    29   21   25 1  
    30   22   25 1  
    31    1   29 1  
    32    2   30 1  
    33    2   31 1  
    34    4   32 1  
    35    4   33 1  
    36    5   34 1  
    37    5   35 1  
    38    6   36 1  
    39    7   37 1  
    40    7   38 1  
    41    8   39 1  
    42    8   40 1  
    43    9   41 1  
    44    9   42 1  
    45   10   43 1  
    46   10   44 1  
    47   11   45 1  
    48   11   46 1  
    49   12   47 1  
    50   12   48 1  
    51   13   49 1  
    52   13   50 1  
    53   14   51 1  
    54   14   52 1  
    55   16   53 1  
    56   17   54 1  
    57   18   55 1  
    58   18   56 1  
    59   19   57 1  
    60   20   58 1  
    61   20   59 1  
    62   21   60 1  
    63   21   61 1  
    64   22   62 1  
    65   22   63 1  
    66   23   64 1  
    67   23   65 1  
    68   25   66 1  
    69   25   67 1  
    70   26   68 1  
    71   26   69 1  
    72   27   70 1  
    73   27   71 1  
    74   28   72 1  
    75   28   73 1  
# Name:          frag4-382-256/150395
# Creation time: Sat Jun  5 12:53:33 2010


@<TRIPOS>MOLECULE
frag4-382-256/150395
   73    75     1     1     1
SMALL
USER_CHARGES


@<TRIPOS>ATOM
      1 C1         -0.4468   -5.6260    0.0133 C.3        1 <1>        0.000
      2 C2         -1.7214   -5.9882    0.7629 C.3        1 <1>        0.000
      3 O1         -0.6380   -4.4304   -0.6805 O.3        1 <1>        0.000
      4 C3          0.8336   -5.7473    0.8284 C.3        1 <1>        0.000
      5 C4         -2.9679   -5.8182   -0.0764 C.3        1 <1>        0.000
      6 C5         -1.7452   -4.0059   -1.3975 C.3        1 <1>        0.000
      7 C6          2.1244   -5.3169    0.1724 C.3        1 <1>        0.000
      8 C14         2.5381   -2.9127    1.0341 C.3        1 <1>        0.000
      9 C7         -3.0513   -4.4877   -0.7862 C.3        1 <1>        0.000
     10 C9         -1.6971   -2.5288   -1.6399 C.3        1 <1>        0.000
     11 C10         2.2950   -3.8451   -0.1393 C.3        1 <1>        0.000
     12 C13        -2.7790   -1.5914   -1.2828 C.3        1 <1>        0.000
     13 C26         3.8163    0.6241    1.3327 C.3        1 <1>        0.000
     14 C28         1.1228    1.5473   -1.2907 C.3        1 <1>        0.000
     15 N1         -2.8316   -0.3789   -0.5864 N.3        1 <1>        0.000
     16 C16         3.9860   -2.6510    1.2571 C.2        1 <1>        0.000
     17 C17        -1.7045    0.5198   -0.5727 C.3        1 <1>        0.000
     18 C18        -4.0536   -0.0642    0.1104 C.3        1 <1>        0.000
     19 C19         4.6694   -1.5399    0.9087 C.2        1 <1>        0.000
     20 C21        -0.3487    0.0034   -0.3306 C.3        1 <1>        0.000
     21 C22        -1.9276    1.7062    0.3641 C.3        1 <1>        0.000
     22 C23        -4.3937    1.4158    0.2716 C.3        1 <1>        0.000
     23 C24         4.1405   -0.3345    0.2485 C.3        1 <1>        0.000
     24 O7          0.8757    0.3169   -0.6548 O.3        1 <1>        0.000
     25 C25        -3.2467    2.3784    0.1447 C.3        1 <1>        0.000
     26 C29         2.5815    1.4028    1.6252 C.3        1 <1>        0.000
     27 C32         2.2903    2.3583   -0.7795 C.3        1 <1>        0.000
     28 C33         2.4317    2.5852    0.7084 C.3        1 <1>        0.000
     29 H          -0.2576   -6.3912   -0.7396 H.spc      1 <1>        0.000
     30 H          -1.6528   -7.0382    1.0473 H.spc      1 <1>        0.000
     31 H          -1.8042   -5.3200    1.6201 H.spc      1 <1>        0.000
     32 H           0.7021   -5.0805    1.6805 H.spc      1 <1>        0.000
     33 H           0.9503   -6.8115    1.0331 H.spc      1 <1>        0.000
     34 H          -2.9511   -6.5936   -0.8423 H.spc      1 <1>        0.000
     35 H          -3.8229   -5.8805    0.5968 H.spc      1 <1>        0.000
     36 H          -1.7090   -4.4767   -2.3799 H.spc      1 <1>        0.000
     37 H           2.9109   -5.5579    0.8876 H.spc      1 <1>        0.000
     38 H           2.1465   -5.8249   -0.7917 H.spc      1 <1>        0.000
     39 H           2.1380   -3.3861    1.9307 H.spc      1 <1>        0.000
     40 H           2.0522   -1.9616    0.8165 H.spc      1 <1>        0.000
     41 H          -3.7574   -4.6116   -1.6073 H.spc      1 <1>        0.000
     42 H          -3.3417   -3.7490   -0.0392 H.spc      1 <1>        0.000
     43 H          -0.8813   -2.2081   -0.9921 H.spc      1 <1>        0.000
     44 H          -1.6786   -2.4670   -2.7280 H.spc      1 <1>        0.000
     45 H           1.3521   -3.5246   -0.5824 H.spc      1 <1>        0.000
     46 H           3.1862   -3.7754   -0.7630 H.spc      1 <1>        0.000
     47 H          -3.3077   -2.2170   -0.5636 H.spc      1 <1>        0.000
     48 H          -3.0087   -1.2178   -2.2807 H.spc      1 <1>        0.000
     49 H           3.8101   -0.0566    2.1840 H.spc      1 <1>        0.000
     50 H           4.4882    1.4393    1.0641 H.spc      1 <1>        0.000
     51 H           0.2364    2.1570   -1.1158 H.spc      1 <1>        0.000
     52 H           1.3582    1.3057   -2.3272 H.spc      1 <1>        0.000
     53 H           4.5538   -3.4381    1.7533 H.spc      1 <1>        0.000
     54 H          -1.6961    0.7919   -1.6281 H.spc      1 <1>        0.000
     55 H          -3.9307   -0.4545    1.1207 H.spc      1 <1>        0.000
     56 H          -4.8578   -0.4923   -0.4880 H.spc      1 <1>        0.000
     57 H           5.7340   -1.5345    1.1428 H.spc      1 <1>        0.000
     58 H          -0.4298   -0.8982   -0.9378 H.spc      1 <1>        0.000
     59 H          -0.2857    0.2604    0.7268 H.spc      1 <1>        0.000
     60 H          -1.1436    2.4378    0.1688 H.spc      1 <1>        0.000
     61 H          -1.9101    1.3313    1.3875 H.spc      1 <1>        0.000
     62 H          -4.7769    1.5312    1.2855 H.spc      1 <1>        0.000
     63 H          -5.0852    1.6586   -0.5352 H.spc      1 <1>        0.000
     64 H           4.8706    0.0868   -0.4426 H.spc      1 <1>        0.000
     65 H           3.2572   -0.5681   -0.3459 H.spc      1 <1>        0.000
     66 H          -3.2566    2.7910   -0.8642 H.spc      1 <1>        0.000
     67 H          -3.3655    3.1536    0.9017 H.spc      1 <1>        0.000
     68 H           2.6450    1.7710    2.6492 H.spc      1 <1>        0.000
     69 H           1.7226    0.7476    1.4800 H.spc      1 <1>        0.000
     70 H           3.1739    1.7854   -1.0608 H.spc      1 <1>        0.000
     71 H           2.1471    3.3527   -1.2022 H.spc      1 <1>        0.000
     72 H           1.4931    3.0512    1.0082 H.spc      1 <1>        0.000
     73 H           3.3637    3.1399    0.8169 H.spc      1 <1>        0.000
@<TRIPOS>BOND
     1   27   28 1  
     2   13   26 1  
     3   26   28 1  
     4   23   13 1  
     5   24   14 1  
     6   14   27 1  
     7   10   12 1  
     8    7   11 1  
     9    6    9 1  
    10    6   10 1  
    11    5    9 1  
    12    4    7 1  
    13    3    6 1  
    14    2    5 1  
    15    1    4 1  
    16    1    3 1  
    17    1    2 1  
    18   11    8 1  
    19   12   15 1  
    20    8   16 1  
    21   15   17 1  
    22   15   18 1  
    23   16   19 2  
    24   17   20 1  
    25   17   21 1  
    26   18   22 1  
    27   19   23 1  
    28   20   24 1  
    29   21   25 1  
    30   22   25 1  
    31    1   29 1  
    32    2   30 1  
    33    2   31 1  
    34    4   32 1  
    35    4   33 1  
    36    5   34 1  
    37    5   35 1  
    38    6   36 1  
    39    7   37 1  
    40    7   38 1  
    41    8   39 1  
    42    8   40 1  
    43    9   41 1  
    44    9   42 1  
    45   10   43 1  
    46   10   44 1  
    47   11   45 1  
    48   11   46 1  
    49   12   47 1  
    50   12   48 1  
    51   13   49 1  
    52   13   50 1  
    53   14   51 1  
    54   14   52 1  
    55   16   53 1  
    56   17   54 1  
    57   18   55 1  
    58   18   56 1  
    59   19   57 1  
    60   20   58 1  
    61   20   59 1  
    62   21   60 1  
    63   21   61 1  
    64   22   62 1  
    65   22   63 1  
    66   23   64 1  
    67   23   65 1  
    68   25   66 1  
    69   25   67 1  
    70   26   68 1  
    71   26   69 1  
    72   27   70 1  
    73   27   71 1  
    74   28   72 1  
    75   28   73 1  
# Name:          frag4-382-256/150395
# Creation time: Sat Jun  5 12:53:33 2010


@<TRIPOS>MOLECULE
frag4-382-256/150395
   73    75     1     1     1
SMALL
USER_CHARGES


@<TRIPOS>ATOM
      1 C1         -0.4553   -5.3863    0.1795 C.3        1 <1>        0.000
      2 C2         -1.7364   -5.6793    0.9295 C.3        1 <1>        0.000
      3 O1         -0.6119   -4.2119   -0.5637 O.3        1 <1>        0.000
      4 C3          0.8264   -5.5280    0.9568 C.3        1 <1>        0.000
      5 C4         -2.9255   -5.6200   -0.0028 C.3        1 <1>        0.000
      6 C5         -1.6719   -3.8823   -1.3934 C.3        1 <1>        0.000
      7 C6          2.0568   -5.2044    0.1474 C.3        1 <1>        0.000
      8 C14         2.1880   -2.7481    0.8899 C.3        1 <1>        0.000
      9 C7         -2.9944   -4.3405   -0.8034 C.3        1 <1>        0.000
     10 C9         -1.6545   -2.4393   -1.8009 C.3        1 <1>        0.000
     11 C10         2.2317   -3.7546   -0.2349 C.3        1 <1>        0.000
     12 C13        -2.7898   -1.5321   -1.5558 C.3        1 <1>        0.000
     13 C26         4.4782    0.7632    0.9718 C.3        1 <1>        0.000
     14 C28         1.0572    1.5594   -1.5258 C.3        1 <1>        0.000
     15 N1         -2.9149   -0.3054   -0.8761 N.3        1 <1>        0.000
     16 C16         3.5106   -2.6177    1.5475 C.2        1 <1>        0.000
     17 C17        -1.8480    0.6459   -0.8454 C.3        1 <1>        0.000
     18 C18        -4.1302   -0.1987   -0.1160 C.3        1 <1>        0.000
     19 C19         4.4204   -1.6698    1.3000 C.2        1 <1>        0.000
     20 C21        -0.5028    0.0673   -0.6766 C.3        1 <1>        0.000
     21 C22        -2.0080    1.7808    0.1761 C.3        1 <1>        0.000
     22 C23        -4.2623    1.0038    0.7903 C.3        1 <1>        0.000
     23 C24         4.2997   -0.5656    0.3221 C.3        1 <1>        0.000
     24 O7          0.6934    0.2547   -1.1501 O.3        1 <1>        0.000
     25 C25        -2.9407    1.4790    1.3090 C.3        1 <1>        0.000
     26 C29         3.5127    1.7848    1.4759 C.3        1 <1>        0.000
     27 C32         2.1381    2.1707   -0.6735 C.3        1 <1>        0.000
     28 C33         2.1856    1.7659    0.7878 C.3        1 <1>        0.000
     29 H          -0.2971   -6.1997   -0.5286 H.spc      1 <1>        0.000
     30 H          -1.6735   -6.6796    1.3580 H.spc      1 <1>        0.000
     31 H          -1.8650   -4.9328    1.7133 H.spc      1 <1>        0.000
     32 H           0.7858   -4.8244    1.7883 H.spc      1 <1>        0.000
     33 H           0.9055   -6.5681    1.2731 H.spc      1 <1>        0.000
     34 H          -2.8321   -6.4454   -0.7085 H.spc      1 <1>        0.000
     35 H          -3.8263   -5.6749    0.6085 H.spc      1 <1>        0.000
     36 H          -1.5491   -4.4334   -2.3258 H.spc      1 <1>        0.000
     37 H           2.9119   -5.4625    0.7721 H.spc      1 <1>        0.000
     38 H           1.9648   -5.7592   -0.7863 H.spc      1 <1>        0.000
     39 H           1.4639   -3.0869    1.6308 H.spc      1 <1>        0.000
     40 H           1.9083   -1.7787    0.4775 H.spc      1 <1>        0.000
     41 H          -3.6652   -4.5289   -1.6417 H.spc      1 <1>        0.000
     42 H          -3.3224   -3.5579   -0.1193 H.spc      1 <1>        0.000
     43 H          -0.8571   -2.0151   -1.1908 H.spc      1 <1>        0.000
     44 H          -1.5996   -2.4856   -2.8885 H.spc      1 <1>        0.000
     45 H           1.3932   -3.5125   -0.8879 H.spc      1 <1>        0.000
     46 H           3.2281   -3.6764   -0.6699 H.spc      1 <1>        0.000
     47 H          -3.3703   -2.1619   -0.8816 H.spc      1 <1>        0.000
     48 H          -2.9521   -1.1810   -2.5749 H.spc      1 <1>        0.000
     49 H           4.8996    0.4372    1.9227 H.spc      1 <1>        0.000
     50 H           4.8921    1.3156    0.1282 H.spc      1 <1>        0.000
     51 H           0.1706    2.1839   -1.4163 H.spc      1 <1>        0.000
     52 H           1.4437    1.5043   -2.5435 H.spc      1 <1>        0.000
     53 H           3.7643   -3.3627    2.3016 H.spc      1 <1>        0.000
     54 H          -1.9301    1.0669   -1.8474 H.spc      1 <1>        0.000
     55 H          -4.1524   -1.0706    0.5377 H.spc      1 <1>        0.000
     56 H          -4.9343   -0.1130   -0.8469 H.spc      1 <1>        0.000
     57 H           5.3443   -1.7148    1.8767 H.spc      1 <1>        0.000
     58 H          -0.6985   -0.8886   -1.1624 H.spc      1 <1>        0.000
     59 H          -0.3152    0.4382    0.3310 H.spc      1 <1>        0.000
     60 H          -2.4263    2.6327   -0.3600 H.spc      1 <1>        0.000
     61 H          -1.0247    1.9543    0.6132 H.spc      1 <1>        0.000
     62 H          -4.8747    0.7153    1.6446 H.spc      1 <1>        0.000
     63 H          -4.7073    1.8135    0.2119 H.spc      1 <1>        0.000
     64 H           5.0765   -0.6873   -0.4328 H.spc      1 <1>        0.000
     65 H           3.3034   -0.6028   -0.1186 H.spc      1 <1>        0.000
     66 H          -3.0954    2.3875    1.8910 H.spc      1 <1>        0.000
     67 H          -2.5024    0.6969    1.9289 H.spc      1 <1>        0.000
     68 H           3.9558    2.7638    1.2932 H.spc      1 <1>        0.000
     69 H           3.3325    1.5653    2.5282 H.spc      1 <1>        0.000
     70 H           3.0802    1.8313   -1.1041 H.spc      1 <1>        0.000
     71 H           1.9441    3.2433   -0.6760 H.spc      1 <1>        0.000
     72 H           1.8615    0.7255    0.8113 H.spc      1 <1>        0.000
     73 H           1.5763    2.5017    1.3126 H.spc      1 <1>        0.000
@<TRIPOS>BOND
     1   27   28 1  
     2   13   26 1  
     3   26   28 1  
     4   23   13 1  
     5   24   14 1  
     6   14   27 1  
     7   10   12 1  
     8    7   11 1  
     9    6    9 1  
    10    6   10 1  
    11    5    9 1  
    12    4    7 1  
    13    3    6 1  
    14    2    5 1  
    15    1    4 1  
    16    1    3 1  
    17    1    2 1  
    18   11    8 1  
    19   12   15 1  
    20    8   16 1  
    21   15   17 1  
    22   15   18 1  
    23   16   19 2  
    24   17   20 1  
    25   17   21 1  
    26   18   22 1  
    27   19   23 1  
    28   20   24 1  
    29   21   25 1  
    30   22   25 1  
    31    1   29 1  
    32    2   30 1  
    33    2   31 1  
    34    4   32 1  
    35    4   33 1  
    36    5   34 1  
    37    5   35 1  
    38    6   36 1  
    39    7   37 1  
    40    7   38 1  
    41    8   39 1  
    42    8   40 1  
    43    9   41 1  
    44    9   42 1  
    45   10   43 1  
    46   10   44 1  
    47   11   45 1  
    48   11   46 1  
    49   12   47 1  
    50   12   48 1  
    51   13   49 1  
    52   13   50 1  
    53   14   51 1  
    54   14   52 1  
    55   16   53 1  
    56   17   54 1  
    57   18   55 1  
    58   18   56 1  
    59   19   57 1  
    60   20   58 1  
    61   20   59 1  
    62   21   60 1  
    63   21   61 1  
    64   22   62 1  
    65   22   63 1  
    66   23   64 1  
    67   23   65 1  
    68   25   66 1  
    69   25   67 1  
    70   26   68 1  
    71   26   69 1  
    72   27   70 1  
    73   27   71 1  
    74   28   72 1  
    75   28   73 1  
# Name:          frag4-382-256/150395
# Creation time: Sat Jun  5 12:53:33 2010


@<TRIPOS>MOLECULE
frag4-382-256/150395
   73    75     1     1     1
SMALL
USER_CHARGES


@<TRIPOS>ATOM
      1 C1         -0.4512   -5.4442    0.0394 C.3        1 <1>        0.000
      2 C2         -1.8217   -5.9060    0.4737 C.3        1 <1>        0.000
      3 O1         -0.5501   -4.1525   -0.4209 O.3        1 <1>        0.000
      4 C3          0.6764   -5.7055    0.9810 C.3        1 <1>        0.000
      5 C4         -2.8307   -5.7692   -0.6358 C.3        1 <1>        0.000
      6 C5         -1.4680   -3.8053   -1.3874 C.3        1 <1>        0.000
      7 C6          2.0493   -5.3906    0.4551 C.3        1 <1>        0.000
      8 C14         2.0685   -2.7293    1.0864 C.3        1 <1>        0.000
      9 C7         -2.8471   -4.3725   -1.1343 C.3        1 <1>        0.000
     10 C9         -1.4528   -2.3109   -1.4662 C.3        1 <1>        0.000
     11 C10         2.7061   -4.0471    0.7081 C.3        1 <1>        0.000
     12 C13        -2.6652   -1.5501   -1.1283 C.3        1 <1>        0.000
     13 C26         4.7826    0.2002   -0.7715 C.3        1 <1>        0.000
     14 C28         0.8625    1.6704   -0.1035 C.3        1 <1>        0.000
     15 N1         -2.9495   -0.3410   -0.4667 N.3        1 <1>        0.000
     16 C16         3.0739   -1.8231    1.7027 C.2        1 <1>        0.000
     17 C17        -1.9403    0.5857   -0.1080 C.3        1 <1>        0.000
     18 C18        -4.3273   -0.1662   -0.1146 C.3        1 <1>        0.000
     19 C19         4.0032   -1.1070    1.0717 C.2        1 <1>        0.000
     20 C21        -0.6583    0.0631    0.3705 C.3        1 <1>        0.000
     21 C22        -2.5298    1.5376    0.9103 C.3        1 <1>        0.000
     22 C23        -4.7731    1.2684   -0.1613 C.3        1 <1>        0.000
     23 C24         4.1474   -1.0745   -0.3877 C.3        1 <1>        0.000
     24 O7          0.5957    0.4083    0.4040 O.3        1 <1>        0.000
     25 C25        -3.7320    2.2195    0.3502 C.3        1 <1>        0.000
     26 C29         4.6675    1.5825   -0.2532 C.3        1 <1>        0.000
     27 C32         2.2011    1.8406   -0.7153 C.3        1 <1>        0.000
     28 C33         3.3152    1.9100    0.2670 C.3        1 <1>        0.000
     29 H          -0.1366   -6.0888   -0.7813 H.spc      1 <1>        0.000
     30 H          -1.7580   -6.9576    0.7533 H.spc      1 <1>        0.000
     31 H          -2.1444   -5.2868    1.3107 H.spc      1 <1>        0.000
     32 H           0.5180   -5.0550    1.8411 H.spc      1 <1>        0.000
     33 H           0.6632   -6.7752    1.1900 H.spc      1 <1>        0.000
     34 H          -2.5602   -6.4390   -1.4521 H.spc      1 <1>        0.000
     35 H          -3.8194   -6.0269   -0.2562 H.spc      1 <1>        0.000
     36 H          -1.1915   -4.2420   -2.3471 H.spc      1 <1>        0.000
     37 H           2.6955   -6.0981    0.9747 H.spc      1 <1>        0.000
     38 H           1.9263   -5.4203   -0.6275 H.spc      1 <1>        0.000
     39 H           1.2708   -2.9150    1.8056 H.spc      1 <1>        0.000
     40 H           1.6697   -2.2577    0.1882 H.spc      1 <1>        0.000
     41 H          -3.3814   -4.3702   -2.0843 H.spc      1 <1>        0.000
     42 H          -3.3187   -3.7570   -0.3682 H.spc      1 <1>        0.000
     43 H          -0.7193   -2.0040   -0.7206 H.spc      1 <1>        0.000
     44 H          -1.2767   -2.0932   -2.5196 H.spc      1 <1>        0.000
     45 H           3.0752   -3.8126   -0.2903 H.spc      1 <1>        0.000
     46 H           3.2687   -4.2661    1.6156 H.spc      1 <1>        0.000
     47 H          -3.0710   -2.2324   -0.3814 H.spc      1 <1>        0.000
     48 H          -2.9378   -1.2404   -2.1372 H.spc      1 <1>        0.000
     49 H           5.8053   -0.0160   -0.4626 H.spc      1 <1>        0.000
     50 H           4.3140    0.3409   -1.7455 H.spc      1 <1>        0.000
     51 H           0.8158    2.3605    0.7390 H.spc      1 <1>        0.000
     52 H           0.1342    1.8475   -0.8949 H.spc      1 <1>        0.000
     53 H           3.0475   -1.7353    2.7888 H.spc      1 <1>        0.000
     54 H          -1.6556    1.0653   -1.0445 H.spc      1 <1>        0.000
     55 H          -4.4537   -0.5182    0.9092 H.spc      1 <1>        0.000
     56 H          -4.9257   -0.7217   -0.8367 H.spc      1 <1>        0.000
     57 H           4.6931   -0.5137    1.6717 H.spc      1 <1>        0.000
     58 H          -0.5566   -0.7333   -0.3668 H.spc      1 <1>        0.000
     59 H          -0.8566    0.1814    1.4358 H.spc      1 <1>        0.000
     60 H          -1.7832    2.2890    1.1675 H.spc      1 <1>        0.000
     61 H          -2.8222    0.9734    1.7959 H.spc      1 <1>        0.000
     62 H          -5.6533    1.3646    0.4744 H.spc      1 <1>        0.000
     63 H          -4.9727    1.5215   -1.2025 H.spc      1 <1>        0.000
     64 H           4.7647   -1.9101   -0.7176 H.spc      1 <1>        0.000
     65 H           3.1678   -1.1568   -0.8586 H.spc      1 <1>        0.000
     66 H          -3.4018    2.8284   -0.4914 H.spc      1 <1>        0.000
     67 H          -4.1844    2.8001    1.1541 H.spc      1 <1>        0.000
     68 H           4.8730    2.2609   -1.0813 H.spc      1 <1>        0.000
     69 H           5.3696    1.6813    0.5747 H.spc      1 <1>        0.000
     70 H           2.3806    0.9688   -1.3444 H.spc      1 <1>        0.000
     71 H           2.1897    2.7868   -1.2564 H.spc      1 <1>        0.000
     72 H           3.0942    1.1656    1.0319 H.spc      1 <1>        0.000
     73 H           3.3606    2.9456    0.6039 H.spc      1 <1>        0.000
@<TRIPOS>BOND
     1   27   28 1  
     2   13   26 1  
     3   26   28 1  
     4   23   13 1  
     5   24   14 1  
     6   14   27 1  
     7   10   12 1  
     8    7   11 1  
     9    6    9 1  
    10    6   10 1  
    11    5    9 1  
    12    4    7 1  
    13    3    6 1  
    14    2    5 1  
    15    1    4 1  
    16    1    3 1  
    17    1    2 1  
    18   11    8 1  
    19   12   15 1  
    20    8   16 1  
    21   15   17 1  
    22   15   18 1  
    23   16   19 2  
    24   17   20 1  
    25   17   21 1  
    26   18   22 1  
    27   19   23 1  
    28   20   24 1  
    29   21   25 1  
    30   22   25 1  
    31    1   29 1  
    32    2   30 1  
    33    2   31 1  
    34    4   32 1  
    35    4   33 1  
    36    5   34 1  
    37    5   35 1  
    38    6   36 1  
    39    7   37 1  
    40    7   38 1  
    41    8   39 1  
    42    8   40 1  
    43    9   41 1  
    44    9   42 1  
    45   10   43 1  
    46   10   44 1  
    47   11   45 1  
    48   11   46 1  
    49   12   47 1  
    50   12   48 1  
    51   13   49 1  
    52   13   50 1  
    53   14   51 1  
    54   14   52 1  
    55   16   53 1  
    56   17   54 1  
    57   18   55 1  
    58   18   56 1  
    59   19   57 1  
    60   20   58 1  
    61   20   59 1  
    62   21   60 1  
    63   21   61 1  
    64   22   62 1  
    65   22   63 1  
    66   23   64 1  
    67   23   65 1  
    68   25   66 1  
    69   25   67 1  
    70   26   68 1  
    71   26   69 1  
    72   27   70 1  
    73   27   71 1  
    74   28   72 1  
    75   28   73 1  
# Name:          frag4-382-256/150395
# Creation time: Sat Jun  5 12:53:33 2010


@<TRIPOS>MOLECULE
frag4-382-256/150395
   73    75     1     1     1
SMALL
USER_CHARGES


@<TRIPOS>ATOM
      1 C1         -0.6835   -5.3771    0.0986 C.3        1 <1>        0.000
      2 C2         -2.1051   -5.7840    0.4764 C.3        1 <1>        0.000
      3 O1         -0.6885   -4.1498   -0.5752 O.3        1 <1>        0.000
      4 C3          0.3555   -5.5330    1.1989 C.3        1 <1>        0.000
      5 C4         -3.0678   -5.6451   -0.6853 C.3        1 <1>        0.000
      6 C5         -1.5795   -3.7635   -1.5622 C.3        1 <1>        0.000
      7 C6          1.8003   -5.3003    0.8248 C.3        1 <1>        0.000
      8 C14         2.3474   -2.7258    1.1589 C.3        1 <1>        0.000
      9 C7         -2.9948   -4.2838   -1.3350 C.3        1 <1>        0.000
     10 C9         -1.5266   -2.2885   -1.7816 C.3        1 <1>        0.000
     11 C10         2.6019   -4.1832    1.4568 C.3        1 <1>        0.000
     12 C13        -2.7089   -1.4288   -1.6832 C.3        1 <1>        0.000
     13 C26         5.2980    0.3928   -0.3556 C.3        1 <1>        0.000
     14 C28         0.8556    1.6500   -0.3752 C.3        1 <1>        0.000
     15 N1         -3.0073   -0.3070   -0.8764 N.3        1 <1>        0.000
     16 C16         3.3596   -1.8536    1.8194 C.2        1 <1>        0.000
     17 C17        -2.0224    0.6501   -0.5217 C.3        1 <1>        0.000
     18 C18        -4.3666   -0.2650   -0.3789 C.3        1 <1>        0.000
     19 C19         4.3425   -1.1155    1.2793 C.2        1 <1>        0.000
     20 C21        -0.8120    0.0926    0.0778 C.3        1 <1>        0.000
     21 C22        -2.5226    1.7991    0.3654 C.3        1 <1>        0.000
     22 C23        -4.4666    0.2965    1.0353 C.3        1 <1>        0.000
     23 C24         4.6735   -0.9367   -0.1561 C.3        1 <1>        0.000
     24 O7          0.4448    0.4101    0.1526 O.3        1 <1>        0.000
     25 C25        -3.7215    1.5734    1.2683 C.3        1 <1>        0.000
     26 C29         4.7588    1.7773   -0.4540 C.3        1 <1>        0.000
     27 C32         2.2553    2.0456    0.0560 C.3        1 <1>        0.000
     28 C33         3.3330    1.8444   -0.9631 C.3        1 <1>        0.000
     29 H          -0.3166   -6.1158   -0.6140 H.spc      1 <1>        0.000
     30 H          -2.0889   -6.8307    0.7803 H.spc      1 <1>        0.000
     31 H          -2.4440   -5.1279    1.2781 H.spc      1 <1>        0.000
     32 H           0.1163   -4.7712    1.9409 H.spc      1 <1>        0.000
     33 H           0.2965   -6.5744    1.5152 H.spc      1 <1>        0.000
     34 H          -2.8016   -6.3907   -1.4345 H.spc      1 <1>        0.000
     35 H          -4.0793   -5.7821   -0.3029 H.spc      1 <1>        0.000
     36 H          -1.2569   -4.2404   -2.4877 H.spc      1 <1>        0.000
     37 H           2.3070   -6.2072    1.1548 H.spc      1 <1>        0.000
     38 H           1.7588   -5.0301   -0.2304 H.spc      1 <1>        0.000
     39 H           1.3605   -2.4611    1.5385 H.spc      1 <1>        0.000
     40 H           2.4102   -2.5757    0.0811 H.spc      1 <1>        0.000
     41 H          -3.4617   -4.3741   -2.3158 H.spc      1 <1>        0.000
     42 H          -3.4869   -3.5828   -0.6607 H.spc      1 <1>        0.000
     43 H          -0.8937   -1.9372   -0.9667 H.spc      1 <1>        0.000
     44 H          -1.2413   -2.2019   -2.8300 H.spc      1 <1>        0.000
     45 H           3.6072   -4.3460    1.0683 H.spc      1 <1>        0.000
     46 H           2.3578   -4.2683    2.5157 H.spc      1 <1>        0.000
     47 H          -3.4139   -2.1443   -1.2601 H.spc      1 <1>        0.000
     48 H          -2.6534   -0.9387   -2.6552 H.spc      1 <1>        0.000
     49 H           5.8162    0.4809    0.5993 H.spc      1 <1>        0.000
     50 H           5.6337    0.2688   -1.3852 H.spc      1 <1>        0.000
     51 H           0.1678    2.4112   -0.0068 H.spc      1 <1>        0.000
     52 H           0.8555    1.5639   -1.4618 H.spc      1 <1>        0.000
     53 H           3.2915   -1.8081    2.9063 H.spc      1 <1>        0.000
     54 H          -1.7681    1.0583   -1.4999 H.spc      1 <1>        0.000
     55 H          -4.7441   -1.2873   -0.3576 H.spc      1 <1>        0.000
     56 H          -4.9408    0.3876   -1.0366 H.spc      1 <1>        0.000
     57 H           4.9778   -0.5797    1.9846 H.spc      1 <1>        0.000
     58 H          -0.7060   -0.7689   -0.5815 H.spc      1 <1>        0.000
     59 H          -1.0702    0.2717    1.1215 H.spc      1 <1>        0.000
     60 H          -2.8427    2.5713   -0.3341 H.spc      1 <1>        0.000
     61 H          -1.6966    2.0047    1.0462 H.spc      1 <1>        0.000
     62 H          -4.0271   -0.4478    1.6993 H.spc      1 <1>        0.000
     63 H          -5.5202    0.5123    1.2125 H.spc      1 <1>        0.000
     64 H           5.3685   -1.7159   -0.4691 H.spc      1 <1>        0.000
     65 H           3.7625   -1.0038   -0.7508 H.spc      1 <1>        0.000
     66 H          -4.4213    2.3843    1.0663 H.spc      1 <1>        0.000
     67 H          -3.3401    1.5304    2.2885 H.spc      1 <1>        0.000
     68 H           5.3831    2.3193   -1.1643 H.spc      1 <1>        0.000
     69 H           4.7653    2.2005    0.5505 H.spc      1 <1>        0.000
     70 H           2.2228    3.1154    0.2621 H.spc      1 <1>        0.000
     71 H           2.5087    1.4065    0.9018 H.spc      1 <1>        0.000
     72 H           3.2912    2.7163   -1.6160 H.spc      1 <1>        0.000
     73 H           3.1340    0.8743   -1.4185 H.spc      1 <1>        0.000
@<TRIPOS>BOND
     1   27   28 1  
     2   13   26 1  
     3   26   28 1  
     4   23   13 1  
     5   24   14 1  
     6   14   27 1  
     7   10   12 1  
     8    7   11 1  
     9    6    9 1  
    10    6   10 1  
    11    5    9 1  
    12    4    7 1  
    13    3    6 1  
    14    2    5 1  
    15    1    4 1  
    16    1    3 1  
    17    1    2 1  
    18   11    8 1  
    19   12   15 1  
    20    8   16 1  
    21   15   17 1  
    22   15   18 1  
    23   16   19 2  
    24   17   20 1  
    25   17   21 1  
    26   18   22 1  
    27   19   23 1  
    28   20   24 1  
    29   21   25 1  
    30   22   25 1  
    31    1   29 1  
    32    2   30 1  
    33    2   31 1  
    34    4   32 1  
    35    4   33 1  
    36    5   34 1  
    37    5   35 1  
    38    6   36 1  
    39    7   37 1  
    40    7   38 1  
    41    8   39 1  
    42    8   40 1  
    43    9   41 1  
    44    9   42 1  
    45   10   43 1  
    46   10   44 1  
    47   11   45 1  
    48   11   46 1  
    49   12   47 1  
    50   12   48 1  
    51   13   49 1  
    52   13   50 1  
    53   14   51 1  
    54   14   52 1  
    55   16   53 1  
    56   17   54 1  
    57   18   55 1  
    58   18   56 1  
    59   19   57 1  
    60   20   58 1  
    61   20   59 1  
    62   21   60 1  
    63   21   61 1  
    64   22   62 1  
    65   22   63 1  
    66   23   64 1  
    67   23   65 1  
    68   25   66 1  
    69   25   67 1  
    70   26   68 1  
    71   26   69 1  
    72   27   70 1  
    73   27   71 1  
    74   28   72 1  
    75   28   73 1  
# Name:          frag4-382-256/150395
# Creation time: Sat Jun  5 12:53:33 2010


@<TRIPOS>MOLECULE
frag4-382-256/150395
   73    75     1     1     1
SMALL
USER_CHARGES


@<TRIPOS>ATOM
      1 C1         -0.5064   -5.0341    0.5437 C.3        1 <1>        0.000
      2 C2         -1.9434   -5.5158    0.6956 C.3        1 <1>        0.000
      3 O1         -0.4975   -3.8413   -0.1823 O.3        1 <1>        0.000
      4 C3          0.3382   -5.0884    1.8030 C.3        1 <1>        0.000
      5 C4         -2.6993   -5.4861   -0.6123 C.3        1 <1>        0.000
      6 C5         -1.2206   -3.5395   -1.3294 C.3        1 <1>        0.000
      7 C6          1.8459   -5.0933    1.6726 C.3        1 <1>        0.000
      8 C14         3.9501   -3.5987    1.7149 C.3        1 <1>        0.000
      9 C7         -2.5997   -4.1746   -1.3533 C.3        1 <1>        0.000
     10 C9         -1.2465   -2.0689   -1.6239 C.3        1 <1>        0.000
     11 C10         2.5436   -3.8439    1.2095 C.3        1 <1>        0.000
     12 C13        -2.4713   -1.2812   -1.9126 C.3        1 <1>        0.000
     13 C26         3.7696   -0.2315   -0.8359 C.3        1 <1>        0.000
     14 C28         0.6910    1.7283    0.2471 C.3        1 <1>        0.000
     15 N1         -3.0524   -0.1889   -1.2375 N.3        1 <1>        0.000
     16 C16         4.9535   -3.2201    0.6821 C.2        1 <1>        0.000
     17 C17        -2.2099    0.8054   -0.6168 C.3        1 <1>        0.000
     18 C18        -4.4827   -0.2360   -1.0766 C.3        1 <1>        0.000
     19 C19         5.1685   -2.0268    0.1225 C.2        1 <1>        0.000
     20 C21        -1.1915    0.3145    0.3076 C.3        1 <1>        0.000
     21 C22        -2.9490    1.8876    0.1848 C.3        1 <1>        0.000
     22 C23        -5.1255    0.8658   -0.2561 C.3        1 <1>        0.000
     23 C24         4.4529   -0.7561    0.3712 C.3        1 <1>        0.000
     24 O7          0.0049    0.6273    0.7704 O.3        1 <1>        0.000
     25 C25        -4.2383    1.4380    0.8017 C.3        1 <1>        0.000
     26 C29         3.4965    1.1716   -1.2485 C.3        1 <1>        0.000
     27 C32         2.0958    1.8627    0.8169 C.3        1 <1>        0.000
     28 C33         3.2760    2.1149   -0.0931 C.3        1 <1>        0.000
     29 H           0.0453   -5.7624   -0.0506 H.spc      1 <1>        0.000
     30 H          -1.9190   -6.5467    1.0488 H.spc      1 <1>        0.000
     31 H          -2.4508   -4.8510    1.3947 H.spc      1 <1>        0.000
     32 H           0.1048   -4.1682    2.3386 H.spc      1 <1>        0.000
     33 H           0.0924   -6.0441    2.2660 H.spc      1 <1>        0.000
     34 H          -2.2637   -6.2523   -1.2536 H.spc      1 <1>        0.000
     35 H          -3.7522   -5.6454   -0.3795 H.spc      1 <1>        0.000
     36 H          -0.6771   -4.0024   -2.1531 H.spc      1 <1>        0.000
     37 H           2.2141   -5.2610    2.6847 H.spc      1 <1>        0.000
     38 H           2.0580   -5.8346    0.9021 H.spc      1 <1>        0.000
     39 H           4.2912   -4.5406    2.1445 H.spc      1 <1>        0.000
     40 H           3.8867   -2.7575    2.4051 H.spc      1 <1>        0.000
     41 H          -2.8380   -4.3795   -2.3970 H.spc      1 <1>        0.000
     42 H          -3.2795   -3.4786   -0.8618 H.spc      1 <1>        0.000
     43 H          -0.9082   -1.6368   -0.6821 H.spc      1 <1>        0.000
     44 H          -0.7043   -2.0108   -2.5677 H.spc      1 <1>        0.000
     45 H           1.9465   -3.0161    1.5919 H.spc      1 <1>        0.000
     46 H           2.6341   -3.9428    0.1278 H.spc      1 <1>        0.000
     47 H          -3.2300   -2.0411   -1.7251 H.spc      1 <1>        0.000
     48 H          -2.1625   -0.7877   -2.8341 H.spc      1 <1>        0.000
     49 H           4.4833   -0.5247   -1.6058 H.spc      1 <1>        0.000
     50 H           2.7537   -0.5806   -0.6510 H.spc      1 <1>        0.000
     51 H           0.1339    2.6278    0.5091 H.spc      1 <1>        0.000
     52 H           0.7766    1.5905   -0.8308 H.spc      1 <1>        0.000
     53 H           5.6003   -4.0262    0.3358 H.spc      1 <1>        0.000
     54 H          -1.7515    1.2053   -1.5212 H.spc      1 <1>        0.000
     55 H          -4.6896   -1.1625   -0.5409 H.spc      1 <1>        0.000
     56 H          -4.8965   -0.1370   -2.0801 H.spc      1 <1>        0.000
     57 H           5.9737   -1.9835   -0.6109 H.spc      1 <1>        0.000
     58 H          -0.8710   -0.5316   -0.3003 H.spc      1 <1>        0.000
     59 H          -1.7395    0.5359    1.2234 H.spc      1 <1>        0.000
     60 H          -3.1932    2.6884   -0.5131 H.spc      1 <1>        0.000
     61 H          -2.2912    2.1817    1.0027 H.spc      1 <1>        0.000
     62 H          -5.9880    0.4301    0.2483 H.spc      1 <1>        0.000
     63 H          -5.3721    1.6760   -0.9423 H.spc      1 <1>        0.000
     64 H           3.6918   -0.9457    1.1281 H.spc      1 <1>        0.000
     65 H           5.1890   -0.0158    0.6848 H.spc      1 <1>        0.000
     66 H          -4.7333    2.2894    1.2689 H.spc      1 <1>        0.000
     67 H          -4.0342    0.6769    1.5548 H.spc      1 <1>        0.000
     68 H           2.5812    1.1636   -1.8403 H.spc      1 <1>        0.000
     69 H           4.3711    1.5256   -1.7942 H.spc      1 <1>        0.000
     70 H           2.0460    2.7537    1.4427 H.spc      1 <1>        0.000
     71 H           2.3006    0.8860    1.2554 H.spc      1 <1>        0.000
     72 H           4.1566    2.0060    0.5400 H.spc      1 <1>        0.000
     73 H           3.0871    3.0876   -0.5472 H.spc      1 <1>        0.000
@<TRIPOS>BOND
     1   27   28 1  
     2   13   26 1  
     3   26   28 1  
     4   23   13 1  
     5   24   14 1  
     6   14   27 1  
     7   10   12 1  
     8    7   11 1  
     9    6    9 1  
    10    6   10 1  
    11    5    9 1  
    12    4    7 1  
    13    3    6 1  
    14    2    5 1  
    15    1    4 1  
    16    1    3 1  
    17    1    2 1  
    18   11    8 1  
    19   12   15 1  
    20    8   16 1  
    21   15   17 1  
    22   15   18 1  
    23   16   19 2  
    24   17   20 1  
    25   17   21 1  
    26   18   22 1  
    27   19   23 1  
    28   20   24 1  
    29   21   25 1  
    30   22   25 1  
    31    1   29 1  
    32    2   30 1  
    33    2   31 1  
    34    4   32 1  
    35    4   33 1  
    36    5   34 1  
    37    5   35 1  
    38    6   36 1  
    39    7   37 1  
    40    7   38 1  
    41    8   39 1  
    42    8   40 1  
    43    9   41 1  
    44    9   42 1  
    45   10   43 1  
    46   10   44 1  
    47   11   45 1  
    48   11   46 1  
    49   12   47 1  
    50   12   48 1  
    51   13   49 1  
    52   13   50 1  
    53   14   51 1  
    54   14   52 1  
    55   16   53 1  
    56   17   54 1  
    57   18   55 1  
    58   18   56 1  
    59   19   57 1  
    60   20   58 1  
    61   20   59 1  
    62   21   60 1  
    63   21   61 1  
    64   22   62 1  
    65   22   63 1  
    66   23   64 1  
    67   23   65 1  
    68   25   66 1  
    69   25   67 1  
    70   26   68 1  
    71   26   69 1  
    72   27   70 1  
    73   27   71 1  
    74   28   72 1  
    75   28   73 1  
# Name:          frag4-382-256/150395
# Creation time: Sat Jun  5 12:53:33 2010


@<TRIPOS>MOLECULE
frag4-382-256/150395
   73    75     1     1     1
SMALL
USER_CHARGES


@<TRIPOS>ATOM
      1 C1         -0.5898   -5.3868    0.0417 C.3        1 <1>        0.000
      2 C2         -1.8614   -5.8165    0.7354 C.3        1 <1>        0.000
      3 O1         -0.7922   -4.1855   -0.6315 O.3        1 <1>        0.000
      4 C3          0.6625   -5.4528    0.8561 C.3        1 <1>        0.000
      5 C4         -3.0339   -5.7565   -0.2088 C.3        1 <1>        0.000
      6 C5         -1.8676   -3.8318   -1.4212 C.3        1 <1>        0.000
      7 C6          1.9122   -5.0607    0.1122 C.3        1 <1>        0.000
      8 C14         3.7214   -3.2343    0.4721 C.3        1 <1>        0.000
      9 C7         -3.1668   -4.4312   -0.9160 C.3        1 <1>        0.000
     10 C9         -1.9200   -2.3522   -1.6310 C.3        1 <1>        0.000
     11 C10         2.9658   -4.4366    0.9695 C.3        1 <1>        0.000
     12 C13        -3.1215   -1.5341   -1.3730 C.3        1 <1>        0.000
     13 C26         4.9165    0.6513    1.2707 C.3        1 <1>        0.000
     14 C28         0.5578    1.7916   -0.8713 C.3        1 <1>        0.000
     15 N1         -3.3504   -0.3432   -0.6825 N.3        1 <1>        0.000
     16 C16         4.7746   -2.8626    1.4565 C.2        1 <1>        0.000
     17 C17        -2.3206    0.6443   -0.5024 C.3        1 <1>        0.000
     18 C18        -4.6647   -0.1212   -0.1504 C.3        1 <1>        0.000
     19 C19         5.5151   -1.7562    1.5622 C.2        1 <1>        0.000
     20 C21        -0.9842    0.2069   -0.0752 C.3        1 <1>        0.000
     21 C22        -2.7788    1.7683    0.4194 C.3        1 <1>        0.000
     22 C23        -5.1385    1.3118   -0.2925 C.3        1 <1>        0.000
     23 C24         5.5114   -0.5775    0.6763 C.3        1 <1>        0.000
     24 O7          0.2480    0.5686   -0.2478 O.3        1 <1>        0.000
     25 C25        -4.0965    2.3565    0.0066 C.3        1 <1>        0.000
     26 C29         4.1764    1.7718    0.6210 C.3        1 <1>        0.000
     27 C32         1.9101    2.3387   -0.4868 C.3        1 <1>        0.000
     28 C33         2.9673    1.3211   -0.1440 C.3        1 <1>        0.000
     29 H          -0.3755   -6.1528   -0.7036 H.spc      1 <1>        0.000
     30 H          -1.7423   -6.8429    1.0824 H.spc      1 <1>        0.000
     31 H          -2.0496   -5.1435    1.5719 H.spc      1 <1>        0.000
     32 H           0.5459   -4.7470    1.6785 H.spc      1 <1>        0.000
     33 H           0.7876   -6.4904    1.1656 H.spc      1 <1>        0.000
     34 H          -2.8817   -6.5213   -0.9704 H.spc      1 <1>        0.000
     35 H          -3.9383   -5.9062    0.3808 H.spc      1 <1>        0.000
     36 H          -1.7227   -4.2687   -2.4092 H.spc      1 <1>        0.000
     37 H           2.3370   -5.9732   -0.3060 H.spc      1 <1>        0.000
     38 H           1.6235   -4.3195   -0.6330 H.spc      1 <1>        0.000
     39 H           3.0316   -2.3995    0.3477 H.spc      1 <1>        0.000
     40 H           4.1874   -3.4702   -0.4846 H.spc      1 <1>        0.000
     41 H          -3.7908   -4.6066   -1.7923 H.spc      1 <1>        0.000
     42 H          -3.5721   -3.7285   -0.1879 H.spc      1 <1>        0.000
     43 H          -1.2068   -1.9764   -0.8974 H.spc      1 <1>        0.000
     44 H          -1.7843   -2.2535   -2.7080 H.spc      1 <1>        0.000
     45 H           3.7249   -5.2113    1.0776 H.spc      1 <1>        0.000
     46 H           2.4276   -4.0778    1.8468 H.spc      1 <1>        0.000
     47 H          -3.6496   -2.2174   -0.7079 H.spc      1 <1>        0.000
     48 H          -3.3017   -1.1770   -2.3869 H.spc      1 <1>        0.000
     49 H           4.1173    0.2109    1.8669 H.spc      1 <1>        0.000
     50 H           5.8210    1.1724    1.5843 H.spc      1 <1>        0.000
     51 H          -0.1909    2.5184   -0.5562 H.spc      1 <1>        0.000
     52 H           0.5694    1.6167   -1.9471 H.spc      1 <1>        0.000
     53 H           4.9743   -3.6181    2.2164 H.spc      1 <1>        0.000
     54 H          -2.1772    0.9741   -1.5314 H.spc      1 <1>        0.000
     55 H          -4.6310   -0.3517    0.9144 H.spc      1 <1>        0.000
     56 H          -5.3559   -0.7524   -0.7089 H.spc      1 <1>        0.000
     57 H           6.2054   -1.7202    2.4050 H.spc      1 <1>        0.000
     58 H          -0.9438   -0.7118   -0.6604 H.spc      1 <1>        0.000
     59 H          -1.0700    0.4969    0.9720 H.spc      1 <1>        0.000
     60 H          -2.0313    2.5605    0.3777 H.spc      1 <1>        0.000
     61 H          -2.8970    1.3527    1.4201 H.spc      1 <1>        0.000
     62 H          -5.9421    1.4516    0.4305 H.spc      1 <1>        0.000
     63 H          -5.4299    1.4460   -1.3342 H.spc      1 <1>        0.000
     64 H           6.5531   -0.3475    0.4527 H.spc      1 <1>        0.000
     65 H           4.9024   -0.8357   -0.1901 H.spc      1 <1>        0.000
     66 H          -3.9325    2.9325   -0.9041 H.spc      1 <1>        0.000
     67 H          -4.4630    2.9640    0.8341 H.spc      1 <1>        0.000
     68 H           4.8551    2.2477   -0.0869 H.spc      1 <1>        0.000
     69 H           3.8355    2.4422    1.4100 H.spc      1 <1>        0.000
     70 H           2.2790    2.8785   -1.3590 H.spc      1 <1>        0.000
     71 H           1.7536    2.9303    0.4152 H.spc      1 <1>        0.000
     72 H           3.3509    0.9755   -1.1039 H.spc      1 <1>        0.000
     73 H           2.4698    0.6031    0.5080 H.spc      1 <1>        0.000
@<TRIPOS>BOND
     1   27   28 1  
     2   13   26 1  
     3   26   28 1  
     4   23   13 1  
     5   24   14 1  
     6   14   27 1  
     7   10   12 1  
     8    7   11 1  
     9    6    9 1  
    10    6   10 1  
    11    5    9 1  
    12    4    7 1  
    13    3    6 1  
    14    2    5 1  
    15    1    4 1  
    16    1    3 1  
    17    1    2 1  
    18   11    8 1  
    19   12   15 1  
    20    8   16 1  
    21   15   17 1  
    22   15   18 1  
    23   16   19 2  
    24   17   20 1  
    25   17   21 1  
    26   18   22 1  
    27   19   23 1  
    28   20   24 1  
    29   21   25 1  
    30   22   25 1  
    31    1   29 1  
    32    2   30 1  
    33    2   31 1  
    34    4   32 1  
    35    4   33 1  
    36    5   34 1  
    37    5   35 1  
    38    6   36 1  
    39    7   37 1  
    40    7   38 1  
    41    8   39 1  
    42    8   40 1  
    43    9   41 1  
    44    9   42 1  
    45   10   43 1  
    46   10   44 1  
    47   11   45 1  
    48   11   46 1  
    49   12   47 1  
    50   12   48 1  
    51   13   49 1  
    52   13   50 1  
    53   14   51 1  
    54   14   52 1  
    55   16   53 1  
    56   17   54 1  
    57   18   55 1  
    58   18   56 1  
    59   19   57 1  
    60   20   58 1  
    61   20   59 1  
    62   21   60 1  
    63   21   61 1  
    64   22   62 1  
    65   22   63 1  
    66   23   64 1  
    67   23   65 1  
    68   25   66 1  
    69   25   67 1  
    70   26   68 1  
    71   26   69 1  
    72   27   70 1  
    73   27   71 1  
    74   28   72 1  
    75   28   73 1  
# Name:          frag4-382-256/150395
# Creation time: Sat Jun  5 12:53:33 2010


@<TRIPOS>MOLECULE
frag4-382-256/150395
   73    75     1     1     1
SMALL
USER_CHARGES


@<TRIPOS>ATOM
      1 C1         -0.3499   -5.4157   -0.5499 C.3        1 <1>        0.000
      2 C2         -1.5482   -6.0936    0.1027 C.3        1 <1>        0.000
      3 O1         -0.7019   -4.1518   -1.0180 O.3        1 <1>        0.000
      4 C3          0.9177   -5.4802    0.2786 C.3        1 <1>        0.000
      5 C4         -2.8732   -5.8609   -0.5894 C.3        1 <1>        0.000
      6 C5         -1.8789   -3.7503   -1.6304 C.3        1 <1>        0.000
      7 C6          2.1191   -4.6701   -0.1531 C.3        1 <1>        0.000
      8 C14         2.2263   -2.8056    1.6842 C.3        1 <1>        0.000
      9 C7         -3.1048   -4.4347   -1.0427 C.3        1 <1>        0.000
     10 C9         -1.9200   -2.2586   -1.6647 C.3        1 <1>        0.000
     11 C10         2.9015   -3.9176    0.8921 C.3        1 <1>        0.000
     12 C13        -3.0062   -1.4409   -1.0943 C.3        1 <1>        0.000
     13 C26         4.4803    0.0849    0.2828 C.3        1 <1>        0.000
     14 C28         0.9542    1.2078   -1.2144 C.3        1 <1>        0.000
     15 N1         -3.0222   -0.3549   -0.2137 N.3        1 <1>        0.000
     16 C16         3.1925   -2.0853    2.5611 C.2        1 <1>        0.000
     17 C17        -1.8945    0.5341   -0.0998 C.3        1 <1>        0.000
     18 C18        -4.2007   -0.1436    0.5778 C.3        1 <1>        0.000
     19 C19         3.7506   -0.8754    2.4490 C.2        1 <1>        0.000
     20 C21        -0.5614   -0.0655    0.0761 C.3        1 <1>        0.000
     21 C22        -2.0751    1.5916    0.9885 C.3        1 <1>        0.000
     22 C23        -4.5749    1.3162    0.7573 C.3        1 <1>        0.000
     23 C24         3.5319    0.1334    1.4129 C.3        1 <1>        0.000
     24 O7          0.6397    0.1053   -0.3889 O.3        1 <1>        0.000
     25 C25        -3.4243    2.2578    1.0018 C.3        1 <1>        0.000
     26 C29         4.7194    1.0670   -0.8067 C.3        1 <1>        0.000
     27 C32         2.3375    1.2015   -1.8477 C.3        1 <1>        0.000
     28 C33         3.5178    1.8962   -1.1858 C.3        1 <1>        0.000
     29 H          -0.0703   -5.9943   -1.4304 H.spc      1 <1>        0.000
     30 H          -1.3597   -7.1666    0.0667 H.spc      1 <1>        0.000
     31 H          -1.6394   -5.6733    1.1043 H.spc      1 <1>        0.000
     32 H           0.6387   -5.0720    1.2500 H.spc      1 <1>        0.000
     33 H           1.2421   -6.5188    0.2142 H.spc      1 <1>        0.000
     34 H          -2.8791   -6.4842   -1.4836 H.spc      1 <1>        0.000
     35 H          -3.6552   -6.0965    0.1324 H.spc      1 <1>        0.000
     36 H          -1.8997   -4.0853   -2.6674 H.spc      1 <1>        0.000
     37 H           2.8199   -5.3993   -0.5597 H.spc      1 <1>        0.000
     38 H           1.7185   -3.9012   -0.8137 H.spc      1 <1>        0.000
     39 H           1.4581   -3.2524    2.3154 H.spc      1 <1>        0.000
     40 H           1.8046   -2.0898    0.9786 H.spc      1 <1>        0.000
     41 H          -3.8581   -4.4692   -1.8297 H.spc      1 <1>        0.000
     42 H          -3.3961   -3.8638   -0.1611 H.spc      1 <1>        0.000
     43 H          -1.0665   -1.9840   -1.0449 H.spc      1 <1>        0.000
     44 H          -2.0005   -2.0485   -2.7312 H.spc      1 <1>        0.000
     45 H           3.6937   -3.4169    0.3354 H.spc      1 <1>        0.000
     46 H           3.1585   -4.6698    1.6380 H.spc      1 <1>        0.000
     47 H          -3.4683   -2.1908   -0.4523 H.spc      1 <1>        0.000
     48 H          -3.3347   -0.9330   -2.0011 H.spc      1 <1>        0.000
     49 H           5.4264    0.1555    0.8195 H.spc      1 <1>        0.000
     50 H           4.0592   -0.7418   -0.2893 H.spc      1 <1>        0.000
     51 H           0.9178    2.0881   -0.5726 H.spc      1 <1>        0.000
     52 H           0.2422    1.1826   -2.0393 H.spc      1 <1>        0.000
     53 H           3.4970   -2.6414    3.4478 H.spc      1 <1>        0.000
     54 H          -1.9004    0.9745   -1.0969 H.spc      1 <1>        0.000
     55 H          -3.9993   -0.5486    1.5695 H.spc      1 <1>        0.000
     56 H          -5.0283   -0.6266    0.0583 H.spc      1 <1>        0.000
     57 H           4.4605   -0.6061    3.2311 H.spc      1 <1>        0.000
     58 H          -0.7686   -1.0169   -0.4139 H.spc      1 <1>        0.000
     59 H          -0.3749    0.2987    1.0864 H.spc      1 <1>        0.000
     60 H          -1.3383    2.3719    0.7975 H.spc      1 <1>        0.000
     61 H          -1.9634    1.0831    1.9461 H.spc      1 <1>        0.000
     62 H          -5.2095    1.3666    1.6421 H.spc      1 <1>        0.000
     63 H          -5.0414    1.6331   -0.1754 H.spc      1 <1>        0.000
     64 H           2.5405   -0.0511    0.9991 H.spc      1 <1>        0.000
     65 H           3.6600    1.1055    1.8890 H.spc      1 <1>        0.000
     66 H          -3.4304    2.9920    0.1962 H.spc      1 <1>        0.000
     67 H          -3.5631    2.6873    1.9939 H.spc      1 <1>        0.000
     68 H           5.0016    0.4959   -1.6912 H.spc      1 <1>        0.000
     69 H           5.4809    1.7592   -0.4473 H.spc      1 <1>        0.000
     70 H           2.6202    0.1488   -1.8450 H.spc      1 <1>        0.000
     71 H           2.2001    1.7519   -2.7785 H.spc      1 <1>        0.000
     72 H           3.1295    2.2832   -0.2437 H.spc      1 <1>        0.000
     73 H           3.8836    2.6062   -1.9275 H.spc      1 <1>        0.000
@<TRIPOS>BOND
     1   27   28 1  
     2   13   26 1  
     3   26   28 1  
     4   23   13 1  
     5   24   14 1  
     6   14   27 1  
     7   10   12 1  
     8    7   11 1  
     9    6    9 1  
    10    6   10 1  
    11    5    9 1  
    12    4    7 1  
    13    3    6 1  
    14    2    5 1  
    15    1    4 1  
    16    1    3 1  
    17    1    2 1  
    18   11    8 1  
    19   12   15 1  
    20    8   16 1  
    21   15   17 1  
    22   15   18 1  
    23   16   19 2  
    24   17   20 1  
    25   17   21 1  
    26   18   22 1  
    27   19   23 1  
    28   20   24 1  
    29   21   25 1  
    30   22   25 1  
    31    1   29 1  
    32    2   30 1  
    33    2   31 1  
    34    4   32 1  
    35    4   33 1  
    36    5   34 1  
    37    5   35 1  
    38    6   36 1  
    39    7   37 1  
    40    7   38 1  
    41    8   39 1  
    42    8   40 1  
    43    9   41 1  
    44    9   42 1  
    45   10   43 1  
    46   10   44 1  
    47   11   45 1  
    48   11   46 1  
    49   12   47 1  
    50   12   48 1  
    51   13   49 1  
    52   13   50 1  
    53   14   51 1  
    54   14   52 1  
    55   16   53 1  
    56   17   54 1  
    57   18   55 1  
    58   18   56 1  
    59   19   57 1  
    60   20   58 1  
    61   20   59 1  
    62   21   60 1  
    63   21   61 1  
    64   22   62 1  
    65   22   63 1  
    66   23   64 1  
    67   23   65 1  
    68   25   66 1  
    69   25   67 1  
    70   26   68 1  
    71   26   69 1  
    72   27   70 1  
    73   27   71 1  
    74   28   72 1  
    75   28   73 1  
# Name:          frag4-382-256/150395
# Creation time: Sat Jun  5 12:53:33 2010


@<TRIPOS>MOLECULE
frag4-382-256/150395
   73    75     1     1     1
SMALL
USER_CHARGES


@<TRIPOS>ATOM
      1 C1         -0.5240   -5.2896    0.5512 C.3        1 <1>        0.000
      2 C2         -1.9555   -5.7570    0.7550 C.3        1 <1>        0.000
      3 O1         -0.5278   -4.0507   -0.0858 O.3        1 <1>        0.000
      4 C3          0.4219   -5.4575    1.7185 C.3        1 <1>        0.000
      5 C4         -2.7519   -5.6727   -0.5261 C.3        1 <1>        0.000
      6 C5         -1.2825   -3.6946   -1.1900 C.3        1 <1>        0.000
      7 C6          1.8998   -5.3815    1.3992 C.3        1 <1>        0.000
      8 C14         3.9823   -3.9091    0.8649 C.3        1 <1>        0.000
      9 C7         -2.6736   -4.3157   -1.1730 C.3        1 <1>        0.000
     10 C9         -1.2821   -2.2127   -1.3793 C.3        1 <1>        0.000
     11 C10         2.4729   -4.0754    0.9139 C.3        1 <1>        0.000
     12 C13        -2.5332   -1.4398   -1.4735 C.3        1 <1>        0.000
     13 C26         4.4695    0.5272    0.6401 C.3        1 <1>        0.000
     14 C28         0.6530    1.9174    0.1860 C.3        1 <1>        0.000
     15 N1         -3.0182   -0.2829   -0.8611 N.3        1 <1>        0.000
     16 C16         4.4191   -3.0322   -0.2486 C.2        1 <1>        0.000
     17 C17        -2.1679    0.7182   -0.2700 C.3        1 <1>        0.000
     18 C18        -4.4422   -0.1270   -0.8455 C.3        1 <1>        0.000
     19 C19         4.3675   -1.6960   -0.2882 C.2        1 <1>        0.000
     20 C21        -0.9754    0.2666    0.4777 C.3        1 <1>        0.000
     21 C22        -2.9308    1.6866    0.6441 C.3        1 <1>        0.000
     22 C23        -4.8399    1.3199   -0.9533 C.3        1 <1>        0.000
     23 C24         3.8319   -0.8093    0.7627 C.3        1 <1>        0.000
     24 O7          0.2394    0.6748    0.6968 O.3        1 <1>        0.000
     25 C25        -4.3098    2.1148    0.2010 C.3        1 <1>        0.000
     26 C29         4.4550    1.5011   -0.4779 C.3        1 <1>        0.000
     27 C32         2.1186    2.2052    0.3397 C.3        1 <1>        0.000
     28 C33         3.0364    1.8630   -0.8132 C.3        1 <1>        0.000
     29 H          -0.0440   -5.9977   -0.1243 H.spc      1 <1>        0.000
     30 H          -1.9365   -6.7965    1.0825 H.spc      1 <1>        0.000
     31 H          -2.4268   -5.1136    1.4980 H.spc      1 <1>        0.000
     32 H           0.2150   -4.6312    2.3986 H.spc      1 <1>        0.000
     33 H           0.2467   -6.4596    2.1099 H.spc      1 <1>        0.000
     34 H          -2.3385   -6.4001   -1.2248 H.spc      1 <1>        0.000
     35 H          -3.7966   -5.8671   -0.2833 H.spc      1 <1>        0.000
     36 H          -0.8062   -4.1184   -2.0741 H.spc      1 <1>        0.000
     37 H           2.4031   -5.5756    2.3463 H.spc      1 <1>        0.000
     38 H           2.0459   -6.0776    0.5733 H.spc      1 <1>        0.000
     39 H           4.4251   -4.8934    0.7124 H.spc      1 <1>        0.000
     40 H           4.3014   -3.4500    1.8006 H.spc      1 <1>        0.000
     41 H          -2.9758   -4.4430   -2.2125 H.spc      1 <1>        0.000
     42 H          -3.3100   -3.6501   -0.5897 H.spc      1 <1>        0.000
     43 H          -0.8158   -1.8372   -0.4684 H.spc      1 <1>        0.000
     44 H          -0.8227   -2.0787   -2.3586 H.spc      1 <1>        0.000
     45 H           2.1309   -3.3326    1.6347 H.spc      1 <1>        0.000
     46 H           2.1466   -3.9925   -0.1228 H.spc      1 <1>        0.000
     47 H          -3.2060   -2.1625   -1.0118 H.spc      1 <1>        0.000
     48 H          -2.4071   -1.0488   -2.4831 H.spc      1 <1>        0.000
     49 H           3.8971    1.0813    1.3841 H.spc      1 <1>        0.000
     50 H           5.5203    0.2376    0.6281 H.spc      1 <1>        0.000
     51 H           0.1194    2.6839    0.7479 H.spc      1 <1>        0.000
     52 H           0.4434    1.9054   -0.8836 H.spc      1 <1>        0.000
     53 H           4.8257   -3.5298   -1.1290 H.spc      1 <1>        0.000
     54 H          -1.8003    1.2021   -1.1749 H.spc      1 <1>        0.000
     55 H          -4.8222   -0.5201    0.0975 H.spc      1 <1>        0.000
     56 H          -4.8576   -0.6636   -1.6985 H.spc      1 <1>        0.000
     57 H           4.7595   -1.2152   -1.1845 H.spc      1 <1>        0.000
     58 H          -0.7252   -0.5830   -0.1577 H.spc      1 <1>        0.000
     59 H          -1.3647    0.4409    1.4808 H.spc      1 <1>        0.000
     60 H          -2.3336    2.5980    0.6730 H.spc      1 <1>        0.000
     61 H          -3.0747    1.1540    1.5842 H.spc      1 <1>        0.000
     62 H          -5.9281    1.3830   -0.9487 H.spc      1 <1>        0.000
     63 H          -4.4255    1.7269   -1.8756 H.spc      1 <1>        0.000
     64 H           2.7523   -0.7132    0.6472 H.spc      1 <1>        0.000
     65 H           4.0481   -1.2308    1.7444 H.spc      1 <1>        0.000
     66 H          -4.2429    3.1543   -0.1201 H.spc      1 <1>        0.000
     67 H          -4.9863    1.9626    1.0420 H.spc      1 <1>        0.000
     68 H           4.9313    1.0563   -1.3516 H.spc      1 <1>        0.000
     69 H           4.9976    2.3992   -0.1827 H.spc      1 <1>        0.000
     70 H           2.1897    3.2869    0.4537 H.spc      1 <1>        0.000
     71 H           2.4502    1.5790    1.1680 H.spc      1 <1>        0.000
     72 H           3.0973    2.7659   -1.4208 H.spc      1 <1>        0.000
     73 H           2.6073    0.9762   -1.2796 H.spc      1 <1>        0.000
@<TRIPOS>BOND
     1   27   28 1  
     2   13   26 1  
     3   26   28 1  
     4   23   13 1  
     5   24   14 1  
     6   14   27 1  
     7   10   12 1  
     8    7   11 1  
     9    6    9 1  
    10    6   10 1  
    11    5    9 1  
    12    4    7 1  
    13    3    6 1  
    14    2    5 1  
    15    1    4 1  
    16    1    3 1  
    17    1    2 1  
    18   11    8 1  
    19   12   15 1  
    20    8   16 1  
    21   15   17 1  
    22   15   18 1  
    23   16   19 2  
    24   17   20 1  
    25   17   21 1  
    26   18   22 1  
    27   19   23 1  
    28   20   24 1  
    29   21   25 1  
    30   22   25 1  
    31    1   29 1  
    32    2   30 1  
    33    2   31 1  
    34    4   32 1  
    35    4   33 1  
    36    5   34 1  
    37    5   35 1  
    38    6   36 1  
    39    7   37 1  
    40    7   38 1  
    41    8   39 1  
    42    8   40 1  
    43    9   41 1  
    44    9   42 1  
    45   10   43 1  
    46   10   44 1  
    47   11   45 1  
    48   11   46 1  
    49   12   47 1  
    50   12   48 1  
    51   13   49 1  
    52   13   50 1  
    53   14   51 1  
    54   14   52 1  
    55   16   53 1  
    56   17   54 1  
    57   18   55 1  
    58   18   56 1  
    59   19   57 1  
    60   20   58 1  
    61   20   59 1  
    62   21   60 1  
    63   21   61 1  
    64   22   62 1  
    65   22   63 1  
    66   23   64 1  
    67   23   65 1  
    68   25   66 1  
    69   25   67 1  
    70   26   68 1  
    71   26   69 1  
    72   27   70 1  
    73   27   71 1  
    74   28   72 1  
    75   28   73 1  
# Name:          frag4-382-256/150395
# Creation time: Sat Jun  5 12:53:33 2010


@<TRIPOS>MOLECULE
frag4-382-256/150395
   73    75     1     1     1
SMALL
USER_CHARGES


@<TRIPOS>ATOM
      1 C1         -0.5306   -5.3292    0.1716 C.3        1 <1>        0.000
      2 C2         -1.9255   -5.9305    0.3435 C.3        1 <1>        0.000
      3 O1         -0.5885   -4.1347   -0.5320 O.3        1 <1>        0.000
      4 C3          0.2875   -5.2655    1.4512 C.3        1 <1>        0.000
      5 C4         -2.8515   -5.7391   -0.8336 C.3        1 <1>        0.000
      6 C5         -1.4499   -3.7109   -1.5273 C.3        1 <1>        0.000
      7 C6          1.4237   -4.2633    1.5498 C.3        1 <1>        0.000
      8 C14         3.6815   -3.4099    0.4135 C.3        1 <1>        0.000
      9 C7         -2.8248   -4.3511   -1.4300 C.3        1 <1>        0.000
     10 C9         -1.4085   -2.2210   -1.5237 C.3        1 <1>        0.000
     11 C10         2.6585   -4.5154    0.6917 C.3        1 <1>        0.000
     12 C13        -2.6132   -1.3629   -1.5247 C.3        1 <1>        0.000
     13 C26         5.0835    0.7656    0.2410 C.3        1 <1>        0.000
     14 C28         0.7223    1.6544    0.2342 C.3        1 <1>        0.000
     15 N1         -3.0384   -0.3029   -0.7323 N.3        1 <1>        0.000
     16 C16         4.0998   -2.4765    1.5081 C.2        1 <1>        0.000
     17 C17        -2.1303    0.5972   -0.0637 C.3        1 <1>        0.000
     18 C18        -4.4611   -0.0767   -0.6594 C.3        1 <1>        0.000
     19 C19         4.8022   -1.3327    1.4208 C.2        1 <1>        0.000
     20 C21        -0.9309    0.0629    0.6190 C.3        1 <1>        0.000
     21 C22        -2.8016    1.5290    0.9488 C.3        1 <1>        0.000
     22 C23        -4.8225    1.3819   -0.5550 C.3        1 <1>        0.000
     23 C24         5.3580   -0.6904    0.2086 C.3        1 <1>        0.000
     24 O7          0.3050    0.4382    0.8114 O.3        1 <1>        0.000
     25 C25        -4.1456    2.0964    0.5744 C.3        1 <1>        0.000
     26 C29         3.8923    1.5835   -0.1071 C.3        1 <1>        0.000
     27 C32         1.4832    1.5903   -1.0722 C.3        1 <1>        0.000
     28 C33         2.8777    1.0045   -1.0612 C.3        1 <1>        0.000
     29 H           0.0396   -6.0274   -0.4412 H.spc      1 <1>        0.000
     30 H          -1.7921   -7.0051    0.4678 H.spc      1 <1>        0.000
     31 H          -2.3850   -5.4228    1.1915 H.spc      1 <1>        0.000
     32 H          -0.4210   -4.9633    2.2225 H.spc      1 <1>        0.000
     33 H           0.7669   -6.2415    1.5267 H.spc      1 <1>        0.000
     34 H          -2.5251   -6.4281   -1.6126 H.spc      1 <1>        0.000
     35 H          -3.8657   -5.9132   -0.4742 H.spc      1 <1>        0.000
     36 H          -1.1316   -4.0516   -2.5125 H.spc      1 <1>        0.000
     37 H           1.0116   -3.3163    1.2012 H.spc      1 <1>        0.000
     38 H           1.7687   -4.3105    2.5827 H.spc      1 <1>        0.000
     39 H           3.1927   -2.7669   -0.3184 H.spc      1 <1>        0.000
     40 H           4.5939   -3.9453    0.1510 H.spc      1 <1>        0.000
     41 H          -3.1987   -4.4429   -2.4498 H.spc      1 <1>        0.000
     42 H          -3.4178   -3.7172   -0.7707 H.spc      1 <1>        0.000
     43 H          -0.9519   -1.9947   -0.5602 H.spc      1 <1>        0.000
     44 H          -0.9471   -1.9901   -2.4838 H.spc      1 <1>        0.000
     45 H           2.2486   -4.7433   -0.2923 H.spc      1 <1>        0.000
     46 H           3.2231   -5.2544    1.2602 H.spc      1 <1>        0.000
     47 H          -3.3498   -2.1065   -1.2205 H.spc      1 <1>        0.000
     48 H          -2.4310   -0.8181   -2.4510 H.spc      1 <1>        0.000
     49 H           5.0874    0.9176    1.3203 H.spc      1 <1>        0.000
     50 H           5.7513    1.0846   -0.5592 H.spc      1 <1>        0.000
     51 H           1.4136    2.0954    0.9524 H.spc      1 <1>        0.000
     52 H          -0.1944    2.2002    0.0107 H.spc      1 <1>        0.000
     53 H           3.7927   -2.7638    2.5137 H.spc      1 <1>        0.000
     54 H          -1.7803    1.1089   -0.9602 H.spc      1 <1>        0.000
     55 H          -4.8303   -0.5746    0.2372 H.spc      1 <1>        0.000
     56 H          -4.9055   -0.4634   -1.5765 H.spc      1 <1>        0.000
     57 H           4.9852   -0.8133    2.3614 H.spc      1 <1>        0.000
     58 H          -0.7288   -0.7621   -0.0642 H.spc      1 <1>        0.000
     59 H          -1.2812    0.1811    1.6444 H.spc      1 <1>        0.000
     60 H          -2.1357    2.3861    1.0497 H.spc      1 <1>        0.000
     61 H          -2.9727    0.9247    1.8397 H.spc      1 <1>        0.000
     62 H          -5.8963    1.4376   -0.3763 H.spc      1 <1>        0.000
     63 H          -4.5027    1.8618   -1.4799 H.spc      1 <1>        0.000
     64 H           6.4353   -0.8533    0.1762 H.spc      1 <1>        0.000
     65 H           4.8919   -1.1253   -0.6755 H.spc      1 <1>        0.000
     66 H          -3.9814    3.1244    0.2515 H.spc      1 <1>        0.000
     67 H          -4.7899    1.9989    1.4481 H.spc      1 <1>        0.000
     68 H           4.2885    2.4647   -0.6117 H.spc      1 <1>        0.000
     69 H           3.3557    1.7206    0.8317 H.spc      1 <1>        0.000
     70 H           0.8992    0.9288   -1.7121 H.spc      1 <1>        0.000
     71 H           1.6104    2.6278   -1.3813 H.spc      1 <1>        0.000
     72 H           3.2774    1.2000   -2.0563 H.spc      1 <1>        0.000
     73 H           2.7497   -0.0316   -0.7477 H.spc      1 <1>        0.000
@<TRIPOS>BOND
     1   27   28 1  
     2   13   26 1  
     3   26   28 1  
     4   23   13 1  
     5   24   14 1  
     6   14   27 1  
     7   10   12 1  
     8    7   11 1  
     9    6    9 1  
    10    6   10 1  
    11    5    9 1  
    12    4    7 1  
    13    3    6 1  
    14    2    5 1  
    15    1    4 1  
    16    1    3 1  
    17    1    2 1  
    18   11    8 1  
    19   12   15 1  
    20    8   16 1  
    21   15   17 1  
    22   15   18 1  
    23   16   19 2  
    24   17   20 1  
    25   17   21 1  
    26   18   22 1  
    27   19   23 1  
    28   20   24 1  
    29   21   25 1  
    30   22   25 1  
    31    1   29 1  
    32    2   30 1  
    33    2   31 1  
    34    4   32 1  
    35    4   33 1  
    36    5   34 1  
    37    5   35 1  
    38    6   36 1  
    39    7   37 1  
    40    7   38 1  
    41    8   39 1  
    42    8   40 1  
    43    9   41 1  
    44    9   42 1  
    45   10   43 1  
    46   10   44 1  
    47   11   45 1  
    48   11   46 1  
    49   12   47 1  
    50   12   48 1  
    51   13   49 1  
    52   13   50 1  
    53   14   51 1  
    54   14   52 1  
    55   16   53 1  
    56   17   54 1  
    57   18   55 1  
    58   18   56 1  
    59   19   57 1  
    60   20   58 1  
    61   20   59 1  
    62   21   60 1  
    63   21   61 1  
    64   22   62 1  
    65   22   63 1  
    66   23   64 1  
    67   23   65 1  
    68   25   66 1  
    69   25   67 1  
    70   26   68 1  
    71   26   69 1  
    72   27   70 1  
    73   27   71 1  
    74   28   72 1  
    75   28   73 1  
# Name:          frag4-382-256/150395
# Creation time: Sat Jun  5 12:53:33 2010


@<TRIPOS>MOLECULE
frag4-382-256/150395
   73    75     1     1     1
SMALL
USER_CHARGES


@<TRIPOS>ATOM
      1 C1         -0.4521   -5.3011    0.3558 C.3        1 <1>        0.000
      2 C2         -1.7327   -5.5723    1.1292 C.3        1 <1>        0.000
      3 O1         -0.6465   -4.2140   -0.4934 O.3        1 <1>        0.000
      4 C3          0.8322   -5.2969    1.1617 C.3        1 <1>        0.000
      5 C4         -2.9609   -5.5429    0.2449 C.3        1 <1>        0.000
      6 C5         -1.7292   -3.9276   -1.3061 C.3        1 <1>        0.000
      7 C6          2.1168   -5.0186    0.4130 C.3        1 <1>        0.000
      8 C14         3.7054   -3.2251   -0.5865 C.3        1 <1>        0.000
      9 C7         -3.0464   -4.3469   -0.6781 C.3        1 <1>        0.000
     10 C9         -1.6889   -2.5074   -1.7824 C.3        1 <1>        0.000
     11 C10         2.2989   -3.6593   -0.2204 C.3        1 <1>        0.000
     12 C13        -2.8124   -1.5461   -1.6500 C.3        1 <1>        0.000
     13 C26         3.6811    0.5565    1.8040 C.3        1 <1>        0.000
     14 C28         1.2155    1.4377   -1.5752 C.3        1 <1>        0.000
     15 N1         -2.9161   -0.3066   -0.9898 N.3        1 <1>        0.000
     16 C16         4.5045   -2.8575    0.6187 C.2        1 <1>        0.000
     17 C17        -1.8115    0.6210   -1.0430 C.3        1 <1>        0.000
     18 C18        -4.1223   -0.0838   -0.2385 C.3        1 <1>        0.000
     19 C19         4.3130   -1.8264    1.4546 C.2        1 <1>        0.000
     20 C21        -0.4766    0.0578   -0.7587 C.3        1 <1>        0.000
     21 C22        -1.9789    1.8892   -0.1999 C.3        1 <1>        0.000
     22 C23        -4.2130    1.1909    0.5814 C.3        1 <1>        0.000
     23 C24         3.2557   -0.7925    1.3456 C.3        1 <1>        0.000
     24 O7          0.7472    0.1717   -1.1828 O.3        1 <1>        0.000
     25 C25        -2.8896    1.7662    0.9877 C.3        1 <1>        0.000
     26 C29         2.9371    1.8462    1.8892 C.3        1 <1>        0.000
     27 C32         2.1856    2.0615   -0.5952 C.3        1 <1>        0.000
     28 C33         1.8366    2.0176    0.8795 C.3        1 <1>        0.000
     29 H          -0.2574   -6.1747   -0.2663 H.spc      1 <1>        0.000
     30 H          -1.6570   -6.5677    1.5668 H.spc      1 <1>        0.000
     31 H          -1.8421   -4.7925    1.8829 H.spc      1 <1>        0.000
     32 H           0.7273   -4.4852    1.8816 H.spc      1 <1>        0.000
     33 H           0.9347   -6.3061    1.5606 H.spc      1 <1>        0.000
     34 H          -2.9180   -6.4296   -0.3876 H.spc      1 <1>        0.000
     35 H          -3.8267   -5.4966    0.9055 H.spc      1 <1>        0.000
     36 H          -1.6526   -4.5391   -2.2051 H.spc      1 <1>        0.000
     37 H           2.9058   -5.0933    1.1613 H.spc      1 <1>        0.000
     38 H           2.1221   -5.7242   -0.4178 H.spc      1 <1>        0.000
     39 H           3.6361   -2.3491   -1.2314 H.spc      1 <1>        0.000
     40 H           4.2016   -4.0577   -1.0852 H.spc      1 <1>        0.000
     41 H          -3.7106   -4.6266   -1.4958 H.spc      1 <1>        0.000
     42 H          -3.3894   -3.5067   -0.0744 H.spc      1 <1>        0.000
     43 H          -0.9225   -2.0655   -1.1457 H.spc      1 <1>        0.000
     44 H          -1.6011   -2.6221   -2.8628 H.spc      1 <1>        0.000
     45 H           1.9622   -2.9439    0.5299 H.spc      1 <1>        0.000
     46 H           1.7563   -3.7059   -1.1646 H.spc      1 <1>        0.000
     47 H          -3.4856   -2.1384   -1.0302 H.spc      1 <1>        0.000
     48 H          -2.8839   -1.2074   -2.6836 H.spc      1 <1>        0.000
     49 H           3.8252    0.3549    2.8655 H.spc      1 <1>        0.000
     50 H           4.3926    0.8044    1.0163 H.spc      1 <1>        0.000
     51 H           0.3507    2.0979   -1.6410 H.spc      1 <1>        0.000
     52 H           1.7448    1.3099   -2.5195 H.spc      1 <1>        0.000
     53 H           5.3487   -3.5077    0.8483 H.spc      1 <1>        0.000
     54 H          -1.8516    0.8870   -2.0993 H.spc      1 <1>        0.000
     55 H          -4.1738   -0.9001    0.4820 H.spc      1 <1>        0.000
     56 H          -4.9197   -0.0138   -0.9783 H.spc      1 <1>        0.000
     57 H           5.0012   -1.7400    2.2955 H.spc      1 <1>        0.000
     58 H          -0.6642   -0.9389   -1.1581 H.spc      1 <1>        0.000
     59 H          -0.3294    0.5432    0.2061 H.spc      1 <1>        0.000
     60 H          -2.4246    2.6383   -0.8543 H.spc      1 <1>        0.000
     61 H          -0.9912    2.1317    0.1923 H.spc      1 <1>        0.000
     62 H          -4.7471    0.9423    1.4985 H.spc      1 <1>        0.000
     63 H          -4.7062    1.9363   -0.0425 H.spc      1 <1>        0.000
     64 H           2.9928   -0.7082    0.2911 H.spc      1 <1>        0.000
     65 H           2.4295   -1.1057    1.9839 H.spc      1 <1>        0.000
     66 H          -3.0510    2.7568    1.4128 H.spc      1 <1>        0.000
     67 H          -2.4271    1.1046    1.7201 H.spc      1 <1>        0.000
     68 H           3.6614    2.6386    1.7005 H.spc      1 <1>        0.000
     69 H           2.4670    1.8721    2.8723 H.spc      1 <1>        0.000
     70 H           3.1048    1.4837   -0.6916 H.spc      1 <1>        0.000
     71 H           2.2159    3.1201   -0.8533 H.spc      1 <1>        0.000
     72 H           1.2137    1.1303    0.9925 H.spc      1 <1>        0.000
     73 H           1.4107    2.9976    1.0947 H.spc      1 <1>        0.000
@<TRIPOS>BOND
     1   27   28 1  
     2   13   26 1  
     3   26   28 1  
     4   23   13 1  
     5   24   14 1  
     6   14   27 1  
     7   10   12 1  
     8    7   11 1  
     9    6    9 1  
    10    6   10 1  
    11    5    9 1  
    12    4    7 1  
    13    3    6 1  
    14    2    5 1  
    15    1    4 1  
    16    1    3 1  
    17    1    2 1  
    18   11    8 1  
    19   12   15 1  
    20    8   16 1  
    21   15   17 1  
    22   15   18 1  
    23   16   19 2  
    24   17   20 1  
    25   17   21 1  
    26   18   22 1  
    27   19   23 1  
    28   20   24 1  
    29   21   25 1  
    30   22   25 1  
    31    1   29 1  
    32    2   30 1  
    33    2   31 1  
    34    4   32 1  
    35    4   33 1  
    36    5   34 1  
    37    5   35 1  
    38    6   36 1  
    39    7   37 1  
    40    7   38 1  
    41    8   39 1  
    42    8   40 1  
    43    9   41 1  
    44    9   42 1  
    45   10   43 1  
    46   10   44 1  
    47   11   45 1  
    48   11   46 1  
    49   12   47 1  
    50   12   48 1  
    51   13   49 1  
    52   13   50 1  
    53   14   51 1  
    54   14   52 1  
    55   16   53 1  
    56   17   54 1  
    57   18   55 1  
    58   18   56 1  
    59   19   57 1  
    60   20   58 1  
    61   20   59 1  
    62   21   60 1  
    63   21   61 1  
    64   22   62 1  
    65   22   63 1  
    66   23   64 1  
    67   23   65 1  
    68   25   66 1  
    69   25   67 1  
    70   26   68 1  
    71   26   69 1  
    72   27   70 1  
    73   27   71 1  
    74   28   72 1  
    75   28   73 1  
# Name:          frag4-382-256/150395
# Creation time: Sat Jun  5 12:53:33 2010


@<TRIPOS>MOLECULE
frag4-382-256/150395
   73    75     1     1     1
SMALL
USER_CHARGES


@<TRIPOS>ATOM
      1 C1          0.0307   -5.3651   -0.1081 C.3        1 <1>        0.000
      2 C2         -1.3389   -5.9581    0.2042 C.3        1 <1>        0.000
      3 O1         -0.1286   -4.0919   -0.6582 O.3        1 <1>        0.000
      4 C3          1.0506   -5.5446    0.9986 C.3        1 <1>        0.000
      5 C4         -2.3187   -5.7848   -0.9282 C.3        1 <1>        0.000
      6 C5         -1.0766   -3.6519   -1.5724 C.3        1 <1>        0.000
      7 C6          0.8185   -4.7996    2.2884 C.3        1 <1>        0.000
      8 C14         2.3497   -2.8628    1.7071 C.3        1 <1>        0.000
      9 C7         -2.4174   -4.3555   -1.3891 C.3        1 <1>        0.000
     10 C9         -1.1930   -2.1596   -1.5701 C.3        1 <1>        0.000
     11 C10         0.9942   -3.3022    2.2233 C.3        1 <1>        0.000
     12 C13        -2.4747   -1.4627   -1.3081 C.3        1 <1>        0.000
     13 C26         4.9523    0.1357   -0.5960 C.3        1 <1>        0.000
     14 C28         0.8300    1.9156    0.1709 C.3        1 <1>        0.000
     15 N1         -2.8509   -0.4005   -0.4835 N.3        1 <1>        0.000
     16 C16         2.6332   -2.6561    0.2477 C.2        1 <1>        0.000
     17 C17        -1.8888    0.5696   -0.0318 C.3        1 <1>        0.000
     18 C18        -4.2182   -0.3474   -0.0573 C.3        1 <1>        0.000
     19 C19         3.5251   -1.8224   -0.3111 C.2        1 <1>        0.000
     20 C21        -0.6091    0.1206    0.5197 C.3        1 <1>        0.000
     21 C22        -2.4923    1.5301    0.9890 C.3        1 <1>        0.000
     22 C23        -4.7907    1.0313    0.2538 C.3        1 <1>        0.000
     23 C24         4.4232   -0.8617    0.3723 C.3        1 <1>        0.000
     24 O7          0.5801    0.6290    0.6827 O.3        1 <1>        0.000
     25 C25        -3.7747    2.1143    0.4973 C.3        1 <1>        0.000
     26 C29         4.3720    1.3203   -1.2818 C.3        1 <1>        0.000
     27 C32         2.2811    2.2020   -0.0683 C.3        1 <1>        0.000
     28 C33         2.8845    1.4497   -1.2259 C.3        1 <1>        0.000
     29 H           0.5200   -5.9485   -0.8880 H.spc      1 <1>        0.000
     30 H          -1.2102   -7.0269    0.3752 H.spc      1 <1>        0.000
     31 H          -1.7382   -5.4385    1.0752 H.spc      1 <1>        0.000
     32 H           1.0153   -6.6020    1.2607 H.spc      1 <1>        0.000
     33 H           1.9872   -5.1549    0.5998 H.spc      1 <1>        0.000
     34 H          -1.9723   -6.3866   -1.7684 H.spc      1 <1>        0.000
     35 H          -3.3021   -6.0929   -0.5730 H.spc      1 <1>        0.000
     36 H          -0.7273   -3.9307   -2.5666 H.spc      1 <1>        0.000
     37 H          -0.2217   -4.9757    2.5625 H.spc      1 <1>        0.000
     38 H           1.5640   -5.1664    2.9940 H.spc      1 <1>        0.000
     39 H           3.0013   -3.6950    1.9736 H.spc      1 <1>        0.000
     40 H           2.4672   -1.8647    2.1291 H.spc      1 <1>        0.000
     41 H          -2.9048   -4.3691   -2.3639 H.spc      1 <1>        0.000
     42 H          -2.9596   -3.8096   -0.6171 H.spc      1 <1>        0.000
     43 H          -0.5655   -1.8584   -0.7313 H.spc      1 <1>        0.000
     44 H          -0.9628   -1.8865   -2.5999 H.spc      1 <1>        0.000
     45 H           0.8958   -2.9205    3.2395 H.spc      1 <1>        0.000
     46 H           0.2446   -2.9184    1.5313 H.spc      1 <1>        0.000
     47 H          -2.9990   -2.2672   -0.7924 H.spc      1 <1>        0.000
     48 H          -2.5993   -0.9748   -2.2748 H.spc      1 <1>        0.000
     49 H           5.6515    0.6513    0.0624 H.spc      1 <1>        0.000
     50 H           5.0663   -0.5174   -1.4612 H.spc      1 <1>        0.000
     51 H           0.4754    2.6334    0.9105 H.spc      1 <1>        0.000
     52 H           0.3226    1.9861   -0.7912 H.spc      1 <1>        0.000
     53 H           2.0422   -3.2568   -0.4437 H.spc      1 <1>        0.000
     54 H          -1.6404    1.0291   -0.9885 H.spc      1 <1>        0.000
     55 H          -4.2614   -0.9064    0.8775 H.spc      1 <1>        0.000
     56 H          -4.8057   -0.7335   -0.8903 H.spc      1 <1>        0.000
     57 H           3.5973   -1.8562   -1.3982 H.spc      1 <1>        0.000
     58 H          -0.3577   -0.6035   -0.2553 H.spc      1 <1>        0.000
     59 H          -0.9022    0.0853    1.5690 H.spc      1 <1>        0.000
     60 H          -1.7855    2.3421    1.1595 H.spc      1 <1>        0.000
     61 H          -2.6936    0.9775    1.9067 H.spc      1 <1>        0.000
     62 H          -5.3627    0.9291    1.1760 H.spc      1 <1>        0.000
     63 H          -5.3638    1.3345   -0.6224 H.spc      1 <1>        0.000
     64 H           3.8606   -0.3399    1.1464 H.spc      1 <1>        0.000
     65 H           5.2586   -1.4078    0.8104 H.spc      1 <1>        0.000
     66 H          -3.5874    2.6400   -0.4390 H.spc      1 <1>        0.000
     67 H          -4.1626    2.7997    1.2509 H.spc      1 <1>        0.000
     68 H           4.6300    1.2192   -2.3360 H.spc      1 <1>        0.000
     69 H           4.7737    2.1955   -0.7712 H.spc      1 <1>        0.000
     70 H           2.3623    3.2638   -0.3011 H.spc      1 <1>        0.000
     71 H           2.8190    1.8928    0.8279 H.spc      1 <1>        0.000
     72 H           2.6109    2.0192   -2.1141 H.spc      1 <1>        0.000
     73 H           2.5095    0.4303   -1.1344 H.spc      1 <1>        0.000
@<TRIPOS>BOND
     1   27   28 1  
     2   13   26 1  
     3   26   28 1  
     4   23   13 1  
     5   24   14 1  
     6   14   27 1  
     7   10   12 1  
     8    7   11 1  
     9    6    9 1  
    10    6   10 1  
    11    5    9 1  
    12    4    7 1  
    13    3    6 1  
    14    2    5 1  
    15    1    4 1  
    16    1    3 1  
    17    1    2 1  
    18   11    8 1  
    19   12   15 1  
    20    8   16 1  
    21   15   17 1  
    22   15   18 1  
    23   16   19 2  
    24   17   20 1  
    25   17   21 1  
    26   18   22 1  
    27   19   23 1  
    28   20   24 1  
    29   21   25 1  
    30   22   25 1  
    31    1   29 1  
    32    2   30 1  
    33    2   31 1  
    34    4   32 1  
    35    4   33 1  
    36    5   34 1  
    37    5   35 1  
    38    6   36 1  
    39    7   37 1  
    40    7   38 1  
    41    8   39 1  
    42    8   40 1  
    43    9   41 1  
    44    9   42 1  
    45   10   43 1  
    46   10   44 1  
    47   11   45 1  
    48   11   46 1  
    49   12   47 1  
    50   12   48 1  
    51   13   49 1  
    52   13   50 1  
    53   14   51 1  
    54   14   52 1  
    55   16   53 1  
    56   17   54 1  
    57   18   55 1  
    58   18   56 1  
    59   19   57 1  
    60   20   58 1  
    61   20   59 1  
    62   21   60 1  
    63   21   61 1  
    64   22   62 1  
    65   22   63 1  
    66   23   64 1  
    67   23   65 1  
    68   25   66 1  
    69   25   67 1  
    70   26   68 1  
    71   26   69 1  
    72   27   70 1  
    73   27   71 1  
    74   28   72 1  
    75   28   73 1  
# Name:          frag4-382-256/150395
# Creation time: Sat Jun  5 12:53:33 2010


@<TRIPOS>MOLECULE
frag4-382-256/150395
   73    75     1     1     1
SMALL
USER_CHARGES


@<TRIPOS>ATOM
      1 C1         -0.3807   -5.4382    0.2530 C.3        1 <1>        0.000
      2 C2         -1.7653   -5.9411    0.6487 C.3        1 <1>        0.000
      3 O1         -0.5000   -4.2405   -0.4513 O.3        1 <1>        0.000
      4 C3          0.5970   -5.5424    1.4138 C.3        1 <1>        0.000
      5 C4         -2.8384   -5.7693   -0.3969 C.3        1 <1>        0.000
      6 C5         -1.4429   -3.8988   -1.4153 C.3        1 <1>        0.000
      7 C6          2.0472   -5.1443    1.3190 C.3        1 <1>        0.000
      8 C14         1.7091   -2.5554    1.0674 C.3        1 <1>        0.000
      9 C7         -2.8316   -4.4325   -1.0967 C.3        1 <1>        0.000
     10 C9         -1.4124   -2.4365   -1.7709 C.3        1 <1>        0.000
     11 C10         2.4359   -3.7332    1.6930 C.3        1 <1>        0.000
     12 C13        -2.5727   -1.5134   -1.6344 C.3        1 <1>        0.000
     13 C26         4.4006    0.4602   -0.3732 C.3        1 <1>        0.000
     14 C28         1.2665    1.6645   -0.6483 C.3        1 <1>        0.000
     15 N1         -2.7678   -0.3520   -0.8608 N.3        1 <1>        0.000
     16 C16         2.1404   -2.2933   -0.3405 C.2        1 <1>        0.000
     17 C17        -1.6952    0.5994   -0.6961 C.3        1 <1>        0.000
     18 C18        -4.0454   -0.2456   -0.2102 C.3        1 <1>        0.000
     19 C19         3.2023   -1.5986   -0.7695 C.2        1 <1>        0.000
     20 C21        -0.4006    0.0669   -0.2361 C.3        1 <1>        0.000
     21 C22        -2.0371    1.7854    0.2051 C.3        1 <1>        0.000
     22 C23        -4.2687    0.8973    0.7623 C.3        1 <1>        0.000
     23 C24         4.2060   -0.9375    0.0880 C.3        1 <1>        0.000
     24 O7          0.8574    0.3834   -0.2480 O.3        1 <1>        0.000
     25 C25        -3.0068    1.4861    1.3104 C.3        1 <1>        0.000
     26 C29         4.3179    1.7687    0.3268 C.3        1 <1>        0.000
     27 C32         1.8388    2.5062    0.4653 C.3        1 <1>        0.000
     28 C33         3.0990    2.0458    1.1608 C.3        1 <1>        0.000
     29 H           0.1115   -6.0849   -0.4734 H.spc      1 <1>        0.000
     30 H          -1.6693   -7.0127    0.8233 H.spc      1 <1>        0.000
     31 H          -2.0751   -5.3530    1.5126 H.spc      1 <1>        0.000
     32 H           0.1955   -4.8311    2.1355 H.spc      1 <1>        0.000
     33 H           0.6500   -6.6164    1.5924 H.spc      1 <1>        0.000
     34 H          -2.6608   -6.5270   -1.1601 H.spc      1 <1>        0.000
     35 H          -3.7965   -5.8531    0.1161 H.spc      1 <1>        0.000
     36 H          -1.1482   -4.4137   -2.3297 H.spc      1 <1>        0.000
     37 H           2.5641   -5.7810    2.0370 H.spc      1 <1>        0.000
     38 H           2.2989   -5.2377    0.2626 H.spc      1 <1>        0.000
     39 H           1.9380   -1.6685    1.6583 H.spc      1 <1>        0.000
     40 H           0.6443   -2.7880    1.0536 H.spc      1 <1>        0.000
     41 H          -3.3495   -4.5654   -2.0465 H.spc      1 <1>        0.000
     42 H          -3.3036   -3.7163   -0.4241 H.spc      1 <1>        0.000
     43 H          -0.7015   -2.0320   -1.0504 H.spc      1 <1>        0.000
     44 H          -1.2518   -2.4578   -2.8488 H.spc      1 <1>        0.000
     45 H           3.4651   -3.6332    1.3482 H.spc      1 <1>        0.000
     46 H           2.2088   -3.6604    2.7566 H.spc      1 <1>        0.000
     47 H          -3.2768   -2.1811   -1.1379 H.spc      1 <1>        0.000
     48 H          -2.5670   -1.0684   -2.6294 H.spc      1 <1>        0.000
     49 H           5.4719    0.4334   -0.5723 H.spc      1 <1>        0.000
     50 H           3.5328    0.5536   -1.0261 H.spc      1 <1>        0.000
     51 H           0.3831    2.1824   -1.0218 H.spc      1 <1>        0.000
     52 H           2.0542    1.5337   -1.3903 H.spc      1 <1>        0.000
     53 H           1.5090   -2.7232   -1.1180 H.spc      1 <1>        0.000
     54 H          -1.5791    0.9208   -1.7312 H.spc      1 <1>        0.000
     55 H          -4.1369   -1.1517    0.3887 H.spc      1 <1>        0.000
     56 H          -4.7622   -0.0799   -1.0145 H.spc      1 <1>        0.000
     57 H           3.3374   -1.5138   -1.8478 H.spc      1 <1>        0.000
     58 H          -0.3354   -0.7530   -0.9514 H.spc      1 <1>        0.000
     59 H          -0.5651    0.2269    0.8295 H.spc      1 <1>        0.000
     60 H          -2.5069    2.5367   -0.4297 H.spc      1 <1>        0.000
     61 H          -1.1068    2.0974    0.6797 H.spc      1 <1>        0.000
     62 H          -4.8322    0.4985    1.6058 H.spc      1 <1>        0.000
     63 H          -4.7848    1.6884    0.2183 H.spc      1 <1>        0.000
     64 H           3.8591   -0.9360    1.1213 H.spc      1 <1>        0.000
     65 H           5.1510   -1.4771    0.0264 H.spc      1 <1>        0.000
     66 H          -3.2473    2.4142    1.8289 H.spc      1 <1>        0.000
     67 H          -2.5516    0.7695    1.9940 H.spc      1 <1>        0.000
     68 H           4.3047    2.5194   -0.4634 H.spc      1 <1>        0.000
     69 H           5.1546    1.7766    1.0254 H.spc      1 <1>        0.000
     70 H           2.1089    3.4504   -0.0077 H.spc      1 <1>        0.000
     71 H           1.0732    2.5022    1.2412 H.spc      1 <1>        0.000
     72 H           2.8407    1.0890    1.6146 H.spc      1 <1>        0.000
     73 H           3.3821    2.8715    1.8136 H.spc      1 <1>        0.000
@<TRIPOS>BOND
     1   27   28 1  
     2   13   26 1  
     3   26   28 1  
     4   23   13 1  
     5   24   14 1  
     6   14   27 1  
     7   10   12 1  
     8    7   11 1  
     9    6    9 1  
    10    6   10 1  
    11    5    9 1  
    12    4    7 1  
    13    3    6 1  
    14    2    5 1  
    15    1    4 1  
    16    1    3 1  
    17    1    2 1  
    18   11    8 1  
    19   12   15 1  
    20    8   16 1  
    21   15   17 1  
    22   15   18 1  
    23   16   19 2  
    24   17   20 1  
    25   17   21 1  
    26   18   22 1  
    27   19   23 1  
    28   20   24 1  
    29   21   25 1  
    30   22   25 1  
    31    1   29 1  
    32    2   30 1  
    33    2   31 1  
    34    4   32 1  
    35    4   33 1  
    36    5   34 1  
    37    5   35 1  
    38    6   36 1  
    39    7   37 1  
    40    7   38 1  
    41    8   39 1  
    42    8   40 1  
    43    9   41 1  
    44    9   42 1  
    45   10   43 1  
    46   10   44 1  
    47   11   45 1  
    48   11   46 1  
    49   12   47 1  
    50   12   48 1  
    51   13   49 1  
    52   13   50 1  
    53   14   51 1  
    54   14   52 1  
    55   16   53 1  
    56   17   54 1  
    57   18   55 1  
    58   18   56 1  
    59   19   57 1  
    60   20   58 1  
    61   20   59 1  
    62   21   60 1  
    63   21   61 1  
    64   22   62 1  
    65   22   63 1  
    66   23   64 1  
    67   23   65 1  
    68   25   66 1  
    69   25   67 1  
    70   26   68 1  
    71   26   69 1  
    72   27   70 1  
    73   27   71 1  
    74   28   72 1  
    75   28   73 1  
# Name:          frag4-382-256/150395
# Creation time: Sat Jun  5 12:53:33 2010


@<TRIPOS>MOLECULE
frag4-382-256/150395
   73    75     1     1     1
SMALL
USER_CHARGES


@<TRIPOS>ATOM
      1 C1         -0.4972   -5.3545    0.1374 C.3        1 <1>        0.000
      2 C2         -1.8608   -5.8470    0.5984 C.3        1 <1>        0.000
      3 O1         -0.6138   -4.1077   -0.4631 O.3        1 <1>        0.000
      4 C3          0.5717   -5.4352    1.1872 C.3        1 <1>        0.000
      5 C4         -2.8966   -5.7695   -0.5049 C.3        1 <1>        0.000
      6 C5         -1.5680   -3.8035   -1.4157 C.3        1 <1>        0.000
      7 C6          1.8599   -4.7137    0.9062 C.3        1 <1>        0.000
      8 C14         3.8753   -3.4827    1.6437 C.3        1 <1>        0.000
      9 C7         -2.9448   -4.3948   -1.0889 C.3        1 <1>        0.000
     10 C9         -1.6102   -2.3335   -1.6104 C.3        1 <1>        0.000
     11 C10         2.3653   -3.5742    1.7520 C.3        1 <1>        0.000
     12 C13        -2.8137   -1.5649   -1.3330 C.3        1 <1>        0.000
     13 C26         4.7668    0.5232    0.0712 C.3        1 <1>        0.000
     14 C28         0.6942    1.7541   -0.4572 C.3        1 <1>        0.000
     15 N1         -3.1064   -0.3805   -0.6787 N.3        1 <1>        0.000
     16 C16         4.3476   -3.2408    0.2342 C.2        1 <1>        0.000
     17 C17        -2.0808    0.5879   -0.3678 C.3        1 <1>        0.000
     18 C18        -4.4697   -0.1605   -0.2656 C.3        1 <1>        0.000
     19 C19         4.4393   -2.0675   -0.4058 C.2        1 <1>        0.000
     20 C21        -0.7954    0.0933    0.1078 C.3        1 <1>        0.000
     21 C22        -2.6406    1.6293    0.5941 C.3        1 <1>        0.000
     22 C23        -4.9191    1.2739   -0.3987 C.3        1 <1>        0.000
     23 C24         4.0996   -0.7914    0.2553 C.3        1 <1>        0.000
     24 O7          0.4456    0.4806    0.0934 O.3        1 <1>        0.000
     25 C25        -3.8767    2.2815    0.0335 C.3        1 <1>        0.000
     26 C29         4.3658    1.8480    0.6581 C.3        1 <1>        0.000
     27 C32         2.1391    2.1513   -0.5087 C.3        1 <1>        0.000
     28 C33         2.8763    1.9904    0.7912 C.3        1 <1>        0.000
     29 H          -0.1399   -6.0485   -0.6234 H.spc      1 <1>        0.000
     30 H          -1.7620   -6.8898    0.8998 H.spc      1 <1>        0.000
     31 H          -2.1915   -5.2128    1.4209 H.spc      1 <1>        0.000
     32 H           0.1530   -4.9617    2.0752 H.spc      1 <1>        0.000
     33 H           0.8327   -6.4906    1.2656 H.spc      1 <1>        0.000
     34 H          -2.6286   -6.4766   -1.2900 H.spc      1 <1>        0.000
     35 H          -3.8745   -6.0094   -0.0875 H.spc      1 <1>        0.000
     36 H          -1.2803   -4.2735   -2.3562 H.spc      1 <1>        0.000
     37 H           2.6141   -5.4864    1.0555 H.spc      1 <1>        0.000
     38 H           1.6742   -4.2423   -0.0589 H.spc      1 <1>        0.000
     39 H           4.2914   -4.4338    1.9758 H.spc      1 <1>        0.000
     40 H           4.2026   -2.6409    2.2538 H.spc      1 <1>        0.000
     41 H          -3.4971   -4.4622   -2.0262 H.spc      1 <1>        0.000
     42 H          -3.4062   -3.7449   -0.3453 H.spc      1 <1>        0.000
     43 H          -0.8868   -1.9543   -0.8886 H.spc      1 <1>        0.000
     44 H          -1.4628   -2.2085   -2.6831 H.spc      1 <1>        0.000
     45 H           2.0889   -3.7477    2.7920 H.spc      1 <1>        0.000
     46 H           1.9222   -2.6419    1.4018 H.spc      1 <1>        0.000
     47 H          -3.2748   -2.2514   -0.6229 H.spc      1 <1>        0.000
     48 H          -3.0239   -1.2350   -2.3504 H.spc      1 <1>        0.000
     49 H           5.7191    0.3493    0.5721 H.spc      1 <1>        0.000
     50 H           4.5947    0.7011   -0.9903 H.spc      1 <1>        0.000
     51 H           0.1916    2.4778    0.1845 H.spc      1 <1>        0.000
     52 H           0.3386    1.7264   -1.4872 H.spc      1 <1>        0.000
     53 H           4.6499   -4.1226   -0.3307 H.spc      1 <1>        0.000
     54 H          -1.8258    1.0148   -1.3378 H.spc      1 <1>        0.000
     55 H          -4.5381   -0.4272    0.7891 H.spc      1 <1>        0.000
     56 H          -5.1077   -0.7635   -0.9117 H.spc      1 <1>        0.000
     57 H           4.7739   -2.0544   -1.4431 H.spc      1 <1>        0.000
     58 H          -0.6943   -0.7373   -0.5908 H.spc      1 <1>        0.000
     59 H          -0.9754    0.2292    1.1742 H.spc      1 <1>        0.000
     60 H          -1.8840    2.3977    0.7531 H.spc      1 <1>        0.000
     61 H          -2.9028    1.1336    1.5288 H.spc      1 <1>        0.000
     62 H          -5.7863    1.4047    0.2485 H.spc      1 <1>        0.000
     63 H          -5.1275    1.4532   -1.4535 H.spc      1 <1>        0.000
     64 H           3.1117   -0.5909   -0.1595 H.spc      1 <1>        0.000
     65 H           4.3472   -1.0145    1.2931 H.spc      1 <1>        0.000
     66 H          -3.5837    2.8589   -0.8433 H.spc      1 <1>        0.000
     67 H          -4.3134    2.9021    0.8159 H.spc      1 <1>        0.000
     68 H           4.7205    2.6331   -0.0097 H.spc      1 <1>        0.000
     69 H           4.8011    1.9201    1.6548 H.spc      1 <1>        0.000
     70 H           2.6241    1.4975   -1.2336 H.spc      1 <1>        0.000
     71 H           2.1699    3.2105   -0.7640 H.spc      1 <1>        0.000
     72 H           2.5107    1.0720    1.2505 H.spc      1 <1>        0.000
     73 H           2.6958    2.8954    1.3712 H.spc      1 <1>        0.000
@<TRIPOS>BOND
     1   27   28 1  
     2   13   26 1  
     3   26   28 1  
     4   23   13 1  
     5   24   14 1  
     6   14   27 1  
     7   10   12 1  
     8    7   11 1  
     9    6    9 1  
    10    6   10 1  
    11    5    9 1  
    12    4    7 1  
    13    3    6 1  
    14    2    5 1  
    15    1    4 1  
    16    1    3 1  
    17    1    2 1  
    18   11    8 1  
    19   12   15 1  
    20    8   16 1  
    21   15   17 1  
    22   15   18 1  
    23   16   19 2  
    24   17   20 1  
    25   17   21 1  
    26   18   22 1  
    27   19   23 1  
    28   20   24 1  
    29   21   25 1  
    30   22   25 1  
    31    1   29 1  
    32    2   30 1  
    33    2   31 1  
    34    4   32 1  
    35    4   33 1  
    36    5   34 1  
    37    5   35 1  
    38    6   36 1  
    39    7   37 1  
    40    7   38 1  
    41    8   39 1  
    42    8   40 1  
    43    9   41 1  
    44    9   42 1  
    45   10   43 1  
    46   10   44 1  
    47   11   45 1  
    48   11   46 1  
    49   12   47 1  
    50   12   48 1  
    51   13   49 1  
    52   13   50 1  
    53   14   51 1  
    54   14   52 1  
    55   16   53 1  
    56   17   54 1  
    57   18   55 1  
    58   18   56 1  
    59   19   57 1  
    60   20   58 1  
    61   20   59 1  
    62   21   60 1  
    63   21   61 1  
    64   22   62 1  
    65   22   63 1  
    66   23   64 1  
    67   23   65 1  
    68   25   66 1  
    69   25   67 1  
    70   26   68 1  
    71   26   69 1  
    72   27   70 1  
    73   27   71 1  
    74   28   72 1  
    75   28   73 1  
# Name:          frag4-382-256/150395
# Creation time: Sat Jun  5 12:53:33 2010


@<TRIPOS>MOLECULE
frag4-382-256/150395
   73    75     1     1     1
SMALL
USER_CHARGES


@<TRIPOS>ATOM
      1 C1         -0.1513   -5.0456    0.8239 C.3        1 <1>        0.000
      2 C2         -1.5458   -5.6540    0.7934 C.3        1 <1>        0.000
      3 O1         -0.1613   -3.8216    0.1584 O.3        1 <1>        0.000
      4 C3          0.5656   -5.0633    2.1564 C.3        1 <1>        0.000
      5 C4         -2.1723   -5.6009   -0.5850 C.3        1 <1>        0.000
      6 C5         -0.7997   -3.4851   -1.0240 C.3        1 <1>        0.000
      7 C6          1.9530   -4.4509    2.2255 C.3        1 <1>        0.000
      8 C14         3.9928   -4.0879    0.6094 C.3        1 <1>        0.000
      9 C7         -2.1055   -4.2389   -1.2354 C.3        1 <1>        0.000
     10 C9         -0.9261   -1.9980   -1.1361 C.3        1 <1>        0.000
     11 C10         3.1051   -5.0130    1.4166 C.3        1 <1>        0.000
     12 C13        -2.1820   -1.2992   -1.4807 C.3        1 <1>        0.000
     13 C26         3.5398   -0.3321   -0.2774 C.3        1 <1>        0.000
     14 C28         0.2289    2.3743    0.8409 C.3        1 <1>        0.000
     15 N1         -2.8739   -0.2216   -0.9178 N.3        1 <1>        0.000
     16 C16         3.5281   -3.7024   -0.7578 C.2        1 <1>        0.000
     17 C17        -2.1709    0.8180   -0.2132 C.3        1 <1>        0.000
     18 C18        -4.3043   -0.1783   -1.0823 C.3        1 <1>        0.000
     19 C19         3.6949   -2.5459   -1.4150 C.2        1 <1>        0.000
     20 C21        -1.1863    0.5129    0.8444 C.3        1 <1>        0.000
     21 C22        -3.1109    1.8631    0.3761 C.3        1 <1>        0.000
     22 C23        -4.9322    1.2066   -1.1790 C.3        1 <1>        0.000
     23 C24         4.4004   -1.3126   -0.9998 C.3        1 <1>        0.000
     24 O7         -0.1613    1.1251    1.3713 O.3        1 <1>        0.000
     25 C25        -4.1322    2.3411   -0.6059 C.3        1 <1>        0.000
     26 C29         3.7489    1.1277   -0.0638 C.3        1 <1>        0.000
     27 C32         1.5502    2.4263    0.1166 C.3        1 <1>        0.000
     28 C33         2.7606    1.8473    0.8054 C.3        1 <1>        0.000
     29 H           0.4998   -5.7216    0.2697 H.spc      1 <1>        0.000
     30 H          -1.4622   -6.7011    1.0846 H.spc      1 <1>        0.000
     31 H          -2.1775   -5.0809    1.4721 H.spc      1 <1>        0.000
     32 H          -0.0503   -4.4617    2.8248 H.spc      1 <1>        0.000
     33 H           0.7018   -6.1174    2.3982 H.spc      1 <1>        0.000
     34 H          -1.6173   -6.2912   -1.2203 H.spc      1 <1>        0.000
     35 H          -3.2262   -5.8550   -0.4722 H.spc      1 <1>        0.000
     36 H          -0.1755   -3.8166   -1.8538 H.spc      1 <1>        0.000
     37 H           1.8160   -3.4475    1.8225 H.spc      1 <1>        0.000
     38 H           2.2577   -4.6104    3.2598 H.spc      1 <1>        0.000
     39 H           4.9244   -4.6334    0.4591 H.spc      1 <1>        0.000
     40 H           4.0388   -3.1579    1.1761 H.spc      1 <1>        0.000
     41 H          -2.2051   -4.3988   -2.3090 H.spc      1 <1>        0.000
     42 H          -2.8926   -3.6360   -0.7824 H.spc      1 <1>        0.000
     43 H          -0.7368   -1.6632   -0.1162 H.spc      1 <1>        0.000
     44 H          -0.2812   -1.7652   -1.9835 H.spc      1 <1>        0.000
     45 H           2.6276   -5.6488    0.6710 H.spc      1 <1>        0.000
     46 H           3.7724   -5.4470    2.1612 H.spc      1 <1>        0.000
     47 H          -2.8882   -2.0951   -1.2440 H.spc      1 <1>        0.000
     48 H          -1.8629   -0.8276   -2.4102 H.spc      1 <1>        0.000
     49 H           2.6652   -0.3161   -0.9277 H.spc      1 <1>        0.000
     50 H           3.6324   -0.6993    0.7447 H.spc      1 <1>        0.000
     51 H           0.3313    3.0423    1.6961 H.spc      1 <1>        0.000
     52 H          -0.5275    2.6329    0.0999 H.spc      1 <1>        0.000
     53 H           2.9748   -4.4710   -1.2974 H.spc      1 <1>        0.000
     54 H          -1.5675    1.1527   -1.0570 H.spc      1 <1>        0.000
     55 H          -4.7262   -0.6408   -0.1900 H.spc      1 <1>        0.000
     56 H          -4.5156   -0.6738   -2.0299 H.spc      1 <1>        0.000
     57 H           3.2421   -2.5080   -2.4058 H.spc      1 <1>        0.000
     58 H          -0.6446   -0.2794    0.3278 H.spc      1 <1>        0.000
     59 H          -1.8574    0.5687    1.7015 H.spc      1 <1>        0.000
     60 H          -2.5100    2.7210    0.6779 H.spc      1 <1>        0.000
     61 H          -3.6395    1.4042    1.2116 H.spc      1 <1>        0.000
     62 H          -5.8548    1.1628   -0.6002 H.spc      1 <1>        0.000
     63 H          -5.0394    1.4177   -2.2430 H.spc      1 <1>        0.000
     64 H           5.1943   -1.6105   -0.3150 H.spc      1 <1>        0.000
     65 H           4.7550   -0.8232   -1.9069 H.spc      1 <1>        0.000
     66 H          -3.6125    2.8402   -1.4238 H.spc      1 <1>        0.000
     67 H          -4.8157    3.0138   -0.0879 H.spc      1 <1>        0.000
     68 H           3.6609    1.5846   -1.0495 H.spc      1 <1>        0.000
     69 H           4.7080    1.2157    0.4465 H.spc      1 <1>        0.000
     70 H           1.4118    1.8219   -0.7799 H.spc      1 <1>        0.000
     71 H           1.7691    3.4867   -0.0084 H.spc      1 <1>        0.000
     72 H           2.3807    1.1048    1.5071 H.spc      1 <1>        0.000
     73 H           3.2971    2.6943    1.2331 H.spc      1 <1>        0.000
@<TRIPOS>BOND
     1   27   28 1  
     2   13   26 1  
     3   26   28 1  
     4   23   13 1  
     5   24   14 1  
     6   14   27 1  
     7   10   12 1  
     8    7   11 1  
     9    6    9 1  
    10    6   10 1  
    11    5    9 1  
    12    4    7 1  
    13    3    6 1  
    14    2    5 1  
    15    1    4 1  
    16    1    3 1  
    17    1    2 1  
    18   11    8 1  
    19   12   15 1  
    20    8   16 1  
    21   15   17 1  
    22   15   18 1  
    23   16   19 2  
    24   17   20 1  
    25   17   21 1  
    26   18   22 1  
    27   19   23 1  
    28   20   24 1  
    29   21   25 1  
    30   22   25 1  
    31    1   29 1  
    32    2   30 1  
    33    2   31 1  
    34    4   32 1  
    35    4   33 1  
    36    5   34 1  
    37    5   35 1  
    38    6   36 1  
    39    7   37 1  
    40    7   38 1  
    41    8   39 1  
    42    8   40 1  
    43    9   41 1  
    44    9   42 1  
    45   10   43 1  
    46   10   44 1  
    47   11   45 1  
    48   11   46 1  
    49   12   47 1  
    50   12   48 1  
    51   13   49 1  
    52   13   50 1  
    53   14   51 1  
    54   14   52 1  
    55   16   53 1  
    56   17   54 1  
    57   18   55 1  
    58   18   56 1  
    59   19   57 1  
    60   20   58 1  
    61   20   59 1  
    62   21   60 1  
    63   21   61 1  
    64   22   62 1  
    65   22   63 1  
    66   23   64 1  
    67   23   65 1  
    68   25   66 1  
    69   25   67 1  
    70   26   68 1  
    71   26   69 1  
    72   27   70 1  
    73   27   71 1  
    74   28   72 1  
    75   28   73 1  
# Name:          frag4-382-256/150395
# Creation time: Sat Jun  5 12:53:33 2010


@<TRIPOS>MOLECULE
frag4-382-256/150395
   73    75     1     1     1
SMALL
USER_CHARGES


@<TRIPOS>ATOM
      1 C1         -0.3909   -5.4281    0.3503 C.3        1 <1>        0.000
      2 C2         -1.6818   -5.7598    1.0932 C.3        1 <1>        0.000
      3 O1         -0.5714   -4.2735   -0.4059 O.3        1 <1>        0.000
      4 C3          0.9029   -5.4992    1.1318 C.3        1 <1>        0.000
      5 C4         -2.8913   -5.7028    0.1829 C.3        1 <1>        0.000
      6 C5         -1.6621   -3.9553   -1.1980 C.3        1 <1>        0.000
      7 C6          2.1731   -5.6210    0.3126 C.3        1 <1>        0.000
      8 C14         2.4981   -3.0256   -0.2500 C.3        1 <1>        0.000
      9 C7         -2.9852   -4.4361   -0.6264 C.3        1 <1>        0.000
     10 C9         -1.6369   -2.4956   -1.5290 C.3        1 <1>        0.000
     11 C10         2.9384   -4.4691   -0.3101 C.3        1 <1>        0.000
     12 C13        -2.7950   -1.5980   -1.2898 C.3        1 <1>        0.000
     13 C26         4.3194    0.6312    1.6900 C.3        1 <1>        0.000
     14 C28         1.1505    1.4560   -1.0050 C.3        1 <1>        0.000
     15 N1         -2.9129   -0.3370   -0.6655 N.3        1 <1>        0.000
     16 C16         3.5228   -2.0595   -0.7750 C.2        1 <1>        0.000
     17 C17        -1.8041    0.5632   -0.5801 C.3        1 <1>        0.000
     18 C18        -4.1987    0.0272   -0.1450 C.3        1 <1>        0.000
     19 C19         4.1891   -1.1070   -0.1086 C.2        1 <1>        0.000
     20 C21        -0.4944   -0.0025   -0.2302 C.3        1 <1>        0.000
     21 C22        -2.1256    1.7705    0.2998 C.3        1 <1>        0.000
     22 C23        -4.5354    1.4930   -0.3582 C.3        1 <1>        0.000
     23 C24         4.0520   -0.7932    1.3364 C.3        1 <1>        0.000
     24 O7          0.7504    0.1757   -0.5938 O.3        1 <1>        0.000
     25 C25        -3.4019    2.4507   -0.1116 C.3        1 <1>        0.000
     26 C29         3.4027    1.7251    2.1293 C.3        1 <1>        0.000
     27 C32         2.2170    2.0639   -0.1315 C.3        1 <1>        0.000
     28 C33         2.1236    1.7981    1.3527 C.3        1 <1>        0.000
     29 H          -0.2129   -6.2621   -0.3286 H.spc      1 <1>        0.000
     30 H          -1.5983   -6.7732    1.4858 H.spc      1 <1>        0.000
     31 H          -1.8172   -5.0244    1.8862 H.spc      1 <1>        0.000
     32 H           0.9813   -4.5589    1.6775 H.spc      1 <1>        0.000
     33 H           0.8434   -6.4032    1.7379 H.spc      1 <1>        0.000
     34 H          -2.8079   -6.5317   -0.5200 H.spc      1 <1>        0.000
     35 H          -3.7770   -5.7496    0.8165 H.spc      1 <1>        0.000
     36 H          -1.5765   -4.5075   -2.1339 H.spc      1 <1>        0.000
     37 H           2.8840   -5.9935    1.0501 H.spc      1 <1>        0.000
     38 H           1.8252   -6.1639   -0.5663 H.spc      1 <1>        0.000
     39 H           2.3258   -2.7806    0.7980 H.spc      1 <1>        0.000
     40 H           1.6095   -2.9295   -0.8739 H.spc      1 <1>        0.000
     41 H          -3.6411   -4.6450   -1.4715 H.spc      1 <1>        0.000
     42 H          -3.3464   -3.6554    0.0431 H.spc      1 <1>        0.000
     43 H          -0.8718   -2.1006   -0.8606 H.spc      1 <1>        0.000
     44 H          -1.5333   -2.4868   -2.6140 H.spc      1 <1>        0.000
     45 H           2.8799   -4.6921   -1.3754 H.spc      1 <1>        0.000
     46 H           3.8647   -4.4600    0.2643 H.spc      1 <1>        0.000
     47 H          -3.3418   -2.2042   -0.5676 H.spc      1 <1>        0.000
     48 H          -3.0074   -1.3062   -2.3183 H.spc      1 <1>        0.000
     49 H           4.8932    0.4906    2.6060 H.spc      1 <1>        0.000
     50 H           4.6101    1.0140    0.7117 H.spc      1 <1>        0.000
     51 H           0.2759    2.1044   -0.9524 H.spc      1 <1>        0.000
     52 H           1.5643    1.3625   -2.0090 H.spc      1 <1>        0.000
     53 H           3.7542   -2.1449   -1.8367 H.spc      1 <1>        0.000
     54 H          -1.6751    0.8716   -1.6176 H.spc      1 <1>        0.000
     55 H          -4.1848   -0.1563    0.9294 H.spc      1 <1>        0.000
     56 H          -4.9482   -0.5643   -0.6708 H.spc      1 <1>        0.000
     57 H           4.8973   -0.5069   -0.6800 H.spc      1 <1>        0.000
     58 H          -0.6372   -0.9890   -0.6713 H.spc      1 <1>        0.000
     59 H          -0.4163    0.4158    0.7733 H.spc      1 <1>        0.000
     60 H          -1.3117    2.4886    0.2002 H.spc      1 <1>        0.000
     61 H          -2.2436    1.4204    1.3253 H.spc      1 <1>        0.000
     62 H          -5.3183    1.7425    0.3580 H.spc      1 <1>        0.000
     63 H          -4.8154    1.6014   -1.4060 H.spc      1 <1>        0.000
     64 H           3.0176   -1.0005    1.6104 H.spc      1 <1>        0.000
     65 H           4.7904   -1.3964    1.8646 H.spc      1 <1>        0.000
     66 H          -3.2074    2.9777   -1.0457 H.spc      1 <1>        0.000
     67 H          -3.7002    3.1107    0.7029 H.spc      1 <1>        0.000
     68 H           3.9280    2.6678    1.9759 H.spc      1 <1>        0.000
     69 H           3.1389    1.5278    3.1683 H.spc      1 <1>        0.000
     70 H           3.1568    1.6163   -0.4549 H.spc      1 <1>        0.000
     71 H           2.1162    3.1431   -0.2470 H.spc      1 <1>        0.000
     72 H           1.6703    0.8111    1.4442 H.spc      1 <1>        0.000
     73 H           1.5789    2.6465    1.7671 H.spc      1 <1>        0.000
@<TRIPOS>BOND
     1   27   28 1  
     2   13   26 1  
     3   26   28 1  
     4   23   13 1  
     5   24   14 1  
     6   14   27 1  
     7   10   12 1  
     8    7   11 1  
     9    6    9 1  
    10    6   10 1  
    11    5    9 1  
    12    4    7 1  
    13    3    6 1  
    14    2    5 1  
    15    1    4 1  
    16    1    3 1  
    17    1    2 1  
    18   11    8 1  
    19   12   15 1  
    20    8   16 1  
    21   15   17 1  
    22   15   18 1  
    23   16   19 2  
    24   17   20 1  
    25   17   21 1  
    26   18   22 1  
    27   19   23 1  
    28   20   24 1  
    29   21   25 1  
    30   22   25 1  
    31    1   29 1  
    32    2   30 1  
    33    2   31 1  
    34    4   32 1  
    35    4   33 1  
    36    5   34 1  
    37    5   35 1  
    38    6   36 1  
    39    7   37 1  
    40    7   38 1  
    41    8   39 1  
    42    8   40 1  
    43    9   41 1  
    44    9   42 1  
    45   10   43 1  
    46   10   44 1  
    47   11   45 1  
    48   11   46 1  
    49   12   47 1  
    50   12   48 1  
    51   13   49 1  
    52   13   50 1  
    53   14   51 1  
    54   14   52 1  
    55   16   53 1  
    56   17   54 1  
    57   18   55 1  
    58   18   56 1  
    59   19   57 1  
    60   20   58 1  
    61   20   59 1  
    62   21   60 1  
    63   21   61 1  
    64   22   62 1  
    65   22   63 1  
    66   23   64 1  
    67   23   65 1  
    68   25   66 1  
    69   25   67 1  
    70   26   68 1  
    71   26   69 1  
    72   27   70 1  
    73   27   71 1  
    74   28   72 1  
    75   28   73 1  
# Name:          frag4-382-256/150395
# Creation time: Sat Jun  5 12:53:33 2010


@<TRIPOS>MOLECULE
frag4-382-256/150395
   73    75     1     1     1
SMALL
USER_CHARGES


@<TRIPOS>ATOM
      1 C1         -0.5073   -5.0188    0.8043 C.3        1 <1>        0.000
      2 C2         -1.9582   -5.4387    0.9983 C.3        1 <1>        0.000
      3 O1         -0.4577   -3.8832   -0.0098 O.3        1 <1>        0.000
      4 C3          0.3632   -4.9917    2.0518 C.3        1 <1>        0.000
      5 C4         -2.7250   -5.4762   -0.3042 C.3        1 <1>        0.000
      6 C5         -1.1758   -3.6347   -1.1749 C.3        1 <1>        0.000
      7 C6          1.8676   -5.1523    1.9012 C.3        1 <1>        0.000
      8 C14         4.0511   -3.9907    1.0064 C.3        1 <1>        0.000
      9 C7         -2.5805   -4.2261   -1.1413 C.3        1 <1>        0.000
     10 C9         -1.1618   -2.1874   -1.5659 C.3        1 <1>        0.000
     11 C10         2.5739   -4.3032    0.8736 C.3        1 <1>        0.000
     12 C13        -2.3705   -1.3896   -1.8786 C.3        1 <1>        0.000
     13 C26         3.9262    0.2917   -0.6263 C.3        1 <1>        0.000
     14 C28         0.7228    1.9210   -0.0228 C.3        1 <1>        0.000
     15 N1         -2.9287   -0.2518   -1.2684 N.3        1 <1>        0.000
     16 C16         4.6440   -3.4118   -0.2406 C.2        1 <1>        0.000
     17 C17        -2.0626    0.7691   -0.7461 C.3        1 <1>        0.000
     18 C18        -4.3594   -0.2402   -1.1347 C.3        1 <1>        0.000
     19 C19         4.5108   -2.1556   -0.7029 C.2        1 <1>        0.000
     20 C21        -0.9390    0.2963    0.0826 C.3        1 <1>        0.000
     21 C22        -2.7505    1.9015    0.0273 C.3        1 <1>        0.000
     22 C23        -4.9714    0.9351   -0.3977 C.3        1 <1>        0.000
     23 C24         3.7376   -1.0666   -0.0429 C.3        1 <1>        0.000
     24 O7          0.2952    0.6252    0.3131 O.3        1 <1>        0.000
     25 C25        -4.0768    1.5517    0.6303 C.3        1 <1>        0.000
     26 C29         3.8461    1.6731   -0.0577 C.3        1 <1>        0.000
     27 C32         1.6300    2.5231    1.0156 C.3        1 <1>        0.000
     28 C33         3.0090    1.9219    1.1756 C.3        1 <1>        0.000
     29 H          -0.0044   -5.8264    0.2724 H.spc      1 <1>        0.000
     30 H          -1.9654   -6.4423    1.4235 H.spc      1 <1>        0.000
     31 H          -2.4367   -4.7086    1.6510 H.spc      1 <1>        0.000
     32 H           0.2267   -3.9940    2.4690 H.spc      1 <1>        0.000
     33 H           0.0448   -5.8549    2.6363 H.spc      1 <1>        0.000
     34 H          -2.3259   -6.3044   -0.8897 H.spc      1 <1>        0.000
     35 H          -3.7811   -5.5766   -0.0540 H.spc      1 <1>        0.000
     36 H          -0.6504   -4.1640   -1.9698 H.spc      1 <1>        0.000
     37 H           2.2871   -4.8514    2.8612 H.spc      1 <1>        0.000
     38 H           2.0163   -6.1819    1.5757 H.spc      1 <1>        0.000
     39 H           4.5698   -4.9262    1.2161 H.spc      1 <1>        0.000
     40 H           4.1631   -3.2520    1.8000 H.spc      1 <1>        0.000
     41 H          -2.8314   -4.5016   -2.1656 H.spc      1 <1>        0.000
     42 H          -3.2298   -3.4719   -0.6966 H.spc      1 <1>        0.000
     43 H          -0.7863   -1.7032   -0.6645 H.spc      1 <1>        0.000
     44 H          -0.6379   -2.2063   -2.5216 H.spc      1 <1>        0.000
     45 H           2.0884   -3.3306    0.9537 H.spc      1 <1>        0.000
     46 H           2.5074   -4.8870   -0.0444 H.spc      1 <1>        0.000
     47 H          -3.1394   -2.1222   -1.6334 H.spc      1 <1>        0.000
     48 H          -2.0582   -0.9518   -2.8267 H.spc      1 <1>        0.000
     49 H           4.9982    0.2478   -0.8189 H.spc      1 <1>        0.000
     50 H           3.0506    0.3225   -1.2747 H.spc      1 <1>        0.000
     51 H          -0.1609    2.5542   -0.1016 H.spc      1 <1>        0.000
     52 H           1.2810    1.8567   -0.9568 H.spc      1 <1>        0.000
     53 H           5.2535   -4.0855   -0.8429 H.spc      1 <1>        0.000
     54 H          -1.6761    1.1613   -1.6868 H.spc      1 <1>        0.000
     55 H          -4.6110   -1.1236   -0.5478 H.spc      1 <1>        0.000
     56 H          -4.7531   -0.1929   -2.1500 H.spc      1 <1>        0.000
     57 H           5.0114   -1.9138   -1.6405 H.spc      1 <1>        0.000
     58 H          -0.7384   -0.6241   -0.4658 H.spc      1 <1>        0.000
     59 H          -1.3453    0.5908    1.0502 H.spc      1 <1>        0.000
     60 H          -2.9349    2.7017   -0.6894 H.spc      1 <1>        0.000
     61 H          -2.0900    2.1603    0.8549 H.spc      1 <1>        0.000
     62 H          -5.8515    0.5618    0.1260 H.spc      1 <1>        0.000
     63 H          -5.1832    1.7040   -1.1407 H.spc      1 <1>        0.000
     64 H           2.6832   -1.3148   -0.1640 H.spc      1 <1>        0.000
     65 H           4.0884   -1.0151    0.9878 H.spc      1 <1>        0.000
     66 H          -4.5450    2.4602    1.0090 H.spc      1 <1>        0.000
     67 H          -3.9215    0.8380    1.4394 H.spc      1 <1>        0.000
     68 H           3.3716    2.2670   -0.8389 H.spc      1 <1>        0.000
     69 H           4.8660    1.9062    0.2482 H.spc      1 <1>        0.000
     70 H           1.7950    3.5527    0.6981 H.spc      1 <1>        0.000
     71 H           1.1287    2.3629    1.9701 H.spc      1 <1>        0.000
     72 H           2.8372    0.9340    1.6028 H.spc      1 <1>        0.000
     73 H           3.5706    2.6561    1.7532 H.spc      1 <1>        0.000
@<TRIPOS>BOND
     1   27   28 1  
     2   13   26 1  
     3   26   28 1  
     4   23   13 1  
     5   24   14 1  
     6   14   27 1  
     7   10   12 1  
     8    7   11 1  
     9    6    9 1  
    10    6   10 1  
    11    5    9 1  
    12    4    7 1  
    13    3    6 1  
    14    2    5 1  
    15    1    4 1  
    16    1    3 1  
    17    1    2 1  
    18   11    8 1  
    19   12   15 1  
    20    8   16 1  
    21   15   17 1  
    22   15   18 1  
    23   16   19 2  
    24   17   20 1  
    25   17   21 1  
    26   18   22 1  
    27   19   23 1  
    28   20   24 1  
    29   21   25 1  
    30   22   25 1  
    31    1   29 1  
    32    2   30 1  
    33    2   31 1  
    34    4   32 1  
    35    4   33 1  
    36    5   34 1  
    37    5   35 1  
    38    6   36 1  
    39    7   37 1  
    40    7   38 1  
    41    8   39 1  
    42    8   40 1  
    43    9   41 1  
    44    9   42 1  
    45   10   43 1  
    46   10   44 1  
    47   11   45 1  
    48   11   46 1  
    49   12   47 1  
    50   12   48 1  
    51   13   49 1  
    52   13   50 1  
    53   14   51 1  
    54   14   52 1  
    55   16   53 1  
    56   17   54 1  
    57   18   55 1  
    58   18   56 1  
    59   19   57 1  
    60   20   58 1  
    61   20   59 1  
    62   21   60 1  
    63   21   61 1  
    64   22   62 1  
    65   22   63 1  
    66   23   64 1  
    67   23   65 1  
    68   25   66 1  
    69   25   67 1  
    70   26   68 1  
    71   26   69 1  
    72   27   70 1  
    73   27   71 1  
    74   28   72 1  
    75   28   73 1  
# Name:          frag4-382-256/150395
# Creation time: Sat Jun  5 12:53:33 2010


@<TRIPOS>MOLECULE
frag4-382-256/150395
   73    75     1     1     1
SMALL
USER_CHARGES


@<TRIPOS>ATOM
      1 C1         -0.3047   -5.3553    0.1735 C.3        1 <1>        0.000
      2 C2         -1.7468   -5.8508    0.2132 C.3        1 <1>        0.000
      3 O1         -0.2725   -4.0504   -0.3223 O.3        1 <1>        0.000
      4 C3          0.5296   -5.6515    1.4131 C.3        1 <1>        0.000
      5 C4         -2.4863   -5.5800   -1.0773 C.3        1 <1>        0.000
      6 C5         -0.9935   -3.5287   -1.3884 C.3        1 <1>        0.000
      7 C6          2.0360   -5.7449    1.2574 C.3        1 <1>        0.000
      8 C14         2.6452   -3.1967    1.3003 C.3        1 <1>        0.000
      9 C7         -2.3700   -4.1540   -1.5506 C.3        1 <1>        0.000
     10 C9         -1.0267   -2.0290   -1.3439 C.3        1 <1>        0.000
     11 C10         2.9793   -4.6398    1.6682 C.3        1 <1>        0.000
     12 C13        -2.2745   -1.2308   -1.4561 C.3        1 <1>        0.000
     13 C26         4.2122    0.3679   -0.9214 C.3        1 <1>        0.000
     14 C28         0.7071    1.8313    0.9694 C.3        1 <1>        0.000
     15 N1         -2.8116   -0.1857   -0.6904 N.3        1 <1>        0.000
     16 C16         3.6313   -2.1459    1.7134 C.2        1 <1>        0.000
     17 C17        -1.9498    0.6990    0.0438 C.3        1 <1>        0.000
     18 C18        -4.2400   -0.0257   -0.6592 C.3        1 <1>        0.000
     19 C19         4.3428   -1.2702    0.9795 C.2        1 <1>        0.000
     20 C21        -0.9155    0.1551    0.9369 C.3        1 <1>        0.000
     21 C22        -2.7105    1.7253    0.8707 C.3        1 <1>        0.000
     22 C23        -4.7648    1.3963   -0.4847 C.3        1 <1>        0.000
     23 C24         4.3394   -1.0656   -0.4950 C.3        1 <1>        0.000
     24 O7          0.2186    0.5833    1.4129 O.3        1 <1>        0.000
     25 C25        -3.8048    2.3953    0.1007 C.3        1 <1>        0.000
     26 C29         3.3038    1.0252   -1.8940 C.3        1 <1>        0.000
     27 C32         1.9421    1.7976    0.1161 C.3        1 <1>        0.000
     28 C33         1.9372    1.3202   -1.3208 C.3        1 <1>        0.000
     29 H           0.2471   -5.9669   -0.5404 H.spc      1 <1>        0.000
     30 H          -1.7282   -6.9292    0.3708 H.spc      1 <1>        0.000
     31 H          -2.2628   -5.3217    1.0144 H.spc      1 <1>        0.000
     32 H           0.3613   -4.8072    2.0816 H.spc      1 <1>        0.000
     33 H           0.2127   -6.6407    1.7435 H.spc      1 <1>        0.000
     34 H          -2.0473   -6.2165   -1.8456 H.spc      1 <1>        0.000
     35 H          -3.5426   -5.7797   -0.8971 H.spc      1 <1>        0.000
     36 H          -0.4574   -3.8077   -2.2955 H.spc      1 <1>        0.000
     37 H           2.3034   -6.5602    1.9296 H.spc      1 <1>        0.000
     38 H           2.1698   -5.7945    0.1768 H.spc      1 <1>        0.000
     39 H           1.7201   -2.9611    1.8263 H.spc      1 <1>        0.000
     40 H           2.6147   -3.1657    0.2112 H.spc      1 <1>        0.000
     41 H          -2.5873   -4.1599   -2.6187 H.spc      1 <1>        0.000
     42 H          -3.0553   -3.5649   -0.9411 H.spc      1 <1>        0.000
     43 H          -0.6864   -1.8079   -0.3323 H.spc      1 <1>        0.000
     44 H          -0.4755   -1.7466   -2.2409 H.spc      1 <1>        0.000
     45 H           3.9070   -4.8544    1.1377 H.spc      1 <1>        0.000
     46 H           2.9712   -4.6580    2.7580 H.spc      1 <1>        0.000
     47 H          -3.0006   -2.0092   -1.2216 H.spc      1 <1>        0.000
     48 H          -2.0466   -0.6790   -2.3680 H.spc      1 <1>        0.000
     49 H           3.8377    0.8037    0.0049 H.spc      1 <1>        0.000
     50 H           5.1614    0.4904   -1.4431 H.spc      1 <1>        0.000
     51 H           0.9737    2.3891    1.8671 H.spc      1 <1>        0.000
     52 H          -0.0789    2.2616    0.3487 H.spc      1 <1>        0.000
     53 H           3.8005   -2.0800    2.7882 H.spc      1 <1>        0.000
     54 H          -1.4191    1.1155   -0.8124 H.spc      1 <1>        0.000
     55 H          -4.5862   -0.5831    0.2111 H.spc      1 <1>        0.000
     56 H          -4.6018   -0.3629   -1.6306 H.spc      1 <1>        0.000
     57 H           5.0139   -0.6215    1.5424 H.spc      1 <1>        0.000
     58 H          -0.5254   -0.6164    0.2731 H.spc      1 <1>        0.000
     59 H          -1.4883    0.1652    1.8642 H.spc      1 <1>        0.000
     60 H          -2.0028    2.4937    1.1819 H.spc      1 <1>        0.000
     61 H          -3.1660    1.2040    1.7127 H.spc      1 <1>        0.000
     62 H          -5.5965    1.3284    0.2165 H.spc      1 <1>        0.000
     63 H          -5.0037    1.7561   -1.4855 H.spc      1 <1>        0.000
     64 H           5.2966   -1.4274   -0.8705 H.spc      1 <1>        0.000
     65 H           3.4721   -1.5950   -0.8895 H.spc      1 <1>        0.000
     66 H          -3.3546    2.9588   -0.7165 H.spc      1 <1>        0.000
     67 H          -4.3564    3.0438    0.7813 H.spc      1 <1>        0.000
     68 H           3.1708    0.3453   -2.7355 H.spc      1 <1>        0.000
     69 H           3.7555    1.9750   -2.1802 H.spc      1 <1>        0.000
     70 H           2.2120    2.8499    0.0276 H.spc      1 <1>        0.000
     71 H           2.5723    1.0645    0.6196 H.spc      1 <1>        0.000
     72 H           1.5089    2.1236   -1.9201 H.spc      1 <1>        0.000
     73 H           1.3761    0.3859   -1.3424 H.spc      1 <1>        0.000
@<TRIPOS>BOND
     1   27   28 1  
     2   13   26 1  
     3   26   28 1  
     4   23   13 1  
     5   24   14 1  
     6   14   27 1  
     7   10   12 1  
     8    7   11 1  
     9    6    9 1  
    10    6   10 1  
    11    5    9 1  
    12    4    7 1  
    13    3    6 1  
    14    2    5 1  
    15    1    4 1  
    16    1    3 1  
    17    1    2 1  
    18   11    8 1  
    19   12   15 1  
    20    8   16 1  
    21   15   17 1  
    22   15   18 1  
    23   16   19 2  
    24   17   20 1  
    25   17   21 1  
    26   18   22 1  
    27   19   23 1  
    28   20   24 1  
    29   21   25 1  
    30   22   25 1  
    31    1   29 1  
    32    2   30 1  
    33    2   31 1  
    34    4   32 1  
    35    4   33 1  
    36    5   34 1  
    37    5   35 1  
    38    6   36 1  
    39    7   37 1  
    40    7   38 1  
    41    8   39 1  
    42    8   40 1  
    43    9   41 1  
    44    9   42 1  
    45   10   43 1  
    46   10   44 1  
    47   11   45 1  
    48   11   46 1  
    49   12   47 1  
    50   12   48 1  
    51   13   49 1  
    52   13   50 1  
    53   14   51 1  
    54   14   52 1  
    55   16   53 1  
    56   17   54 1  
    57   18   55 1  
    58   18   56 1  
    59   19   57 1  
    60   20   58 1  
    61   20   59 1  
    62   21   60 1  
    63   21   61 1  
    64   22   62 1  
    65   22   63 1  
    66   23   64 1  
    67   23   65 1  
    68   25   66 1  
    69   25   67 1  
    70   26   68 1  
    71   26   69 1  
    72   27   70 1  
    73   27   71 1  
    74   28   72 1  
    75   28   73 1  
# Name:          frag4-382-256/150395
# Creation time: Sat Jun  5 12:53:33 2010


@<TRIPOS>MOLECULE
frag4-382-256/150395
   73    75     1     1     1
SMALL
USER_CHARGES


@<TRIPOS>ATOM
      1 C1         -0.1829   -5.1162    0.2004 C.3        1 <1>        0.000
      2 C2         -1.5226   -5.6100    0.7094 C.3        1 <1>        0.000
      3 O1         -0.3644   -3.9018   -0.4796 O.3        1 <1>        0.000
      4 C3          0.9304   -5.2466    1.2408 C.3        1 <1>        0.000
      5 C4         -2.5868   -5.5724   -0.3664 C.3        1 <1>        0.000
      6 C5         -1.3746   -3.5692   -1.3856 C.3        1 <1>        0.000
      7 C6          2.3571   -5.2404    0.7401 C.3        1 <1>        0.000
      8 C14         2.5450   -2.6529    0.6515 C.3        1 <1>        0.000
      9 C7         -2.6962   -4.2475   -1.0730 C.3        1 <1>        0.000
     10 C9         -1.5473   -2.0792   -1.6425 C.3        1 <1>        0.000
     11 C10         2.8125   -3.9978    0.0205 C.3        1 <1>        0.000
     12 C13        -2.8471   -1.3709   -1.5821 C.3        1 <1>        0.000
     13 C26         4.7477   -0.5333   -0.4596 C.3        1 <1>        0.000
     14 C28         0.7295    1.7657   -0.6402 C.3        1 <1>        0.000
     15 N1         -3.2655   -0.1914   -0.8628 N.3        1 <1>        0.000
     16 C16         3.4737   -2.3130    1.7558 C.2        1 <1>        0.000
     17 C17        -2.3212    0.8556   -0.5740 C.3        1 <1>        0.000
     18 C18        -4.6165   -0.2161   -0.3904 C.3        1 <1>        0.000
     19 C19         4.5896   -1.5697    1.8208 C.2        1 <1>        0.000
     20 C21        -1.0237    0.3711   -0.0499 C.3        1 <1>        0.000
     21 C22        -2.7915    1.9817    0.3457 C.3        1 <1>        0.000
     22 C23        -5.0859    1.0682    0.2604 C.3        1 <1>        0.000
     23 C24         5.4089   -0.7761    0.8583 C.3        1 <1>        0.000
     24 O7          0.2403    0.4830   -0.3366 O.3        1 <1>        0.000
     25 C25        -4.0482    1.7144    1.1297 C.3        1 <1>        0.000
     26 C29         3.6012    0.3487   -0.8466 C.3        1 <1>        0.000
     27 C32         1.9567    2.1253    0.1784 C.3        1 <1>        0.000
     28 C33         3.0341    1.0822    0.3431 C.3        1 <1>        0.000
     29 H           0.2287   -5.7718   -0.5670 H.spc      1 <1>        0.000
     30 H          -1.4036   -6.6434    1.0351 H.spc      1 <1>        0.000
     31 H          -1.8386   -4.9588    1.5244 H.spc      1 <1>        0.000
     32 H           0.8396   -4.3681    1.8797 H.spc      1 <1>        0.000
     33 H           0.7862   -6.2225    1.7044 H.spc      1 <1>        0.000
     34 H          -2.3163   -6.3169   -1.1151 H.spc      1 <1>        0.000
     35 H          -3.5444   -5.7600    0.1192 H.spc      1 <1>        0.000
     36 H          -1.0146   -3.9749   -2.3311 H.spc      1 <1>        0.000
     37 H           2.9876   -5.3244    1.6252 H.spc      1 <1>        0.000
     38 H           2.4256   -6.0511    0.0147 H.spc      1 <1>        0.000
     39 H           1.5397   -2.6858    1.0715 H.spc      1 <1>        0.000
     40 H           2.6743   -1.8988   -0.1248 H.spc      1 <1>        0.000
     41 H          -3.1813   -4.4425   -2.0294 H.spc      1 <1>        0.000
     42 H          -3.2393   -3.5803   -0.4037 H.spc      1 <1>        0.000
     43 H          -0.9907   -1.6285   -0.8208 H.spc      1 <1>        0.000
     44 H          -1.2713   -1.9838   -2.6926 H.spc      1 <1>        0.000
     45 H           2.2490   -3.9892   -0.9125 H.spc      1 <1>        0.000
     46 H           3.8986   -4.0785   -0.0228 H.spc      1 <1>        0.000
     47 H          -3.4403   -2.1224   -1.0610 H.spc      1 <1>        0.000
     48 H          -2.8943   -0.9890   -2.6019 H.spc      1 <1>        0.000
     49 H           5.5573   -0.0217   -0.9801 H.spc      1 <1>        0.000
     50 H           4.2904   -1.5099   -0.6187 H.spc      1 <1>        0.000
     51 H          -0.0532    2.4885   -0.4102 H.spc      1 <1>        0.000
     52 H           1.0105    1.7791   -1.6933 H.spc      1 <1>        0.000
     53 H           3.1930   -2.7577    2.7105 H.spc      1 <1>        0.000
     54 H          -2.2052    1.2760   -1.5730 H.spc      1 <1>        0.000
     55 H          -4.6713   -0.9946    0.3705 H.spc      1 <1>        0.000
     56 H          -5.2526   -0.3808   -1.2601 H.spc      1 <1>        0.000
     57 H           5.0005   -1.5377    2.8299 H.spc      1 <1>        0.000
     58 H          -1.1393   -0.6739   -0.3373 H.spc      1 <1>        0.000
     59 H          -1.0121    0.9658    0.8635 H.spc      1 <1>        0.000
     60 H          -3.0094    2.8324   -0.2999 H.spc      1 <1>        0.000
     61 H          -1.9989    2.1278    1.0796 H.spc      1 <1>        0.000
     62 H          -5.9367    0.8211    0.8954 H.spc      1 <1>        0.000
     63 H          -5.3270    1.7702   -0.5378 H.spc      1 <1>        0.000
     64 H           5.5831    0.1988    1.3137 H.spc      1 <1>        0.000
     65 H           6.3154   -1.3485    0.6613 H.spc      1 <1>        0.000
     66 H          -4.4397    2.6609    1.5026 H.spc      1 <1>        0.000
     67 H          -3.8128    1.0439    1.9562 H.spc      1 <1>        0.000
     68 H           2.8154   -0.2764   -1.2708 H.spc      1 <1>        0.000
     69 H           3.9622    1.0857   -1.5639 H.spc      1 <1>        0.000
     70 H           2.4309    2.9461   -0.3597 H.spc      1 <1>        0.000
     71 H           1.5850    2.3163    1.1851 H.spc      1 <1>        0.000
     72 H           2.5536    0.2990    0.9295 H.spc      1 <1>        0.000
     73 H           3.8832    1.6418    0.7355 H.spc      1 <1>        0.000
@<TRIPOS>BOND
     1   27   28 1  
     2   13   26 1  
     3   26   28 1  
     4   23   13 1  
     5   24   14 1  
     6   14   27 1  
     7   10   12 1  
     8    7   11 1  
     9    6    9 1  
    10    6   10 1  
    11    5    9 1  
    12    4    7 1  
    13    3    6 1  
    14    2    5 1  
    15    1    4 1  
    16    1    3 1  
    17    1    2 1  
    18   11    8 1  
    19   12   15 1  
    20    8   16 1  
    21   15   17 1  
    22   15   18 1  
    23   16   19 2  
    24   17   20 1  
    25   17   21 1  
    26   18   22 1  
    27   19   23 1  
    28   20   24 1  
    29   21   25 1  
    30   22   25 1  
    31    1   29 1  
    32    2   30 1  
    33    2   31 1  
    34    4   32 1  
    35    4   33 1  
    36    5   34 1  
    37    5   35 1  
    38    6   36 1  
    39    7   37 1  
    40    7   38 1  
    41    8   39 1  
    42    8   40 1  
    43    9   41 1  
    44    9   42 1  
    45   10   43 1  
    46   10   44 1  
    47   11   45 1  
    48   11   46 1  
    49   12   47 1  
    50   12   48 1  
    51   13   49 1  
    52   13   50 1  
    53   14   51 1  
    54   14   52 1  
    55   16   53 1  
    56   17   54 1  
    57   18   55 1  
    58   18   56 1  
    59   19   57 1  
    60   20   58 1  
    61   20   59 1  
    62   21   60 1  
    63   21   61 1  
    64   22   62 1  
    65   22   63 1  
    66   23   64 1  
    67   23   65 1  
    68   25   66 1  
    69   25   67 1  
    70   26   68 1  
    71   26   69 1  
    72   27   70 1  
    73   27   71 1  
    74   28   72 1  
    75   28   73 1  
# Name:          frag4-382-256/150395
# Creation time: Sat Jun  5 12:53:33 2010


@<TRIPOS>MOLECULE
frag4-382-256/150395
   73    75     1     1     1
SMALL
USER_CHARGES


@<TRIPOS>ATOM
      1 C1         -0.4708   -5.2965    0.4150 C.3        1 <1>        0.000
      2 C2         -1.8434   -5.7842    0.8512 C.3        1 <1>        0.000
      3 O1         -0.5718   -4.0936   -0.2830 O.3        1 <1>        0.000
      4 C3          0.5868   -5.3804    1.4896 C.3        1 <1>        0.000
      5 C4         -2.8408   -5.7405   -0.2860 C.3        1 <1>        0.000
      6 C5         -1.5061   -3.7865   -1.2617 C.3        1 <1>        0.000
      7 C6          2.0105   -5.2795    0.9822 C.3        1 <1>        0.000
      8 C14         3.9909   -4.0275    0.0407 C.3        1 <1>        0.000
      9 C7         -2.8767   -4.4059   -0.9942 C.3        1 <1>        0.000
     10 C9         -1.5507   -2.3111   -1.5103 C.3        1 <1>        0.000
     11 C10         2.6677   -3.9487    0.7942 C.3        1 <1>        0.000
     12 C13        -2.7794   -1.5133   -1.4071 C.3        1 <1>        0.000
     13 C26         4.3266    0.2954    1.5863 C.3        1 <1>        0.000
     14 C28         0.6555    1.9471   -0.5231 C.3        1 <1>        0.000
     15 N1         -3.1226   -0.3360   -0.7365 N.3        1 <1>        0.000
     16 C16         4.6603   -2.8023   -0.4900 C.2        1 <1>        0.000
     17 C17        -2.1369    0.6687   -0.4093 C.3        1 <1>        0.000
     18 C18        -4.5107   -0.1346   -0.4087 C.3        1 <1>        0.000
     19 C19         4.7062   -1.5534    0.0087 C.2        1 <1>        0.000
     20 C21        -0.8370    0.2963    0.1967 C.3        1 <1>        0.000
     21 C22        -2.7546    1.7879    0.4316 C.3        1 <1>        0.000
     22 C23        -4.9885    1.2949   -0.6057 C.3        1 <1>        0.000
     23 C24         4.0581   -1.1175    1.2581 C.3        1 <1>        0.000
     24 O7          0.3871    0.7656    0.2112 O.3        1 <1>        0.000
     25 C25        -4.0220    2.3559   -0.1535 C.3        1 <1>        0.000
     26 C29         3.6211    1.5317    1.1911 C.3        1 <1>        0.000
     27 C32         2.0557    2.5157   -0.5623 C.3        1 <1>        0.000
     28 C33         3.2377    1.6436   -0.2599 C.3        1 <1>        0.000
     29 H          -0.0706   -6.0050   -0.3103 H.spc      1 <1>        0.000
     30 H          -1.7501   -6.8171    1.1865 H.spc      1 <1>        0.000
     31 H          -2.2022   -5.1323    1.6477 H.spc      1 <1>        0.000
     32 H           0.4272   -4.5357    2.1597 H.spc      1 <1>        0.000
     33 H           0.4853   -6.3583    1.9603 H.spc      1 <1>        0.000
     34 H          -2.5438   -6.4940   -1.0155 H.spc      1 <1>        0.000
     35 H          -3.8304   -5.9181    0.1351 H.spc      1 <1>        0.000
     36 H          -1.1765   -4.2529   -2.1901 H.spc      1 <1>        0.000
     37 H           2.6036   -5.7601    1.7603 H.spc      1 <1>        0.000
     38 H           1.9631   -5.6959   -0.0240 H.spc      1 <1>        0.000
     39 H           3.7472   -4.5996   -0.8545 H.spc      1 <1>        0.000
     40 H           4.6921   -4.4059    0.7845 H.spc      1 <1>        0.000
     41 H          -3.3429   -4.5748   -1.9649 H.spc      1 <1>        0.000
     42 H          -3.4144   -3.7163   -0.3434 H.spc      1 <1>        0.000
     43 H          -0.9280   -1.9082   -0.7116 H.spc      1 <1>        0.000
     44 H          -1.2939   -2.2318   -2.5667 H.spc      1 <1>        0.000
     45 H           2.8770   -3.5430    1.7840 H.spc      1 <1>        0.000
     46 H           1.9913   -3.3285    0.2061 H.spc      1 <1>        0.000
     47 H          -3.3835   -2.2140   -0.8307 H.spc      1 <1>        0.000
     48 H          -2.8196   -1.1386   -2.4299 H.spc      1 <1>        0.000
     49 H           4.1054    0.2858    2.6536 H.spc      1 <1>        0.000
     50 H           5.2667    0.4368    1.0531 H.spc      1 <1>        0.000
     51 H           0.0646    2.7159   -0.0252 H.spc      1 <1>        0.000
     52 H           0.4434    1.6774   -1.5577 H.spc      1 <1>        0.000
     53 H           5.1959   -2.9418   -1.4290 H.spc      1 <1>        0.000
     54 H          -1.8495    0.9652   -1.4181 H.spc      1 <1>        0.000
     55 H          -4.6327   -0.3747    0.6475 H.spc      1 <1>        0.000
     56 H          -5.0965   -0.7672   -1.0756 H.spc      1 <1>        0.000
     57 H           5.2658   -0.8068   -0.5549 H.spc      1 <1>        0.000
     58 H          -0.6450   -0.5915   -0.4058 H.spc      1 <1>        0.000
     59 H          -1.0905    0.5200    1.2329 H.spc      1 <1>        0.000
     60 H          -2.0269    2.5979    0.4813 H.spc      1 <1>        0.000
     61 H          -3.0057    1.3644    1.4041 H.spc      1 <1>        0.000
     62 H          -5.8891    1.4118   -0.0029 H.spc      1 <1>        0.000
     63 H          -5.1306    1.4345   -1.6773 H.spc      1 <1>        0.000
     64 H           2.9815   -1.2290    1.1293 H.spc      1 <1>        0.000
     65 H           4.4569   -1.7275    2.0686 H.spc      1 <1>        0.000
     66 H          -3.7480    2.9489   -1.0261 H.spc      1 <1>        0.000
     67 H          -4.5125    2.9423    0.6235 H.spc      1 <1>        0.000
     68 H           4.3115    2.3520    1.3874 H.spc      1 <1>        0.000
     69 H           2.6878    1.5426    1.7541 H.spc      1 <1>        0.000
     70 H           2.1976    2.8104   -1.6021 H.spc      1 <1>        0.000
     71 H           2.0643    3.2648    0.2294 H.spc      1 <1>        0.000
     72 H           4.0896    2.0959   -0.7676 H.spc      1 <1>        0.000
     73 H           2.9672    0.6385   -0.5834 H.spc      1 <1>        0.000
@<TRIPOS>BOND
     1   27   28 1  
     2   13   26 1  
     3   26   28 1  
     4   23   13 1  
     5   24   14 1  
     6   14   27 1  
     7   10   12 1  
     8    7   11 1  
     9    6    9 1  
    10    6   10 1  
    11    5    9 1  
    12    4    7 1  
    13    3    6 1  
    14    2    5 1  
    15    1    4 1  
    16    1    3 1  
    17    1    2 1  
    18   11    8 1  
    19   12   15 1  
    20    8   16 1  
    21   15   17 1  
    22   15   18 1  
    23   16   19 2  
    24   17   20 1  
    25   17   21 1  
    26   18   22 1  
    27   19   23 1  
    28   20   24 1  
    29   21   25 1  
    30   22   25 1  
    31    1   29 1  
    32    2   30 1  
    33    2   31 1  
    34    4   32 1  
    35    4   33 1  
    36    5   34 1  
    37    5   35 1  
    38    6   36 1  
    39    7   37 1  
    40    7   38 1  
    41    8   39 1  
    42    8   40 1  
    43    9   41 1  
    44    9   42 1  
    45   10   43 1  
    46   10   44 1  
    47   11   45 1  
    48   11   46 1  
    49   12   47 1  
    50   12   48 1  
    51   13   49 1  
    52   13   50 1  
    53   14   51 1  
    54   14   52 1  
    55   16   53 1  
    56   17   54 1  
    57   18   55 1  
    58   18   56 1  
    59   19   57 1  
    60   20   58 1  
    61   20   59 1  
    62   21   60 1  
    63   21   61 1  
    64   22   62 1  
    65   22   63 1  
    66   23   64 1  
    67   23   65 1  
    68   25   66 1  
    69   25   67 1  
    70   26   68 1  
    71   26   69 1  
    72   27   70 1  
    73   27   71 1  
    74   28   72 1  
    75   28   73 1  
# Name:          frag4-382-256/150395
# Creation time: Sat Jun  5 12:53:33 2010


@<TRIPOS>MOLECULE
frag4-382-256/150395
   73    75     1     1     1
SMALL
USER_CHARGES


@<TRIPOS>ATOM
      1 C1         -0.3204   -5.4579   -0.0668 C.3        1 <1>        0.000
      2 C2         -1.3559   -5.7909    1.0014 C.3        1 <1>        0.000
      3 O1         -0.7333   -4.3724   -0.8343 O.3        1 <1>        0.000
      4 C3          1.1103   -5.3631    0.4296 C.3        1 <1>        0.000
      5 C4         -2.7931   -5.6398    0.5510 C.3        1 <1>        0.000
      6 C5         -2.0016   -3.9988   -1.2425 C.3        1 <1>        0.000
      7 C6          2.1957   -5.1151   -0.5957 C.3        1 <1>        0.000
      8 C14         4.0564   -3.5450    0.4221 C.3        1 <1>        0.000
      9 C7         -3.0823   -4.3831   -0.2409 C.3        1 <1>        0.000
     10 C9         -1.9588   -2.5519   -1.6212 C.3        1 <1>        0.000
     11 C10         3.6293   -4.8797   -0.1676 C.3        1 <1>        0.000
     12 C13        -2.9415   -1.5517   -1.1602 C.3        1 <1>        0.000
     13 C26         3.0267    0.6969    1.8543 C.3        1 <1>        0.000
     14 C28         1.2367    1.3663   -1.7574 C.3        1 <1>        0.000
     15 N1         -2.8084   -0.3019   -0.5402 N.3        1 <1>        0.000
     16 C16         3.3623   -3.0519    1.6545 C.2        1 <1>        0.000
     17 C17        -1.6622    0.5517   -0.7639 C.3        1 <1>        0.000
     18 C18        -3.8514    0.1090    0.3574 C.3        1 <1>        0.000
     19 C19         3.0583   -1.7754    1.9582 C.2        1 <1>        0.000
     20 C21        -0.3026   -0.0016   -0.5849 C.3        1 <1>        0.000
     21 C22        -1.7272    1.8331    0.0717 C.3        1 <1>        0.000
     22 C23        -4.2191    1.5750    0.2273 C.3        1 <1>        0.000
     23 C24         3.3585   -0.5636    1.1554 C.3        1 <1>        0.000
     24 O7          0.9186    0.2481   -0.9582 O.3        1 <1>        0.000
     25 C25        -3.0595    2.5246    0.1081 C.3        1 <1>        0.000
     26 C29         2.4134    1.9652    1.3839 C.3        1 <1>        0.000
     27 C32         1.7810    2.6184   -1.0830 C.3        1 <1>        0.000
     28 C33         2.8224    2.4468    0.0070 C.3        1 <1>        0.000
     29 H          -0.2747   -6.3234   -0.7279 H.spc      1 <1>        0.000
     30 H          -1.2136   -6.8381    1.2682 H.spc      1 <1>        0.000
     31 H          -1.2036   -5.0906    1.8227 H.spc      1 <1>        0.000
     32 H           1.1323   -4.4982    1.0927 H.spc      1 <1>        0.000
     33 H           1.3344   -6.3385    0.8615 H.spc      1 <1>        0.000
     34 H          -3.0092   -6.4833   -0.1047 H.spc      1 <1>        0.000
     35 H          -3.4036   -5.5927    1.4527 H.spc      1 <1>        0.000
     36 H          -2.2994   -4.5612   -2.1274 H.spc      1 <1>        0.000
     37 H           2.2381   -6.0423   -1.1671 H.spc      1 <1>        0.000
     38 H           1.9033   -4.1787   -1.0708 H.spc      1 <1>        0.000
     39 H           3.8278   -2.8077   -0.3475 H.spc      1 <1>        0.000
     40 H           5.0963   -3.6842    0.7177 H.spc      1 <1>        0.000
     41 H          -3.9917   -4.5703   -0.8119 H.spc      1 <1>        0.000
     42 H          -3.1548   -3.5658    0.4766 H.spc      1 <1>        0.000
     43 H          -1.0319   -2.2094   -1.1612 H.spc      1 <1>        0.000
     44 H          -2.1288   -2.5790   -2.6975 H.spc      1 <1>        0.000
     45 H           4.1993   -4.9560   -1.0935 H.spc      1 <1>        0.000
     46 H           3.7848   -5.5909    0.6437 H.spc      1 <1>        0.000
     47 H          -3.3850   -2.1096   -0.3355 H.spc      1 <1>        0.000
     48 H          -3.3272   -1.2272   -2.1267 H.spc      1 <1>        0.000
     49 H           2.2249    0.3385    2.4998 H.spc      1 <1>        0.000
     50 H           4.0341    1.0535    2.0691 H.spc      1 <1>        0.000
     51 H           0.2905    1.6738   -2.2027 H.spc      1 <1>        0.000
     52 H           2.0390    1.0265   -2.4123 H.spc      1 <1>        0.000
     53 H           3.0719   -3.8077    2.3843 H.spc      1 <1>        0.000
     54 H          -1.7726    0.7179   -1.8355 H.spc      1 <1>        0.000
     55 H          -3.4902   -0.0492    1.3736 H.spc      1 <1>        0.000
     56 H          -4.7400   -0.4743    0.1160 H.spc      1 <1>        0.000
     57 H           2.5327   -1.6141    2.8994 H.spc      1 <1>        0.000
     58 H          -0.4444   -0.8994   -1.1865 H.spc      1 <1>        0.000
     59 H          -0.1817    0.2792    0.4613 H.spc      1 <1>        0.000
     60 H          -1.0296    2.5343   -0.3863 H.spc      1 <1>        0.000
     61 H          -1.5039    1.5422    1.0982 H.spc      1 <1>        0.000
     62 H          -4.7486    1.8446    1.1411 H.spc      1 <1>        0.000
     63 H          -4.7945    1.6703   -0.6936 H.spc      1 <1>        0.000
     64 H           4.4300   -0.5576    0.9553 H.spc      1 <1>        0.000
     65 H           2.7520   -0.6087    0.2508 H.spc      1 <1>        0.000
     66 H          -3.1741    3.0686   -0.8295 H.spc      1 <1>        0.000
     67 H          -3.0714    3.1710    0.9857 H.spc      1 <1>        0.000
     68 H           2.7418    2.7353    2.0819 H.spc      1 <1>        0.000
     69 H           1.3406    1.7794    1.3314 H.spc      1 <1>        0.000
     70 H           2.2805    3.1782   -1.8738 H.spc      1 <1>        0.000
     71 H           0.9230    3.0782   -0.5926 H.spc      1 <1>        0.000
     72 H           3.2062    3.4530    0.1753 H.spc      1 <1>        0.000
     73 H           3.4810    1.6638   -0.3689 H.spc      1 <1>        0.000
@<TRIPOS>BOND
     1   27   28 1  
     2   13   26 1  
     3   26   28 1  
     4   23   13 1  
     5   24   14 1  
     6   14   27 1  
     7   10   12 1  
     8    7   11 1  
     9    6    9 1  
    10    6   10 1  
    11    5    9 1  
    12    4    7 1  
    13    3    6 1  
    14    2    5 1  
    15    1    4 1  
    16    1    3 1  
    17    1    2 1  
    18   11    8 1  
    19   12   15 1  
    20    8   16 1  
    21   15   17 1  
    22   15   18 1  
    23   16   19 2  
    24   17   20 1  
    25   17   21 1  
    26   18   22 1  
    27   19   23 1  
    28   20   24 1  
    29   21   25 1  
    30   22   25 1  
    31    1   29 1  
    32    2   30 1  
    33    2   31 1  
    34    4   32 1  
    35    4   33 1  
    36    5   34 1  
    37    5   35 1  
    38    6   36 1  
    39    7   37 1  
    40    7   38 1  
    41    8   39 1  
    42    8   40 1  
    43    9   41 1  
    44    9   42 1  
    45   10   43 1  
    46   10   44 1  
    47   11   45 1  
    48   11   46 1  
    49   12   47 1  
    50   12   48 1  
    51   13   49 1  
    52   13   50 1  
    53   14   51 1  
    54   14   52 1  
    55   16   53 1  
    56   17   54 1  
    57   18   55 1  
    58   18   56 1  
    59   19   57 1  
    60   20   58 1  
    61   20   59 1  
    62   21   60 1  
    63   21   61 1  
    64   22   62 1  
    65   22   63 1  
    66   23   64 1  
    67   23   65 1  
    68   25   66 1  
    69   25   67 1  
    70   26   68 1  
    71   26   69 1  
    72   27   70 1  
    73   27   71 1  
    74   28   72 1  
    75   28   73 1  
# Name:          frag4-382-256/150395
# Creation time: Sat Jun  5 12:53:33 2010


@<TRIPOS>MOLECULE
frag4-382-256/150395
   73    75     1     1     1
SMALL
USER_CHARGES


@<TRIPOS>ATOM
      1 C1         -0.3537   -5.0159    0.5018 C.3        1 <1>        0.000
      2 C2         -1.7740   -5.5483    0.3650 C.3        1 <1>        0.000
      3 O1         -0.2795   -3.7459   -0.0716 O.3        1 <1>        0.000
      4 C3          0.2990   -5.2108    1.8625 C.3        1 <1>        0.000
      5 C4         -2.3113   -5.3885   -1.0409 C.3        1 <1>        0.000
      6 C5         -0.8228   -3.3347   -1.2786 C.3        1 <1>        0.000
      7 C6          1.8169   -5.1752    1.8885 C.3        1 <1>        0.000
      8 C14         4.0043   -3.8140    1.8187 C.3        1 <1>        0.000
      9 C7         -2.1446   -4.0047   -1.6160 C.3        1 <1>        0.000
     10 C9         -0.8611   -1.8435   -1.3436 C.3        1 <1>        0.000
     11 C10         2.5237   -3.8707    2.1348 C.3        1 <1>        0.000
     12 C13        -2.0666   -1.0603   -1.7058 C.3        1 <1>        0.000
     13 C26         4.2313    0.1333   -0.3269 C.3        1 <1>        0.000
     14 C28         0.7586    1.9855    0.6814 C.3        1 <1>        0.000
     15 N1         -2.7821   -0.0557   -1.0255 N.3        1 <1>        0.000
     16 C16         4.3430   -3.5049    0.4072 C.2        1 <1>        0.000
     17 C17        -2.0680    0.9358   -0.2389 C.3        1 <1>        0.000
     18 C18        -4.2177   -0.1555   -1.1111 C.3        1 <1>        0.000
     19 C19         4.2390   -2.3122   -0.2043 C.2        1 <1>        0.000
     20 C21        -1.0478    0.4602    0.7263 C.3        1 <1>        0.000
     21 C22        -2.9667    1.9190    0.5064 C.3        1 <1>        0.000
     22 C23        -5.0273    0.8397   -0.2964 C.3        1 <1>        0.000
     23 C24         3.7747   -1.0620    0.4269 C.3        1 <1>        0.000
     24 O7          0.1765    0.7650    1.0818 O.3        1 <1>        0.000
     25 C25        -4.3174    1.3996    0.9019 C.3        1 <1>        0.000
     26 C29         3.5961    1.0004   -1.3588 C.3        1 <1>        0.000
     27 C32         1.3394    2.1844   -0.7097 C.3        1 <1>        0.000
     28 C33         2.0905    1.0710   -1.4099 C.3        1 <1>        0.000
     29 H           0.3116   -5.6545   -0.0793 H.spc      1 <1>        0.000
     30 H          -1.7623   -6.6115    0.6049 H.spc      1 <1>        0.000
     31 H          -2.4153   -4.9812    1.0397 H.spc      1 <1>        0.000
     32 H          -0.0359   -4.3795    2.4829 H.spc      1 <1>        0.000
     33 H           0.0119   -6.2073    2.1982 H.spc      1 <1>        0.000
     34 H          -1.7487   -6.0705   -1.6785 H.spc      1 <1>        0.000
     35 H          -3.3814   -5.5918   -1.0001 H.spc      1 <1>        0.000
     36 H          -0.1613   -3.6780   -2.0740 H.spc      1 <1>        0.000
     37 H           2.0936   -5.8036    2.7350 H.spc      1 <1>        0.000
     38 H           2.1175   -5.4667    0.8821 H.spc      1 <1>        0.000
     39 H           4.4045   -4.8068    2.0244 H.spc      1 <1>        0.000
     40 H           4.4206   -3.0074    2.4223 H.spc      1 <1>        0.000
     41 H          -2.1832   -4.1041   -2.7008 H.spc      1 <1>        0.000
     42 H          -2.9334   -3.3854   -1.1890 H.spc      1 <1>        0.000
     43 H          -0.6885   -1.5533   -0.3072 H.spc      1 <1>        0.000
     44 H          -0.1754   -1.6209   -2.1611 H.spc      1 <1>        0.000
     45 H           2.4430   -3.6885    3.2064 H.spc      1 <1>        0.000
     46 H           2.0514   -3.1483    1.4691 H.spc      1 <1>        0.000
     47 H          -2.8107   -1.8565   -1.6829 H.spc      1 <1>        0.000
     48 H          -1.6552   -0.4657   -2.5214 H.spc      1 <1>        0.000
     49 H           4.2692    0.8480    0.4952 H.spc      1 <1>        0.000
     50 H           4.9932   -0.3384   -0.9474 H.spc      1 <1>        0.000
     51 H           1.6244    2.0831    1.3364 H.spc      1 <1>        0.000
     52 H          -0.0736    2.6887    0.7141 H.spc      1 <1>        0.000
     53 H           4.7153   -4.3320   -0.1973 H.spc      1 <1>        0.000
     54 H          -1.5337    1.4248   -1.0535 H.spc      1 <1>        0.000
     55 H          -4.4719   -1.1396   -0.7174 H.spc      1 <1>        0.000
     56 H          -4.4682    0.0394   -2.1539 H.spc      1 <1>        0.000
     57 H           4.5217   -2.2647   -1.2559 H.spc      1 <1>        0.000
     58 H          -0.8183   -0.4840    0.2324 H.spc      1 <1>        0.000
     59 H          -1.5454    0.8013    1.6341 H.spc      1 <1>        0.000
     60 H          -3.1446    2.7506   -0.1754 H.spc      1 <1>        0.000
     61 H          -2.4492    2.1669    1.4331 H.spc      1 <1>        0.000
     62 H          -5.9021    0.3062    0.0753 H.spc      1 <1>        0.000
     63 H          -5.2486    1.6804   -0.9539 H.spc      1 <1>        0.000
     64 H           2.6848   -1.0662    0.4385 H.spc      1 <1>        0.000
     65 H           4.1865   -1.0115    1.4349 H.spc      1 <1>        0.000
     66 H          -4.9071    2.2171    1.3168 H.spc      1 <1>        0.000
     67 H          -4.1936    0.6113    1.6445 H.spc      1 <1>        0.000
     68 H           3.8943    0.5711   -2.3153 H.spc      1 <1>        0.000
     69 H           3.9214    2.0130   -1.1203 H.spc      1 <1>        0.000
     70 H           0.4651    2.3493   -1.3394 H.spc      1 <1>        0.000
     71 H           2.0895    2.9634   -0.5733 H.spc      1 <1>        0.000
     72 H           1.8681    1.2246   -2.4659 H.spc      1 <1>        0.000
     73 H           1.7652    0.1672   -0.8948 H.spc      1 <1>        0.000
@<TRIPOS>BOND
     1   27   28 1  
     2   13   26 1  
     3   26   28 1  
     4   23   13 1  
     5   24   14 1  
     6   14   27 1  
     7   10   12 1  
     8    7   11 1  
     9    6    9 1  
    10    6   10 1  
    11    5    9 1  
    12    4    7 1  
    13    3    6 1  
    14    2    5 1  
    15    1    4 1  
    16    1    3 1  
    17    1    2 1  
    18   11    8 1  
    19   12   15 1  
    20    8   16 1  
    21   15   17 1  
    22   15   18 1  
    23   16   19 2  
    24   17   20 1  
    25   17   21 1  
    26   18   22 1  
    27   19   23 1  
    28   20   24 1  
    29   21   25 1  
    30   22   25 1  
    31    1   29 1  
    32    2   30 1  
    33    2   31 1  
    34    4   32 1  
    35    4   33 1  
    36    5   34 1  
    37    5   35 1  
    38    6   36 1  
    39    7   37 1  
    40    7   38 1  
    41    8   39 1  
    42    8   40 1  
    43    9   41 1  
    44    9   42 1  
    45   10   43 1  
    46   10   44 1  
    47   11   45 1  
    48   11   46 1  
    49   12   47 1  
    50   12   48 1  
    51   13   49 1  
    52   13   50 1  
    53   14   51 1  
    54   14   52 1  
    55   16   53 1  
    56   17   54 1  
    57   18   55 1  
    58   18   56 1  
    59   19   57 1  
    60   20   58 1  
    61   20   59 1  
    62   21   60 1  
    63   21   61 1  
    64   22   62 1  
    65   22   63 1  
    66   23   64 1  
    67   23   65 1  
    68   25   66 1  
    69   25   67 1  
    70   26   68 1  
    71   26   69 1  
    72   27   70 1  
    73   27   71 1  
    74   28   72 1  
    75   28   73 1  
# Name:          frag4-382-256/150395
# Creation time: Sat Jun  5 12:53:33 2010


@<TRIPOS>MOLECULE
frag4-382-256/150395
   73    75     1     1     1
SMALL
USER_CHARGES


@<TRIPOS>ATOM
      1 C1         -0.4701   -5.4099    0.4484 C.3        1 <1>        0.000
      2 C2         -1.8977   -5.8812    0.6548 C.3        1 <1>        0.000
      3 O1         -0.4728   -4.1507   -0.1438 O.3        1 <1>        0.000
      4 C3          0.4887   -5.5991    1.5949 C.3        1 <1>        0.000
      5 C4         -2.7120   -5.7328   -0.6104 C.3        1 <1>        0.000
      6 C5         -1.2311   -3.7530   -1.2300 C.3        1 <1>        0.000
      7 C6          1.9420   -5.3382    1.2839 C.3        1 <1>        0.000
      8 C14         2.3679   -3.1710   -0.1358 C.3        1 <1>        0.000
      9 C7         -2.6288   -4.3532   -1.2122 C.3        1 <1>        0.000
     10 C9         -1.1961   -2.2701   -1.3756 C.3        1 <1>        0.000
     11 C10         2.4274   -3.9108    1.1941 C.3        1 <1>        0.000
     12 C13        -2.4056   -1.4452   -1.3944 C.3        1 <1>        0.000
     13 C26         4.5912    0.5918    0.9154 C.3        1 <1>        0.000
     14 C28         0.8912    1.8808    0.3345 C.3        1 <1>        0.000
     15 N1         -2.8395   -0.3110   -0.7135 N.3        1 <1>        0.000
     16 C16         3.6919   -2.6332   -0.5697 C.2        1 <1>        0.000
     17 C17        -1.9465    0.6550   -0.1192 C.3        1 <1>        0.000
     18 C18        -4.2627   -0.1299   -0.6622 C.3        1 <1>        0.000
     19 C19         4.3925   -1.6265   -0.0263 C.2        1 <1>        0.000
     20 C21        -0.7130    0.1908    0.5589 C.3        1 <1>        0.000
     21 C22        -2.6790    1.5926    0.8538 C.3        1 <1>        0.000
     22 C23        -4.6375    1.3251   -0.7064 C.3        1 <1>        0.000
     23 C24         4.0268   -0.7635    1.1296 C.3        1 <1>        0.000
     24 O7          0.5074    0.6001    0.7744 O.3        1 <1>        0.000
     25 C25        -4.0596    2.0637    0.4613 C.3        1 <1>        0.000
     26 C29         4.1259    1.7527    0.1169 C.3        1 <1>        0.000
     27 C32         1.7359    2.0093   -0.9107 C.3        1 <1>        0.000
     28 C33         3.1157    1.4084   -0.9456 C.3        1 <1>        0.000
     29 H          -0.0140   -6.1079   -0.2537 H.spc      1 <1>        0.000
     30 H          -1.8789   -6.9346    0.9344 H.spc      1 <1>        0.000
     31 H          -2.3549   -5.2734    1.4356 H.spc      1 <1>        0.000
     32 H           0.2023   -4.8762    2.3587 H.spc      1 <1>        0.000
     33 H           0.4190   -6.6474    1.8852 H.spc      1 <1>        0.000
     34 H          -2.3160   -6.4367   -1.3424 H.spc      1 <1>        0.000
     35 H          -3.7552   -5.9194   -0.3554 H.spc      1 <1>        0.000
     36 H          -0.7813   -4.1584   -2.1363 H.spc      1 <1>        0.000
     37 H           2.4900   -5.7687    2.1221 H.spc      1 <1>        0.000
     38 H           2.0936   -5.7494    0.2859 H.spc      1 <1>        0.000
     39 H           1.6919   -2.3248   -0.0131 H.spc      1 <1>        0.000
     40 H           2.0351   -3.8802   -0.8937 H.spc      1 <1>        0.000
     41 H          -2.9513   -4.4389   -2.2499 H.spc      1 <1>        0.000
     42 H          -3.2476   -3.7000   -0.5969 H.spc      1 <1>        0.000
     43 H          -0.6849   -1.9426   -0.4703 H.spc      1 <1>        0.000
     44 H          -0.7812   -2.1272   -2.3734 H.spc      1 <1>        0.000
     45 H           3.4906   -3.9684    1.4275 H.spc      1 <1>        0.000
     46 H           1.7571   -3.3525    1.8477 H.spc      1 <1>        0.000
     47 H          -3.0954   -2.1663   -0.9559 H.spc      1 <1>        0.000
     48 H          -2.2765   -0.9980   -2.3800 H.spc      1 <1>        0.000
     49 H           4.4590    1.0002    1.9173 H.spc      1 <1>        0.000
     50 H           5.4798    0.3263    0.3427 H.spc      1 <1>        0.000
     51 H           1.5142    2.2765    1.1366 H.spc      1 <1>        0.000
     52 H          -0.0443    2.3842    0.0905 H.spc      1 <1>        0.000
     53 H           4.1447   -3.1184   -1.4344 H.spc      1 <1>        0.000
     54 H          -1.5960    1.1514   -1.0241 H.spc      1 <1>        0.000
     55 H          -4.6300   -0.5518    0.2733 H.spc      1 <1>        0.000
     56 H          -4.7042   -0.6256   -1.5267 H.spc      1 <1>        0.000
     57 H           5.3546   -1.4129   -0.4919 H.spc      1 <1>        0.000
     58 H          -0.4648   -0.6035   -0.1451 H.spc      1 <1>        0.000
     59 H          -1.0733    0.3019    1.5816 H.spc      1 <1>        0.000
     60 H          -2.0669    2.4927    0.9110 H.spc      1 <1>        0.000
     61 H          -2.8144    1.0175    1.7698 H.spc      1 <1>        0.000
     62 H          -5.7237    1.4077   -0.6697 H.spc      1 <1>        0.000
     63 H          -4.2436    1.7600   -1.6250 H.spc      1 <1>        0.000
     64 H           2.9419   -0.7015    1.2143 H.spc      1 <1>        0.000
     65 H           4.4292   -1.1890    2.0489 H.spc      1 <1>        0.000
     66 H          -3.9775    3.1124    0.1757 H.spc      1 <1>        0.000
     67 H          -4.7173    1.8925    1.3135 H.spc      1 <1>        0.000
     68 H           4.9986    2.1633   -0.3910 H.spc      1 <1>        0.000
     69 H           3.6426    2.4440    0.8072 H.spc      1 <1>        0.000
     70 H           1.1811    1.4653   -1.6751 H.spc      1 <1>        0.000
     71 H           1.9013    3.0811   -1.0198 H.spc      1 <1>        0.000
     72 H           3.5530    1.7933   -1.8668 H.spc      1 <1>        0.000
     73 H           2.9463    0.3392   -0.8187 H.spc      1 <1>        0.000
@<TRIPOS>BOND
     1   27   28 1  
     2   13   26 1  
     3   26   28 1  
     4   23   13 1  
     5   24   14 1  
     6   14   27 1  
     7   10   12 1  
     8    7   11 1  
     9    6    9 1  
    10    6   10 1  
    11    5    9 1  
    12    4    7 1  
    13    3    6 1  
    14    2    5 1  
    15    1    4 1  
    16    1    3 1  
    17    1    2 1  
    18   11    8 1  
    19   12   15 1  
    20    8   16 1  
    21   15   17 1  
    22   15   18 1  
    23   16   19 2  
    24   17   20 1  
    25   17   21 1  
    26   18   22 1  
    27   19   23 1  
    28   20   24 1  
    29   21   25 1  
    30   22   25 1  
    31    1   29 1  
    32    2   30 1  
    33    2   31 1  
    34    4   32 1  
    35    4   33 1  
    36    5   34 1  
    37    5   35 1  
    38    6   36 1  
    39    7   37 1  
    40    7   38 1  
    41    8   39 1  
    42    8   40 1  
    43    9   41 1  
    44    9   42 1  
    45   10   43 1  
    46   10   44 1  
    47   11   45 1  
    48   11   46 1  
    49   12   47 1  
    50   12   48 1  
    51   13   49 1  
    52   13   50 1  
    53   14   51 1  
    54   14   52 1  
    55   16   53 1  
    56   17   54 1  
    57   18   55 1  
    58   18   56 1  
    59   19   57 1  
    60   20   58 1  
    61   20   59 1  
    62   21   60 1  
    63   21   61 1  
    64   22   62 1  
    65   22   63 1  
    66   23   64 1  
    67   23   65 1  
    68   25   66 1  
    69   25   67 1  
    70   26   68 1  
    71   26   69 1  
    72   27   70 1  
    73   27   71 1  
    74   28   72 1  
    75   28   73 1  
# Name:          frag4-382-256/150395
# Creation time: Sat Jun  5 12:53:33 2010


@<TRIPOS>MOLECULE
frag4-382-256/150395
   73    75     1     1     1
SMALL
USER_CHARGES


@<TRIPOS>ATOM
      1 C1         -0.2987   -4.9652    0.2795 C.3        1 <1>        0.000
      2 C2         -1.7186   -5.5168    0.4190 C.3        1 <1>        0.000
      3 O1         -0.3252   -3.7811   -0.4548 O.3        1 <1>        0.000
      4 C3          0.4545   -4.8758    1.6050 C.3        1 <1>        0.000
      5 C4         -2.5489   -5.4462   -0.8517 C.3        1 <1>        0.000
      6 C5         -1.1250   -3.4392   -1.5355 C.3        1 <1>        0.000
      7 C6          1.9035   -5.2477    1.6508 C.3        1 <1>        0.000
      8 C14         2.9972   -2.8614    1.6625 C.3        1 <1>        0.000
      9 C7         -2.4880   -4.1147   -1.5697 C.3        1 <1>        0.000
     10 C9         -1.1731   -1.9436   -1.6244 C.3        1 <1>        0.000
     11 C10         3.0270   -4.3272    1.2977 C.3        1 <1>        0.000
     12 C13        -2.3946   -1.1484   -1.7973 C.3        1 <1>        0.000
     13 C26         4.3224   -0.5939   -1.2477 C.3        1 <1>        0.000
     14 C28         0.4442    2.1120    0.5382 C.3        1 <1>        0.000
     15 N1         -3.0226   -0.1597   -1.0172 N.3        1 <1>        0.000
     16 C16         4.3220   -2.2060    1.7183 C.2        1 <1>        0.000
     17 C17        -2.2275    0.8375   -0.3557 C.3        1 <1>        0.000
     18 C18        -4.4482   -0.2734   -0.8824 C.3        1 <1>        0.000
     19 C19         5.1149   -1.7803    0.7290 C.2        1 <1>        0.000
     20 C21        -1.1844    0.4114    0.5945 C.3        1 <1>        0.000
     21 C22        -3.0282    1.9091    0.3735 C.3        1 <1>        0.000
     22 C23        -5.1815    0.7655   -0.0549 C.3        1 <1>        0.000
     23 C24         4.9293   -1.8462   -0.7416 C.3        1 <1>        0.000
     24 O7         -0.0644    0.8933    1.0550 O.3        1 <1>        0.000
     25 C25        -4.3488    1.4699    0.9610 C.3        1 <1>        0.000
     26 C29         3.9056    0.6937   -0.6307 C.3        1 <1>        0.000
     27 C32         1.8909    2.1077    0.0991 C.3        1 <1>        0.000
     28 C33         2.4187    0.9178   -0.6543 C.3        1 <1>        0.000
     29 H           0.2959   -5.6823   -0.2865 H.spc      1 <1>        0.000
     30 H          -1.6273   -6.5705    0.6826 H.spc      1 <1>        0.000
     31 H          -2.2261   -4.9068    1.1663 H.spc      1 <1>        0.000
     32 H           0.4302   -3.8183    1.8680 H.spc      1 <1>        0.000
     33 H          -0.0389   -5.5987    2.2547 H.spc      1 <1>        0.000
     34 H          -2.1494   -6.1953   -1.5353 H.spc      1 <1>        0.000
     35 H          -3.5878   -5.6050   -0.5627 H.spc      1 <1>        0.000
     36 H          -0.6686   -3.8384   -2.4413 H.spc      1 <1>        0.000
     37 H           2.0682   -5.4238    2.7138 H.spc      1 <1>        0.000
     38 H           1.9748   -6.0137    0.8786 H.spc      1 <1>        0.000
     39 H           2.5696   -2.7940    2.6629 H.spc      1 <1>        0.000
     40 H           2.4270   -2.3542    0.8842 H.spc      1 <1>        0.000
     41 H          -2.7220   -4.3066   -2.6168 H.spc      1 <1>        0.000
     42 H          -3.1865   -3.4480   -1.0640 H.spc      1 <1>        0.000
     43 H          -0.8379   -1.6413   -0.6323 H.spc      1 <1>        0.000
     44 H          -0.6361   -1.7489   -2.5528 H.spc      1 <1>        0.000
     45 H           3.0245   -4.3225    0.2077 H.spc      1 <1>        0.000
     46 H           3.8703   -4.7182    1.8670 H.spc      1 <1>        0.000
     47 H          -3.1325   -1.9437   -1.6914 H.spc      1 <1>        0.000
     48 H          -2.0774   -0.5284   -2.6358 H.spc      1 <1>        0.000
     49 H           5.1697   -0.2275   -1.8273 H.spc      1 <1>        0.000
     50 H           3.3338   -0.9821   -1.4928 H.spc      1 <1>        0.000
     51 H           0.3778    2.8353    1.3509 H.spc      1 <1>        0.000
     52 H          -0.1415    2.3285   -0.3552 H.spc      1 <1>        0.000
     53 H           4.7132   -2.0448    2.7228 H.spc      1 <1>        0.000
     54 H          -1.7277    1.2142   -1.2481 H.spc      1 <1>        0.000
     55 H          -4.6112   -1.2181   -0.3637 H.spc      1 <1>        0.000
     56 H          -4.8401   -0.1613   -1.8933 H.spc      1 <1>        0.000
     57 H           6.0435   -1.3112    1.0542 H.spc      1 <1>        0.000
     58 H          -0.7629   -0.3977   -0.0020 H.spc      1 <1>        0.000
     59 H          -1.7712    0.5024    1.5085 H.spc      1 <1>        0.000
     60 H          -3.2637    2.6715   -0.3690 H.spc      1 <1>        0.000
     61 H          -2.4127    2.2302    1.2138 H.spc      1 <1>        0.000
     62 H          -5.9618    0.2364    0.4921 H.spc      1 <1>        0.000
     63 H          -5.5369    1.5259   -0.7503 H.spc      1 <1>        0.000
     64 H           5.9019   -1.9832   -1.2143 H.spc      1 <1>        0.000
     65 H           4.2671   -2.6794   -0.9767 H.spc      1 <1>        0.000
     66 H          -4.8890    2.3528    1.3027 H.spc      1 <1>        0.000
     67 H          -4.1526    0.7852    1.7861 H.spc      1 <1>        0.000
     68 H           4.3667    1.4966   -1.2059 H.spc      1 <1>        0.000
     69 H           4.2167    0.6720    0.4137 H.spc      1 <1>        0.000
     70 H           1.9762    2.9421   -0.5970 H.spc      1 <1>        0.000
     71 H           2.4661    2.1326    1.0247 H.spc      1 <1>        0.000
     72 H           2.1622    1.0916   -1.6993 H.spc      1 <1>        0.000
     73 H           1.9800    0.0440   -0.1724 H.spc      1 <1>        0.000
@<TRIPOS>BOND
     1   27   28 1  
     2   13   26 1  
     3   26   28 1  
     4   23   13 1  
     5   24   14 1  
     6   14   27 1  
     7   10   12 1  
     8    7   11 1  
     9    6    9 1  
    10    6   10 1  
    11    5    9 1  
    12    4    7 1  
    13    3    6 1  
    14    2    5 1  
    15    1    4 1  
    16    1    3 1  
    17    1    2 1  
    18   11    8 1  
    19   12   15 1  
    20    8   16 1  
    21   15   17 1  
    22   15   18 1  
    23   16   19 2  
    24   17   20 1  
    25   17   21 1  
    26   18   22 1  
    27   19   23 1  
    28   20   24 1  
    29   21   25 1  
    30   22   25 1  
    31    1   29 1  
    32    2   30 1  
    33    2   31 1  
    34    4   32 1  
    35    4   33 1  
    36    5   34 1  
    37    5   35 1  
    38    6   36 1  
    39    7   37 1  
    40    7   38 1  
    41    8   39 1  
    42    8   40 1  
    43    9   41 1  
    44    9   42 1  
    45   10   43 1  
    46   10   44 1  
    47   11   45 1  
    48   11   46 1  
    49   12   47 1  
    50   12   48 1  
    51   13   49 1  
    52   13   50 1  
    53   14   51 1  
    54   14   52 1  
    55   16   53 1  
    56   17   54 1  
    57   18   55 1  
    58   18   56 1  
    59   19   57 1  
    60   20   58 1  
    61   20   59 1  
    62   21   60 1  
    63   21   61 1  
    64   22   62 1  
    65   22   63 1  
    66   23   64 1  
    67   23   65 1  
    68   25   66 1  
    69   25   67 1  
    70   26   68 1  
    71   26   69 1  
    72   27   70 1  
    73   27   71 1  
    74   28   72 1  
    75   28   73 1  
# Name:          frag4-382-256/150395
# Creation time: Sat Jun  5 12:53:33 2010


@<TRIPOS>MOLECULE
frag4-382-256/150395
   73    75     1     1     1
SMALL
USER_CHARGES


@<TRIPOS>ATOM
      1 C1         -0.0993   -5.1259    0.4533 C.3        1 <1>        0.000
      2 C2         -1.4153   -5.8634    0.2080 C.3        1 <1>        0.000
      3 O1         -0.1392   -3.8546   -0.1189 O.3        1 <1>        0.000
      4 C3          0.3299   -5.2576    1.9203 C.3        1 <1>        0.000
      5 C4         -2.0652   -5.6286   -1.1268 C.3        1 <1>        0.000
      6 C5         -0.7432   -3.4547   -1.3060 C.3        1 <1>        0.000
      7 C6          1.6757   -4.8239    2.4604 C.3        1 <1>        0.000
      8 C14         3.6235   -3.3781    1.6060 C.3        1 <1>        0.000
      9 C7         -2.0434   -4.1941   -1.5855 C.3        1 <1>        0.000
     10 C9         -0.8723   -1.9622   -1.3297 C.3        1 <1>        0.000
     11 C10         2.2462   -3.4328    2.2103 C.3        1 <1>        0.000
     12 C13        -2.1638   -1.2361   -1.4552 C.3        1 <1>        0.000
     13 C26         3.5851   -0.2129   -1.5002 C.3        1 <1>        0.000
     14 C28         0.7391    1.8800    0.9418 C.3        1 <1>        0.000
     15 N1         -2.7494   -0.2229   -0.6886 N.3        1 <1>        0.000
     16 C16         3.6684   -3.5444    0.1282 C.2        1 <1>        0.000
     17 C17        -1.9483    0.7130    0.0531 C.3        1 <1>        0.000
     18 C18        -4.1766   -0.1364   -0.7063 C.3        1 <1>        0.000
     19 C19         3.4210   -2.6058   -0.8006 C.2        1 <1>        0.000
     20 C21        -0.8890    0.2241    0.9608 C.3        1 <1>        0.000
     21 C22        -2.8001    1.6913    0.8598 C.3        1 <1>        0.000
     22 C23        -4.7837    1.2455   -0.5920 C.3        1 <1>        0.000
     23 C24         3.0243   -1.1982   -0.5238 C.3        1 <1>        0.000
     24 O7          0.2693    0.6348    1.4027 O.3        1 <1>        0.000
     25 C25        -3.9305    2.2805    0.0806 C.3        1 <1>        0.000
     26 C29         3.8104    1.2542   -1.3828 C.3        1 <1>        0.000
     27 C32         1.5365    1.9174   -0.3428 C.3        1 <1>        0.000
     28 C33         3.0425    1.8832   -0.2610 C.3        1 <1>        0.000
     29 H           0.7328   -5.5940   -0.0726 H.spc      1 <1>        0.000
     30 H          -1.1820   -6.9273    0.2513 H.spc      1 <1>        0.000
     31 H          -2.1159   -5.4958    0.9578 H.spc      1 <1>        0.000
     32 H          -0.3583   -4.5833    2.4299 H.spc      1 <1>        0.000
     33 H           0.3539   -6.3378    2.0640 H.spc      1 <1>        0.000
     34 H          -1.5058   -6.2079   -1.8613 H.spc      1 <1>        0.000
     35 H          -3.1117   -5.9171   -1.0283 H.spc      1 <1>        0.000
     36 H          -0.0989   -3.7380   -2.1383 H.spc      1 <1>        0.000
     37 H           1.5347   -4.8490    3.5410 H.spc      1 <1>        0.000
     38 H           2.3779   -5.4813    1.9477 H.spc      1 <1>        0.000
     39 H           4.1879   -4.2069    2.0334 H.spc      1 <1>        0.000
     40 H           4.0237   -2.3879    1.8237 H.spc      1 <1>        0.000
     41 H          -2.1746   -4.2057   -2.6675 H.spc      1 <1>        0.000
     42 H          -2.8278   -3.6740   -1.0357 H.spc      1 <1>        0.000
     43 H          -0.5349   -1.6779   -0.3330 H.spc      1 <1>        0.000
     44 H          -0.3569   -1.6930   -2.2516 H.spc      1 <1>        0.000
     45 H           2.3233   -2.9553    3.1871 H.spc      1 <1>        0.000
     46 H           1.5796   -2.9551    1.4923 H.spc      1 <1>        0.000
     47 H          -2.8507   -2.0517   -1.2292 H.spc      1 <1>        0.000
     48 H          -1.9673   -0.6777   -2.3704 H.spc      1 <1>        0.000
     49 H           4.6177   -0.5592   -1.5454 H.spc      1 <1>        0.000
     50 H           2.7962   -0.2229   -2.2522 H.spc      1 <1>        0.000
     51 H           1.4242    2.2304    1.7137 H.spc      1 <1>        0.000
     52 H          -0.1571    2.4663    0.7390 H.spc      1 <1>        0.000
     53 H           3.9306   -4.5358   -0.2411 H.spc      1 <1>        0.000
     54 H          -1.4171    1.1682   -0.7827 H.spc      1 <1>        0.000
     55 H          -4.5185   -0.6848    0.1714 H.spc      1 <1>        0.000
     56 H          -4.4854   -0.5171   -1.6798 H.spc      1 <1>        0.000
     57 H           3.5191   -2.9001   -1.8455 H.spc      1 <1>        0.000
     58 H          -0.5213   -0.5837    0.3280 H.spc      1 <1>        0.000
     59 H          -1.4423    0.3286    1.8941 H.spc      1 <1>        0.000
     60 H          -2.1525    2.5118    1.1687 H.spc      1 <1>        0.000
     61 H          -3.2308    1.1390    1.6950 H.spc      1 <1>        0.000
     62 H          -5.6785    1.1387    0.0212 H.spc      1 <1>        0.000
     63 H          -4.9458    1.5956   -1.6114 H.spc      1 <1>        0.000
     64 H           1.9379   -1.1455   -0.5948 H.spc      1 <1>        0.000
     65 H           3.4116   -0.9378    0.4612 H.spc      1 <1>        0.000
     66 H          -3.5027    2.9135   -0.6968 H.spc      1 <1>        0.000
     67 H          -4.5633    2.8292    0.7781 H.spc      1 <1>        0.000
     68 H           3.4737    1.7147   -2.3116 H.spc      1 <1>        0.000
     69 H           4.8708    1.4100   -1.1844 H.spc      1 <1>        0.000
     70 H           1.2606    1.0067   -0.8744 H.spc      1 <1>        0.000
     71 H           1.2989    2.8798   -0.7961 H.spc      1 <1>        0.000
     72 H           3.2647    1.2704    0.6126 H.spc      1 <1>        0.000
     73 H           3.3497    2.9290   -0.2592 H.spc      1 <1>        0.000
@<TRIPOS>BOND
     1   27   28 1  
     2   13   26 1  
     3   26   28 1  
     4   23   13 1  
     5   24   14 1  
     6   14   27 1  
     7   10   12 1  
     8    7   11 1  
     9    6    9 1  
    10    6   10 1  
    11    5    9 1  
    12    4    7 1  
    13    3    6 1  
    14    2    5 1  
    15    1    4 1  
    16    1    3 1  
    17    1    2 1  
    18   11    8 1  
    19   12   15 1  
    20    8   16 1  
    21   15   17 1  
    22   15   18 1  
    23   16   19 2  
    24   17   20 1  
    25   17   21 1  
    26   18   22 1  
    27   19   23 1  
    28   20   24 1  
    29   21   25 1  
    30   22   25 1  
    31    1   29 1  
    32    2   30 1  
    33    2   31 1  
    34    4   32 1  
    35    4   33 1  
    36    5   34 1  
    37    5   35 1  
    38    6   36 1  
    39    7   37 1  
    40    7   38 1  
    41    8   39 1  
    42    8   40 1  
    43    9   41 1  
    44    9   42 1  
    45   10   43 1  
    46   10   44 1  
    47   11   45 1  
    48   11   46 1  
    49   12   47 1  
    50   12   48 1  
    51   13   49 1  
    52   13   50 1  
    53   14   51 1  
    54   14   52 1  
    55   16   53 1  
    56   17   54 1  
    57   18   55 1  
    58   18   56 1  
    59   19   57 1  
    60   20   58 1  
    61   20   59 1  
    62   21   60 1  
    63   21   61 1  
    64   22   62 1  
    65   22   63 1  
    66   23   64 1  
    67   23   65 1  
    68   25   66 1  
    69   25   67 1  
    70   26   68 1  
    71   26   69 1  
    72   27   70 1  
    73   27   71 1  
    74   28   72 1  
    75   28   73 1  
# Name:          frag4-382-256/150395
# Creation time: Sat Jun  5 12:53:33 2010


@<TRIPOS>MOLECULE
frag4-382-256/150395
   73    75     1     1     1
SMALL
USER_CHARGES


@<TRIPOS>ATOM
      1 C1         -0.6299   -5.4033    0.5077 C.3        1 <1>        0.000
      2 C2         -2.0446   -5.8311    0.8506 C.3        1 <1>        0.000
      3 O1         -0.6593   -4.1956   -0.1744 O.3        1 <1>        0.000
      4 C3          0.4337   -5.5239    1.5690 C.3        1 <1>        0.000
      5 C4         -2.9510   -5.7728   -0.3588 C.3        1 <1>        0.000
      6 C5         -1.4942   -3.8612   -1.2209 C.3        1 <1>        0.000
      7 C6          1.8521   -5.2770    1.0884 C.3        1 <1>        0.000
      8 C14         3.7052   -3.7511    0.1161 C.3        1 <1>        0.000
      9 C7         -2.8986   -4.4302   -1.0338 C.3        1 <1>        0.000
     10 C9         -1.4670   -2.3861   -1.4490 C.3        1 <1>        0.000
     11 C10         2.4280   -3.8736    0.9534 C.3        1 <1>        0.000
     12 C13        -2.7082   -1.5993   -1.3944 C.3        1 <1>        0.000
     13 C26         4.6858    0.7433    0.4304 C.3        1 <1>        0.000
     14 C28         0.7305    1.7221   -0.1912 C.3        1 <1>        0.000
     15 N1         -3.0461   -0.3824   -0.8019 N.3        1 <1>        0.000
     16 C16         4.0080   -2.6588   -0.8663 C.2        1 <1>        0.000
     17 C17        -2.0510    0.5692   -0.3936 C.3        1 <1>        0.000
     18 C18        -4.4378   -0.1260   -0.5830 C.3        1 <1>        0.000
     19 C19         4.4735   -1.4126   -0.6870 C.2        1 <1>        0.000
     20 C21        -0.8403    0.0936    0.2938 C.3        1 <1>        0.000
     21 C22        -2.6823    1.6834    0.4325 C.3        1 <1>        0.000
     22 C23        -4.8246    1.3188   -0.8122 C.3        1 <1>        0.000
     23 C24         4.8046   -0.7238    0.5796 C.3        1 <1>        0.000
     24 O7          0.3989    0.4778    0.3726 O.3        1 <1>        0.000
     25 C25        -3.8329    2.3276   -0.2917 C.3        1 <1>        0.000
     26 C29         4.2543    1.7897    1.3844 C.3        1 <1>        0.000
     27 C32         2.1710    2.1057   -0.0664 C.3        1 <1>        0.000
     28 C33         2.7749    1.9686    1.3117 C.3        1 <1>        0.000
     29 H          -0.2522   -6.1777   -0.1599 H.spc      1 <1>        0.000
     30 H          -2.0162   -6.8594    1.2110 H.spc      1 <1>        0.000
     31 H          -2.4362   -5.1522    1.6081 H.spc      1 <1>        0.000
     32 H           0.2184   -4.7615    2.3177 H.spc      1 <1>        0.000
     33 H           0.3995   -6.5508    1.9329 H.spc      1 <1>        0.000
     34 H          -2.6188   -6.5273   -1.0719 H.spc      1 <1>        0.000
     35 H          -3.9744   -5.9496   -0.0280 H.spc      1 <1>        0.000
     36 H          -1.1228   -4.3285   -2.1329 H.spc      1 <1>        0.000
     37 H           2.4676   -5.7321    1.8644 H.spc      1 <1>        0.000
     38 H           1.8430   -5.6490    0.0639 H.spc      1 <1>        0.000
     39 H           3.6363   -4.6253   -0.5313 H.spc      1 <1>        0.000
     40 H           4.4627   -3.5835    0.8817 H.spc      1 <1>        0.000
     41 H          -3.3224   -4.5602   -2.0296 H.spc      1 <1>        0.000
     42 H          -3.4395   -3.7332   -0.3937 H.spc      1 <1>        0.000
     43 H          -0.8670   -1.9983   -0.6258 H.spc      1 <1>        0.000
     44 H          -1.1272   -2.2801   -2.4792 H.spc      1 <1>        0.000
     45 H           2.6899   -3.5514    1.9612 H.spc      1 <1>        0.000
     46 H           1.6696   -3.2785    0.4447 H.spc      1 <1>        0.000
     47 H          -3.3046   -2.2645   -0.7700 H.spc      1 <1>        0.000
     48 H          -2.7678   -1.3017   -2.4413 H.spc      1 <1>        0.000
     49 H           5.7391    1.0057    0.3310 H.spc      1 <1>        0.000
     50 H           3.8627    0.7913   -0.2826 H.spc      1 <1>        0.000
     51 H           0.1553    2.4758    0.3466 H.spc      1 <1>        0.000
     52 H           0.5132    1.6537   -1.2571 H.spc      1 <1>        0.000
     53 H           3.8168   -2.9228   -1.9064 H.spc      1 <1>        0.000
     54 H          -1.6729    0.9081   -1.3581 H.spc      1 <1>        0.000
     55 H          -4.6565   -0.3640    0.4580 H.spc      1 <1>        0.000
     56 H          -4.9999   -0.7336   -1.2922 H.spc      1 <1>        0.000
     57 H           4.6281   -0.8307   -1.5956 H.spc      1 <1>        0.000
     58 H          -0.6828   -0.8171   -0.2840 H.spc      1 <1>        0.000
     59 H          -1.1400    0.3298    1.3148 H.spc      1 <1>        0.000
     60 H          -1.9246    2.4442    0.6199 H.spc      1 <1>        0.000
     61 H          -3.0579    1.2528    1.3607 H.spc      1 <1>        0.000
     62 H          -5.7582    1.4859   -0.2751 H.spc      1 <1>        0.000
     63 H          -4.8867    1.4629   -1.8908 H.spc      1 <1>        0.000
     64 H           4.1088   -1.0549    1.3506 H.spc      1 <1>        0.000
     65 H           5.8319   -0.9661    0.8518 H.spc      1 <1>        0.000
     66 H          -3.4300    2.8741   -1.1444 H.spc      1 <1>        0.000
     67 H          -4.3523    2.9773    0.4127 H.spc      1 <1>        0.000
     68 H           4.7420    2.7305    1.1292 H.spc      1 <1>        0.000
     69 H           4.5297    1.4887    2.3952 H.spc      1 <1>        0.000
     70 H           2.7262    1.4264   -0.7132 H.spc      1 <1>        0.000
     71 H           2.2298    3.1635   -0.3229 H.spc      1 <1>        0.000
     72 H           2.3431    1.0633    1.7385 H.spc      1 <1>        0.000
     73 H           2.5616    2.9056    1.8260 H.spc      1 <1>        0.000
@<TRIPOS>BOND
     1   27   28 1  
     2   13   26 1  
     3   26   28 1  
     4   23   13 1  
     5   24   14 1  
     6   14   27 1  
     7   10   12 1  
     8    7   11 1  
     9    6    9 1  
    10    6   10 1  
    11    5    9 1  
    12    4    7 1  
    13    3    6 1  
    14    2    5 1  
    15    1    4 1  
    16    1    3 1  
    17    1    2 1  
    18   11    8 1  
    19   12   15 1  
    20    8   16 1  
    21   15   17 1  
    22   15   18 1  
    23   16   19 2  
    24   17   20 1  
    25   17   21 1  
    26   18   22 1  
    27   19   23 1  
    28   20   24 1  
    29   21   25 1  
    30   22   25 1  
    31    1   29 1  
    32    2   30 1  
    33    2   31 1  
    34    4   32 1  
    35    4   33 1  
    36    5   34 1  
    37    5   35 1  
    38    6   36 1  
    39    7   37 1  
    40    7   38 1  
    41    8   39 1  
    42    8   40 1  
    43    9   41 1  
    44    9   42 1  
    45   10   43 1  
    46   10   44 1  
    47   11   45 1  
    48   11   46 1  
    49   12   47 1  
    50   12   48 1  
    51   13   49 1  
    52   13   50 1  
    53   14   51 1  
    54   14   52 1  
    55   16   53 1  
    56   17   54 1  
    57   18   55 1  
    58   18   56 1  
    59   19   57 1  
    60   20   58 1  
    61   20   59 1  
    62   21   60 1  
    63   21   61 1  
    64   22   62 1  
    65   22   63 1  
    66   23   64 1  
    67   23   65 1  
    68   25   66 1  
    69   25   67 1  
    70   26   68 1  
    71   26   69 1  
    72   27   70 1  
    73   27   71 1  
    74   28   72 1  
    75   28   73 1  
# Name:          frag4-382-256/150395
# Creation time: Sat Jun  5 12:53:33 2010


@<TRIPOS>MOLECULE
frag4-382-256/150395
   73    75     1     1     1
SMALL
USER_CHARGES


@<TRIPOS>ATOM
      1 C1         -0.5050   -5.2183    0.6815 C.3        1 <1>        0.000
      2 C2         -1.9273   -5.7413    0.6252 C.3        1 <1>        0.000
      3 O1         -0.4624   -3.9260    0.1775 O.3        1 <1>        0.000
      4 C3          0.2606   -5.4092    1.9538 C.3        1 <1>        0.000
      5 C4         -2.4658   -5.6437   -0.7906 C.3        1 <1>        0.000
      6 C5         -0.9684   -3.6042   -1.0711 C.3        1 <1>        0.000
      7 C6          1.7503   -5.1642    1.7684 C.3        1 <1>        0.000
      8 C14         3.8187   -3.6854    1.1498 C.3        1 <1>        0.000
      9 C7         -2.3396   -4.2441   -1.3133 C.3        1 <1>        0.000
     10 C9         -0.9787   -2.1289   -1.2256 C.3        1 <1>        0.000
     11 C10         2.3073   -3.8481    1.2541 C.3        1 <1>        0.000
     12 C13        -2.2254   -1.4135   -1.4074 C.3        1 <1>        0.000
     13 C26         4.1223    0.2582   -0.9236 C.3        1 <1>        0.000
     14 C28         0.5522    1.9852    0.7942 C.3        1 <1>        0.000
     15 N1         -2.8055   -0.2630   -0.8790 N.3        1 <1>        0.000
     16 C16         4.2656   -3.3847   -0.2442 C.2        1 <1>        0.000
     17 C17        -2.0420    0.7245   -0.1693 C.3        1 <1>        0.000
     18 C18        -4.2233   -0.1339   -1.0371 C.3        1 <1>        0.000
     19 C19         4.1639   -2.2048   -0.8843 C.2        1 <1>        0.000
     20 C21        -0.9619    0.2682    0.7299 C.3        1 <1>        0.000
     21 C22        -2.9981    1.6200    0.6464 C.3        1 <1>        0.000
     22 C23        -4.6385    1.2952   -1.2358 C.3        1 <1>        0.000
     23 C24         3.6089   -0.9782   -0.2902 C.3        1 <1>        0.000
     24 O7          0.1680    0.6856    1.2005 O.3        1 <1>        0.000
     25 C25        -4.3416    2.0152    0.0517 C.3        1 <1>        0.000
     26 C29         4.2177    1.6390   -0.3860 C.3        1 <1>        0.000
     27 C32         1.7278    2.1137   -0.1369 C.3        1 <1>        0.000
     28 C33         3.0726    1.9780    0.5267 C.3        1 <1>        0.000
     29 H           0.0668   -5.8811    0.0321 H.spc      1 <1>        0.000
     30 H          -1.9364   -6.7850    0.9393 H.spc      1 <1>        0.000
     31 H          -2.5538   -5.1436    1.2873 H.spc      1 <1>        0.000
     32 H          -0.1129   -4.6931    2.6857 H.spc      1 <1>        0.000
     33 H           0.1240   -6.4399    2.2811 H.spc      1 <1>        0.000
     34 H          -1.8907   -6.3115   -1.4320 H.spc      1 <1>        0.000
     35 H          -3.5193   -5.9233   -0.7858 H.spc      1 <1>        0.000
     36 H          -0.3208   -4.0203   -1.8428 H.spc      1 <1>        0.000
     37 H           2.1422   -5.2226    2.7838 H.spc      1 <1>        0.000
     38 H           2.0262   -5.8747    0.9892 H.spc      1 <1>        0.000
     39 H           4.2805   -4.6239    1.4565 H.spc      1 <1>        0.000
     40 H           4.1122   -2.8498    1.7852 H.spc      1 <1>        0.000
     41 H          -2.4873   -4.2893   -2.3923 H.spc      1 <1>        0.000
     42 H          -3.0755   -3.6366   -0.7866 H.spc      1 <1>        0.000
     43 H          -0.5943   -1.7583   -0.2754 H.spc      1 <1>        0.000
     44 H          -0.4327   -1.9537   -2.1526 H.spc      1 <1>        0.000
     45 H           1.9913   -3.1020    1.9832 H.spc      1 <1>        0.000
     46 H           1.9418   -3.7660    0.2305 H.spc      1 <1>        0.000
     47 H          -2.8903   -2.1451   -0.9483 H.spc      1 <1>        0.000
     48 H          -2.0444   -1.0442   -2.4168 H.spc      1 <1>        0.000
     49 H           5.1801    0.0088   -1.0070 H.spc      1 <1>        0.000
     50 H           3.3723    0.4039   -1.7010 H.spc      1 <1>        0.000
     51 H           0.8492    2.4988    1.7086 H.spc      1 <1>        0.000
     52 H          -0.3001    2.3798    0.2411 H.spc      1 <1>        0.000
     53 H           4.7206   -4.2048   -0.7996 H.spc      1 <1>        0.000
     54 H          -1.5176    1.2438   -0.9714 H.spc      1 <1>        0.000
     55 H          -4.7028   -0.5057   -0.1315 H.spc      1 <1>        0.000
     56 H          -4.5213   -0.7014   -1.9187 H.spc      1 <1>        0.000
     57 H           4.5172   -2.1545   -1.9142 H.spc      1 <1>        0.000
     58 H          -0.5534   -0.4944    0.0668 H.spc      1 <1>        0.000
     59 H          -1.5260    0.3424    1.6596 H.spc      1 <1>        0.000
     60 H          -2.4611    2.5607    0.7677 H.spc      1 <1>        0.000
     61 H          -3.2480    1.0287    1.5273 H.spc      1 <1>        0.000
     62 H          -5.6983    1.3609   -1.4819 H.spc      1 <1>        0.000
     63 H          -4.0952    1.7454   -2.0666 H.spc      1 <1>        0.000
     64 H           2.5287   -1.0000   -0.4341 H.spc      1 <1>        0.000
     65 H           3.9002   -0.9578    0.7600 H.spc      1 <1>        0.000
     66 H          -4.3133    3.0840   -0.1604 H.spc      1 <1>        0.000
     67 H          -5.1174    1.7511    0.7704 H.spc      1 <1>        0.000
     68 H           4.1949    2.3312   -1.2276 H.spc      1 <1>        0.000
     69 H           5.1410    1.7145    0.1884 H.spc      1 <1>        0.000
     70 H           1.6484    1.3040   -0.8623 H.spc      1 <1>        0.000
     71 H           1.6850    3.1147   -0.5662 H.spc      1 <1>        0.000
     72 H           2.9864    1.1529    1.2337 H.spc      1 <1>        0.000
     73 H           3.3019    2.9507    0.9619 H.spc      1 <1>        0.000
@<TRIPOS>BOND
     1   27   28 1  
     2   13   26 1  
     3   26   28 1  
     4   23   13 1  
     5   24   14 1  
     6   14   27 1  
     7   10   12 1  
     8    7   11 1  
     9    6    9 1  
    10    6   10 1  
    11    5    9 1  
    12    4    7 1  
    13    3    6 1  
    14    2    5 1  
    15    1    4 1  
    16    1    3 1  
    17    1    2 1  
    18   11    8 1  
    19   12   15 1  
    20    8   16 1  
    21   15   17 1  
    22   15   18 1  
    23   16   19 2  
    24   17   20 1  
    25   17   21 1  
    26   18   22 1  
    27   19   23 1  
    28   20   24 1  
    29   21   25 1  
    30   22   25 1  
    31    1   29 1  
    32    2   30 1  
    33    2   31 1  
    34    4   32 1  
    35    4   33 1  
    36    5   34 1  
    37    5   35 1  
    38    6   36 1  
    39    7   37 1  
    40    7   38 1  
    41    8   39 1  
    42    8   40 1  
    43    9   41 1  
    44    9   42 1  
    45   10   43 1  
    46   10   44 1  
    47   11   45 1  
    48   11   46 1  
    49   12   47 1  
    50   12   48 1  
    51   13   49 1  
    52   13   50 1  
    53   14   51 1  
    54   14   52 1  
    55   16   53 1  
    56   17   54 1  
    57   18   55 1  
    58   18   56 1  
    59   19   57 1  
    60   20   58 1  
    61   20   59 1  
    62   21   60 1  
    63   21   61 1  
    64   22   62 1  
    65   22   63 1  
    66   23   64 1  
    67   23   65 1  
    68   25   66 1  
    69   25   67 1  
    70   26   68 1  
    71   26   69 1  
    72   27   70 1  
    73   27   71 1  
    74   28   72 1  
    75   28   73 1  
# Name:          frag4-382-256/150395
# Creation time: Sat Jun  5 12:53:33 2010


@<TRIPOS>MOLECULE
frag4-382-256/150395
   73    75     1     1     1
SMALL
USER_CHARGES


@<TRIPOS>ATOM
      1 C1         -0.5345   -5.3124    0.6684 C.3        1 <1>        0.000
      2 C2         -1.9478   -5.8524    0.8335 C.3        1 <1>        0.000
      3 O1         -0.6051   -4.0734    0.0328 O.3        1 <1>        0.000
      4 C3          0.4753   -5.3228    1.8013 C.3        1 <1>        0.000
      5 C4         -2.7294   -5.7778   -0.4770 C.3        1 <1>        0.000
      6 C5         -1.3073   -3.7651   -1.1165 C.3        1 <1>        0.000
      7 C6          1.9576   -5.2542    1.3880 C.3        1 <1>        0.000
      8 C14         2.8605   -3.1708    0.0226 C.3        1 <1>        0.000
      9 C7         -2.6664   -4.4356   -1.1801 C.3        1 <1>        0.000
     10 C9         -1.3086   -2.2845   -1.2985 C.3        1 <1>        0.000
     11 C10         2.4046   -4.6289    0.0617 C.3        1 <1>        0.000
     12 C13        -2.5386   -1.4899   -1.4956 C.3        1 <1>        0.000
     13 C26         4.9523    0.7003   -0.1775 C.3        1 <1>        0.000
     14 C28         0.5408    1.9348    0.4798 C.3        1 <1>        0.000
     15 N1         -3.0390   -0.3594   -0.8433 N.3        1 <1>        0.000
     16 C16         4.3308   -2.8870    0.1287 C.2        1 <1>        0.000
     17 C17        -2.1619    0.6228   -0.2480 C.3        1 <1>        0.000
     18 C18        -4.4605   -0.1539   -0.8458 C.3        1 <1>        0.000
     19 C19         4.9517   -1.7631   -0.2598 C.2        1 <1>        0.000
     20 C21        -1.0671    0.2312    0.6582 C.3        1 <1>        0.000
     21 C22        -2.9418    1.7239    0.4637 C.3        1 <1>        0.000
     22 C23        -4.8688    1.2884   -1.0901 C.3        1 <1>        0.000
     23 C24         4.4055   -0.5086   -0.8735 C.3        1 <1>        0.000
     24 O7          0.0730    0.7272    1.0429 O.3        1 <1>        0.000
     25 C25        -4.0438    2.3197   -0.3627 C.3        1 <1>        0.000
     26 C29         4.4480    1.5654    0.9296 C.3        1 <1>        0.000
     27 C32         2.0022    1.9972    0.1312 C.3        1 <1>        0.000
     28 C33         2.9706    1.5202    1.1914 C.3        1 <1>        0.000
     29 H          -0.0670   -6.0973    0.0739 H.spc      1 <1>        0.000
     30 H          -1.8859   -6.8964    1.1407 H.spc      1 <1>        0.000
     31 H          -2.4643   -5.2484    1.5795 H.spc      1 <1>        0.000
     32 H           0.2811   -4.4273    2.3917 H.spc      1 <1>        0.000
     33 H           0.3458   -6.2743    2.3171 H.spc      1 <1>        0.000
     34 H          -2.2856   -6.5096   -1.1520 H.spc      1 <1>        0.000
     35 H          -3.7761   -5.9575   -0.2317 H.spc      1 <1>        0.000
     36 H          -0.8025   -4.1903   -1.9840 H.spc      1 <1>        0.000
     37 H           2.4029   -4.6033    2.1404 H.spc      1 <1>        0.000
     38 H           2.2433   -6.3011    1.2862 H.spc      1 <1>        0.000
     39 H           2.4127   -2.7049    0.9004 H.spc      1 <1>        0.000
     40 H           2.5659   -2.8027   -0.9602 H.spc      1 <1>        0.000
     41 H          -2.8894   -4.6124   -2.2323 H.spc      1 <1>        0.000
     42 H          -3.3748   -3.7759   -0.6790 H.spc      1 <1>        0.000
     43 H          -0.9322   -1.9200   -0.3427 H.spc      1 <1>        0.000
     44 H          -0.7786   -2.1533   -2.2419 H.spc      1 <1>        0.000
     45 H           1.5140   -4.6538   -0.5662 H.spc      1 <1>        0.000
     46 H           3.2879   -5.1993   -0.2256 H.spc      1 <1>        0.000
     47 H          -3.2792   -2.2235   -1.1769 H.spc      1 <1>        0.000
     48 H          -2.3152   -1.0517   -2.4683 H.spc      1 <1>        0.000
     49 H           5.7901    0.2334    0.3403 H.spc      1 <1>        0.000
     50 H           4.8805    1.4150   -0.9974 H.spc      1 <1>        0.000
     51 H           0.3805    2.7011    1.2382 H.spc      1 <1>        0.000
     52 H           0.0029    2.0553   -0.4605 H.spc      1 <1>        0.000
     53 H           4.9535   -3.6691    0.5630 H.spc      1 <1>        0.000
     54 H          -1.6498    0.9276   -1.1607 H.spc      1 <1>        0.000
     55 H          -4.8321   -0.4352    0.1395 H.spc      1 <1>        0.000
     56 H          -4.8747   -0.7517   -1.6577 H.spc      1 <1>        0.000
     57 H           6.0305   -1.7615   -0.1037 H.spc      1 <1>        0.000
     58 H          -0.6749   -0.5953    0.0657 H.spc      1 <1>        0.000
     59 H          -1.6046    0.3528    1.5986 H.spc      1 <1>        0.000
     60 H          -2.2380    2.5245    0.6913 H.spc      1 <1>        0.000
     61 H          -3.4025    1.2773    1.3449 H.spc      1 <1>        0.000
     62 H          -5.8910    1.3908   -0.7257 H.spc      1 <1>        0.000
     63 H          -4.7361    1.4755   -2.1557 H.spc      1 <1>        0.000
     64 H           4.6963   -0.4734   -1.9234 H.spc      1 <1>        0.000
     65 H           3.3199   -0.5114   -0.7760 H.spc      1 <1>        0.000
     66 H          -3.5824    2.9613   -1.1133 H.spc      1 <1>        0.000
     67 H          -4.7092    2.8563    0.3136 H.spc      1 <1>        0.000
     68 H           4.6727    2.5915    0.6384 H.spc      1 <1>        0.000
     69 H           4.9279    1.2038    1.8390 H.spc      1 <1>        0.000
     70 H           2.1375    1.3324   -0.7220 H.spc      1 <1>        0.000
     71 H           2.2286    3.0508   -0.0321 H.spc      1 <1>        0.000
     72 H           2.7462    0.4601    1.3098 H.spc      1 <1>        0.000
     73 H           2.8199    2.2038    2.0269 H.spc      1 <1>        0.000
@<TRIPOS>BOND
     1   27   28 1  
     2   13   26 1  
     3   26   28 1  
     4   23   13 1  
     5   24   14 1  
     6   14   27 1  
     7   10   12 1  
     8    7   11 1  
     9    6    9 1  
    10    6   10 1  
    11    5    9 1  
    12    4    7 1  
    13    3    6 1  
    14    2    5 1  
    15    1    4 1  
    16    1    3 1  
    17    1    2 1  
    18   11    8 1  
    19   12   15 1  
    20    8   16 1  
    21   15   17 1  
    22   15   18 1  
    23   16   19 2  
    24   17   20 1  
    25   17   21 1  
    26   18   22 1  
    27   19   23 1  
    28   20   24 1  
    29   21   25 1  
    30   22   25 1  
    31    1   29 1  
    32    2   30 1  
    33    2   31 1  
    34    4   32 1  
    35    4   33 1  
    36    5   34 1  
    37    5   35 1  
    38    6   36 1  
    39    7   37 1  
    40    7   38 1  
    41    8   39 1  
    42    8   40 1  
    43    9   41 1  
    44    9   42 1  
    45   10   43 1  
    46   10   44 1  
    47   11   45 1  
    48   11   46 1  
    49   12   47 1  
    50   12   48 1  
    51   13   49 1  
    52   13   50 1  
    53   14   51 1  
    54   14   52 1  
    55   16   53 1  
    56   17   54 1  
    57   18   55 1  
    58   18   56 1  
    59   19   57 1  
    60   20   58 1  
    61   20   59 1  
    62   21   60 1  
    63   21   61 1  
    64   22   62 1  
    65   22   63 1  
    66   23   64 1  
    67   23   65 1  
    68   25   66 1  
    69   25   67 1  
    70   26   68 1  
    71   26   69 1  
    72   27   70 1  
    73   27   71 1  
    74   28   72 1  
    75   28   73 1  
# Name:          frag4-382-256/150395
# Creation time: Sat Jun  5 12:53:33 2010


@<TRIPOS>MOLECULE
frag4-382-256/150395
   73    75     1     1     1
SMALL
USER_CHARGES


@<TRIPOS>ATOM
      1 C1         -0.0778   -4.8737    0.3144 C.3        1 <1>        0.000
      2 C2         -1.3910   -5.6493    0.2999 C.3        1 <1>        0.000
      3 O1         -0.2257   -3.6486   -0.3305 O.3        1 <1>        0.000
      4 C3          0.5953   -4.8092    1.6838 C.3        1 <1>        0.000
      5 C4         -2.2054   -5.5241   -0.9642 C.3        1 <1>        0.000
      6 C5         -1.0281   -3.2957   -1.4031 C.3        1 <1>        0.000
      7 C6          2.0373   -5.2778    1.7998 C.3        1 <1>        0.000
      8 C14         3.6620   -3.2616    1.8310 C.3        1 <1>        0.000
      9 C7         -2.3040   -4.1192   -1.5083 C.3        1 <1>        0.000
     10 C9         -1.2382   -1.8148   -1.3604 C.3        1 <1>        0.000
     11 C10         3.1475   -4.4969    1.1217 C.3        1 <1>        0.000
     12 C13        -2.5528   -1.1558   -1.5237 C.3        1 <1>        0.000
     13 C26         3.7549   -0.9101   -0.7074 C.3        1 <1>        0.000
     14 C28         0.2560    2.0565    0.7195 C.3        1 <1>        0.000
     15 N1         -3.2048   -0.1272   -0.8298 N.3        1 <1>        0.000
     16 C16         5.0426   -2.8258    1.4758 C.2        1 <1>        0.000
     17 C17        -2.4748    0.8810   -0.1027 C.3        1 <1>        0.000
     18 C18        -4.6394   -0.0796   -0.8900 C.3        1 <1>        0.000
     19 C19         5.5672   -2.2036    0.4106 C.2        1 <1>        0.000
     20 C21        -1.4381    0.4689    0.8705 C.3        1 <1>        0.000
     21 C22        -3.3908    1.8498    0.6514 C.3        1 <1>        0.000
     22 C23        -5.2118    1.3209   -1.0063 C.3        1 <1>        0.000
     23 C24         5.0109   -1.6957   -0.8668 C.3        1 <1>        0.000
     24 O7         -0.2954    0.9088    1.3193 O.3        1 <1>        0.000
     25 C25        -4.5739    2.3563   -0.1208 C.3        1 <1>        0.000
     26 C29         3.4300    0.5073   -1.0094 C.3        1 <1>        0.000
     27 C32         1.2936    1.8222   -0.3576 C.3        1 <1>        0.000
     28 C33         2.6072    1.1881    0.0486 C.3        1 <1>        0.000
     29 H           0.6464   -5.4426   -0.2687 H.spc      1 <1>        0.000
     30 H          -1.1302   -6.7031    0.3980 H.spc      1 <1>        0.000
     31 H          -2.0020   -5.2402    1.1046 H.spc      1 <1>        0.000
     32 H           0.6156   -3.7509    1.9441 H.spc      1 <1>        0.000
     33 H           0.0218   -5.4855    2.3177 H.spc      1 <1>        0.000
     34 H          -1.7090   -6.1268   -1.7247 H.spc      1 <1>        0.000
     35 H          -3.2190   -5.8452   -0.7240 H.spc      1 <1>        0.000
     36 H          -0.5205   -3.5422   -2.3357 H.spc      1 <1>        0.000
     37 H           2.2628   -5.2029    2.8636 H.spc      1 <1>        0.000
     38 H           2.0479   -6.2496    1.3063 H.spc      1 <1>        0.000
     39 H           3.6840   -3.5072    2.8927 H.spc      1 <1>        0.000
     40 H           3.0008   -2.4456    1.5395 H.spc      1 <1>        0.000
     41 H          -2.5332   -4.2090   -2.5701 H.spc      1 <1>        0.000
     42 H          -3.0596   -3.6048   -0.9146 H.spc      1 <1>        0.000
     43 H          -0.9726   -1.5658   -0.3330 H.spc      1 <1>        0.000
     44 H          -0.6884   -1.4706   -2.2364 H.spc      1 <1>        0.000
     45 H           2.7266   -4.1427    0.1807 H.spc      1 <1>        0.000
     46 H           3.9957   -5.1791    1.0651 H.spc      1 <1>        0.000
     47 H          -3.1979   -1.9881   -1.2423 H.spc      1 <1>        0.000
     48 H          -2.3691   -0.6379   -2.4651 H.spc      1 <1>        0.000
     49 H           3.1356   -1.4026   -1.4571 H.spc      1 <1>        0.000
     50 H           3.6938   -0.8831    0.3806 H.spc      1 <1>        0.000
     51 H           0.7648    2.5991    1.5163 H.spc      1 <1>        0.000
     52 H          -0.5728    2.5714    0.2338 H.spc      1 <1>        0.000
     53 H           5.7799   -3.0627    2.2428 H.spc      1 <1>        0.000
     54 H          -1.9479    1.3312   -0.9440 H.spc      1 <1>        0.000
     55 H          -5.0143   -0.5036    0.0415 H.spc      1 <1>        0.000
     56 H          -4.9418   -0.6255   -1.7837 H.spc      1 <1>        0.000
     57 H           6.6398   -2.0334    0.5040 H.spc      1 <1>        0.000
     58 H          -1.0485   -0.3789    0.3071 H.spc      1 <1>        0.000
     59 H          -2.0196    0.6456    1.7754 H.spc      1 <1>        0.000
     60 H          -2.7846    2.7218    0.8967 H.spc      1 <1>        0.000
     61 H          -3.7896    1.2993    1.5035 H.spc      1 <1>        0.000
     62 H          -6.2570    1.2553   -0.7042 H.spc      1 <1>        0.000
     63 H          -5.0399    1.6423   -2.0336 H.spc      1 <1>        0.000
     64 H           5.7561   -1.0310   -1.3037 H.spc      1 <1>        0.000
     65 H           4.7756   -2.5618   -1.4854 H.spc      1 <1>        0.000
     66 H          -4.2202    3.1609   -0.7654 H.spc      1 <1>        0.000
     67 H          -5.3247    2.6697    0.6046 H.spc      1 <1>        0.000
     68 H           2.8435    0.5147   -1.9281 H.spc      1 <1>        0.000
     69 H           4.3747    1.0465   -1.0795 H.spc      1 <1>        0.000
     70 H           0.8354    1.1190   -1.0531 H.spc      1 <1>        0.000
     71 H           1.5533    2.8131   -0.7301 H.spc      1 <1>        0.000
     72 H           2.3387    0.4005    0.7526 H.spc      1 <1>        0.000
     73 H           3.2248    2.0129    0.4042 H.spc      1 <1>        0.000
@<TRIPOS>BOND
     1   27   28 1  
     2   13   26 1  
     3   26   28 1  
     4   23   13 1  
     5   24   14 1  
     6   14   27 1  
     7   10   12 1  
     8    7   11 1  
     9    6    9 1  
    10    6   10 1  
    11    5    9 1  
    12    4    7 1  
    13    3    6 1  
    14    2    5 1  
    15    1    4 1  
    16    1    3 1  
    17    1    2 1  
    18   11    8 1  
    19   12   15 1  
    20    8   16 1  
    21   15   17 1  
    22   15   18 1  
    23   16   19 2  
    24   17   20 1  
    25   17   21 1  
    26   18   22 1  
    27   19   23 1  
    28   20   24 1  
    29   21   25 1  
    30   22   25 1  
    31    1   29 1  
    32    2   30 1  
    33    2   31 1  
    34    4   32 1  
    35    4   33 1  
    36    5   34 1  
    37    5   35 1  
    38    6   36 1  
    39    7   37 1  
    40    7   38 1  
    41    8   39 1  
    42    8   40 1  
    43    9   41 1  
    44    9   42 1  
    45   10   43 1  
    46   10   44 1  
    47   11   45 1  
    48   11   46 1  
    49   12   47 1  
    50   12   48 1  
    51   13   49 1  
    52   13   50 1  
    53   14   51 1  
    54   14   52 1  
    55   16   53 1  
    56   17   54 1  
    57   18   55 1  
    58   18   56 1  
    59   19   57 1  
    60   20   58 1  
    61   20   59 1  
    62   21   60 1  
    63   21   61 1  
    64   22   62 1  
    65   22   63 1  
    66   23   64 1  
    67   23   65 1  
    68   25   66 1  
    69   25   67 1  
    70   26   68 1  
    71   26   69 1  
    72   27   70 1  
    73   27   71 1  
    74   28   72 1  
    75   28   73 1  
# Name:          frag4-382-256/150395
# Creation time: Sat Jun  5 12:53:33 2010


@<TRIPOS>MOLECULE
frag4-382-256/150395
   73    75     1     1     1
SMALL
USER_CHARGES


@<TRIPOS>ATOM
      1 C1         -0.5981   -5.3973    0.2998 C.3        1 <1>        0.000
      2 C2         -1.9316   -5.5832    1.0155 C.3        1 <1>        0.000
      3 O1         -0.6046   -4.3073   -0.5715 O.3        1 <1>        0.000
      4 C3          0.6209   -5.5116    1.1792 C.3        1 <1>        0.000
      5 C4         -3.0766   -4.7915    0.4262 C.3        1 <1>        0.000
      6 C5         -1.5906   -3.9181   -1.4534 C.3        1 <1>        0.000
      7 C6          1.9451   -5.3325    0.4982 C.3        1 <1>        0.000
      8 C14         3.8642   -3.7242    0.2447 C.3        1 <1>        0.000
      9 C7         -2.9298   -4.5209   -1.0583 C.3        1 <1>        0.000
     10 C9         -1.5604   -2.4301   -1.6155 C.3        1 <1>        0.000
     11 C10         2.3716   -3.9416    0.1334 C.3        1 <1>        0.000
     12 C13        -2.7532   -1.5838   -1.5217 C.3        1 <1>        0.000
     13 C26         4.9006    0.5309    0.1002 C.3        1 <1>        0.000
     14 C28         0.7687    1.7489   -0.5323 C.3        1 <1>        0.000
     15 N1         -3.0801   -0.4389   -0.7840 N.3        1 <1>        0.000
     16 C16         4.1479   -2.7945    1.3756 C.2        1 <1>        0.000
     17 C17        -2.1131    0.5578   -0.3787 C.3        1 <1>        0.000
     18 C18        -4.4726   -0.2646   -0.4960 C.3        1 <1>        0.000
     19 C19         4.2638   -1.4791    1.2952 C.2        1 <1>        0.000
     20 C21        -0.7979    0.1207    0.1239 C.3        1 <1>        0.000
     21 C22        -2.6656    1.5736    0.6362 C.3        1 <1>        0.000
     22 C23        -4.8601    1.1906   -0.5393 C.3        1 <1>        0.000
     23 C24         4.1362   -0.7301    0.0326 C.3        1 <1>        0.000
     24 O7          0.4445    0.5295    0.0987 O.3        1 <1>        0.000
     25 C25        -4.0924    2.0174    0.4482 C.3        1 <1>        0.000
     26 C29         4.5289    1.8818    0.5746 C.3        1 <1>        0.000
     27 C32         2.2425    2.0780   -0.6243 C.3        1 <1>        0.000
     28 C33         3.0440    2.1113    0.6582 C.3        1 <1>        0.000
     29 H          -0.4924   -6.2717   -0.3423 H.spc      1 <1>        0.000
     30 H          -2.1953   -6.6373    0.9289 H.spc      1 <1>        0.000
     31 H          -1.7955   -5.2329    2.0387 H.spc      1 <1>        0.000
     32 H           0.5441   -4.7093    1.9130 H.spc      1 <1>        0.000
     33 H           0.6167   -6.5267    1.5762 H.spc      1 <1>        0.000
     34 H          -3.9839   -5.3801    0.5621 H.spc      1 <1>        0.000
     35 H          -3.1005   -3.8266    0.9327 H.spc      1 <1>        0.000
     36 H          -1.4072   -4.3159   -2.4515 H.spc      1 <1>        0.000
     37 H           2.6873   -5.6820    1.2160 H.spc      1 <1>        0.000
     38 H           1.8554   -5.8637   -0.4494 H.spc      1 <1>        0.000
     39 H           4.2388   -3.2925   -0.6834 H.spc      1 <1>        0.000
     40 H           4.3579   -4.6788    0.4264 H.spc      1 <1>        0.000
     41 H          -3.0139   -5.4799   -1.5696 H.spc      1 <1>        0.000
     42 H          -3.7000   -3.7994   -1.3311 H.spc      1 <1>        0.000
     43 H          -0.9608   -2.1033   -0.7659 H.spc      1 <1>        0.000
     44 H          -1.2509   -2.3030   -2.6529 H.spc      1 <1>        0.000
     45 H           1.8864   -3.2557    0.8278 H.spc      1 <1>        0.000
     46 H           2.0911   -3.7733   -0.9064 H.spc      1 <1>        0.000
     47 H          -3.4214   -2.2926   -1.0326 H.spc      1 <1>        0.000
     48 H          -2.7177   -1.1365   -2.5151 H.spc      1 <1>        0.000
     49 H           5.6288    0.2624    0.8656 H.spc      1 <1>        0.000
     50 H           5.0108    0.7351   -0.9648 H.spc      1 <1>        0.000
     51 H           0.3170    2.5355    0.0722 H.spc      1 <1>        0.000
     52 H           0.4091    1.6674   -1.5580 H.spc      1 <1>        0.000
     53 H           4.2715   -3.2412    2.3622 H.spc      1 <1>        0.000
     54 H          -1.9290    0.9999   -1.3579 H.spc      1 <1>        0.000
     55 H          -4.6714   -0.6479    0.5048 H.spc      1 <1>        0.000
     56 H          -5.0529   -0.8016   -1.2464 H.spc      1 <1>        0.000
     57 H           4.4639   -0.9208    2.2097 H.spc      1 <1>        0.000
     58 H          -0.6745   -0.7347   -0.5402 H.spc      1 <1>        0.000
     59 H          -0.9841    0.3123    1.1806 H.spc      1 <1>        0.000
     60 H          -2.0567    2.4705    0.5224 H.spc      1 <1>        0.000
     61 H          -2.6333    1.0752    1.6050 H.spc      1 <1>        0.000
     62 H          -5.9186    1.2648   -0.2899 H.spc      1 <1>        0.000
     63 H          -4.6401    1.5682   -1.5379 H.spc      1 <1>        0.000
     64 H           4.5288   -1.3391   -0.7817 H.spc      1 <1>        0.000
     65 H           3.0847   -0.4982   -0.1370 H.spc      1 <1>        0.000
     66 H          -4.0670    3.0380    0.0664 H.spc      1 <1>        0.000
     67 H          -4.5924    1.9190    1.4118 H.spc      1 <1>        0.000
     68 H           4.9279    2.5987   -0.1430 H.spc      1 <1>        0.000
     69 H           4.9315    1.9941    1.5813 H.spc      1 <1>        0.000
     70 H           2.6812    1.2766   -1.2188 H.spc      1 <1>        0.000
     71 H           2.2881    3.0925   -1.0202 H.spc      1 <1>        0.000
     72 H           2.6591    1.2875    1.2593 H.spc      1 <1>        0.000
     73 H           2.9309    3.1253    1.0417 H.spc      1 <1>        0.000
@<TRIPOS>BOND
     1   27   28 1  
     2   13   26 1  
     3   26   28 1  
     4   23   13 1  
     5   24   14 1  
     6   14   27 1  
     7   10   12 1  
     8    7   11 1  
     9    6    9 1  
    10    6   10 1  
    11    5    9 1  
    12    4    7 1  
    13    3    6 1  
    14    2    5 1  
    15    1    4 1  
    16    1    3 1  
    17    1    2 1  
    18   11    8 1  
    19   12   15 1  
    20    8   16 1  
    21   15   17 1  
    22   15   18 1  
    23   16   19 2  
    24   17   20 1  
    25   17   21 1  
    26   18   22 1  
    27   19   23 1  
    28   20   24 1  
    29   21   25 1  
    30   22   25 1  
    31    1   29 1  
    32    2   30 1  
    33    2   31 1  
    34    4   32 1  
    35    4   33 1  
    36    5   34 1  
    37    5   35 1  
    38    6   36 1  
    39    7   37 1  
    40    7   38 1  
    41    8   39 1  
    42    8   40 1  
    43    9   41 1  
    44    9   42 1  
    45   10   43 1  
    46   10   44 1  
    47   11   45 1  
    48   11   46 1  
    49   12   47 1  
    50   12   48 1  
    51   13   49 1  
    52   13   50 1  
    53   14   51 1  
    54   14   52 1  
    55   16   53 1  
    56   17   54 1  
    57   18   55 1  
    58   18   56 1  
    59   19   57 1  
    60   20   58 1  
    61   20   59 1  
    62   21   60 1  
    63   21   61 1  
    64   22   62 1  
    65   22   63 1  
    66   23   64 1  
    67   23   65 1  
    68   25   66 1  
    69   25   67 1  
    70   26   68 1  
    71   26   69 1  
    72   27   70 1  
    73   27   71 1  
    74   28   72 1  
    75   28   73 1  
# Name:          frag4-382-256/150395
# Creation time: Sat Jun  5 12:53:33 2010


@<TRIPOS>MOLECULE
frag4-382-256/150395
   73    75     1     1     1
SMALL
USER_CHARGES


@<TRIPOS>ATOM
      1 C1         -0.3034   -5.3823   -0.1297 C.3        1 <1>        0.000
      2 C2         -1.5099   -5.9248    0.6402 C.3        1 <1>        0.000
      3 O1         -0.6588   -4.2081   -0.7766 O.3        1 <1>        0.000
      4 C3          1.0662   -5.2977    0.5139 C.3        1 <1>        0.000
      5 C4         -2.7806   -5.8808   -0.1853 C.3        1 <1>        0.000
      6 C5         -1.8116   -3.9088   -1.4716 C.3        1 <1>        0.000
      7 C6          2.0872   -4.5089   -0.2988 C.3        1 <1>        0.000
      8 C14         2.0637   -2.3599    1.2162 C.3        1 <1>        0.000
      9 C7         -3.0368   -4.5414   -0.8322 C.3        1 <1>        0.000
     10 C9         -1.8366   -2.4306   -1.6273 C.3        1 <1>        0.000
     11 C10         2.0765   -2.9980   -0.1552 C.3        1 <1>        0.000
     12 C13        -2.9603   -1.6211   -1.1488 C.3        1 <1>        0.000
     13 C26         4.6710    0.4757    1.2100 C.3        1 <1>        0.000
     14 C28         0.8521    1.6821   -0.9556 C.3        1 <1>        0.000
     15 N1         -3.0396   -0.4563   -0.3895 N.3        1 <1>        0.000
     16 C16         3.2988   -2.6390    1.9894 C.2        1 <1>        0.000
     17 C17        -1.9699    0.5047   -0.2980 C.3        1 <1>        0.000
     18 C18        -4.2830   -0.2353    0.2946 C.3        1 <1>        0.000
     19 C19         4.4846   -2.0264    1.8310 C.2        1 <1>        0.000
     20 C21        -0.5843    0.0589   -0.0418 C.3        1 <1>        0.000
     21 C22        -2.3130    1.5997    0.7108 C.3        1 <1>        0.000
     22 C23        -4.7485    1.2052    0.2610 C.3        1 <1>        0.000
     23 C24         4.8751   -0.9738    0.8429 C.3        1 <1>        0.000
     24 O7          0.6324    0.4570   -0.2917 O.3        1 <1>        0.000
     25 C25        -3.6627    2.2239    0.4742 C.3        1 <1>        0.000
     26 C29         3.8903    1.5762    0.5466 C.3        1 <1>        0.000
     27 C32         2.2387    1.9386   -1.5100 C.3        1 <1>        0.000
     28 C33         3.4146    1.2627   -0.8534 C.3        1 <1>        0.000
     29 H          -0.0931   -6.2006   -0.8184 H.spc      1 <1>        0.000
     30 H          -1.3085   -6.9644    0.8988 H.spc      1 <1>        0.000
     31 H          -1.6568   -5.3032    1.5235 H.spc      1 <1>        0.000
     32 H           0.9440   -4.7822    1.4665 H.spc      1 <1>        0.000
     33 H           1.4435   -6.3162    0.6051 H.spc      1 <1>        0.000
     34 H          -2.6759   -6.6144   -0.9846 H.spc      1 <1>        0.000
     35 H          -3.6139   -6.0828    0.4876 H.spc      1 <1>        0.000
     36 H          -1.8275   -4.3481   -2.4690 H.spc      1 <1>        0.000
     37 H           3.0637   -4.8320    0.0620 H.spc      1 <1>        0.000
     38 H           1.8482   -4.7070   -1.3437 H.spc      1 <1>        0.000
     39 H           1.2214   -2.7742    1.7702 H.spc      1 <1>        0.000
     40 H           1.9894   -1.2807    1.0824 H.spc      1 <1>        0.000
     41 H          -3.7647   -4.7039   -1.6271 H.spc      1 <1>        0.000
     42 H          -3.3726   -3.8653   -0.0459 H.spc      1 <1>        0.000
     43 H          -0.9986   -2.0935   -1.0172 H.spc      1 <1>        0.000
     44 H          -1.8570   -2.2860   -2.7075 H.spc      1 <1>        0.000
     45 H           1.1315   -2.6915   -0.6037 H.spc      1 <1>        0.000
     46 H           3.0230   -2.6792   -0.5918 H.spc      1 <1>        0.000
     47 H          -3.3857   -2.3234   -0.4319 H.spc      1 <1>        0.000
     48 H          -3.3087   -1.2282   -2.1040 H.spc      1 <1>        0.000
     49 H           4.0778    0.3523    2.1161 H.spc      1 <1>        0.000
     50 H           5.6828    0.8483    1.0500 H.spc      1 <1>        0.000
     51 H           0.6884    2.4558   -0.2054 H.spc      1 <1>        0.000
     52 H           0.1881    1.6706   -1.8199 H.spc      1 <1>        0.000
     53 H           3.2391   -3.4115    2.7560 H.spc      1 <1>        0.000
     54 H          -1.9303    0.8434   -1.3333 H.spc      1 <1>        0.000
     55 H          -4.1323   -0.5048    1.3399 H.spc      1 <1>        0.000
     56 H          -5.0423   -0.8350   -0.2074 H.spc      1 <1>        0.000
     57 H           5.2706   -2.3402    2.5179 H.spc      1 <1>        0.000
     58 H          -0.5892   -0.7972   -0.7164 H.spc      1 <1>        0.000
     59 H          -0.5742    0.2535    1.0306 H.spc      1 <1>        0.000
     60 H          -1.5642    2.3856    0.6121 H.spc      1 <1>        0.000
     61 H          -2.3296    1.1431    1.7004 H.spc      1 <1>        0.000
     62 H          -5.4611    1.3267    1.0768 H.spc      1 <1>        0.000
     63 H          -5.1579    1.3824   -0.7335 H.spc      1 <1>        0.000
     64 H           5.9523   -1.0861    0.7200 H.spc      1 <1>        0.000
     65 H           4.2299   -1.1413   -0.0195 H.spc      1 <1>        0.000
     66 H          -3.5949    2.8324   -0.4276 H.spc      1 <1>        0.000
     67 H          -3.9206    2.8055    1.3592 H.spc      1 <1>        0.000
     68 H           4.5578    2.4344    0.4687 H.spc      1 <1>        0.000
     69 H           2.9999    1.7419    1.1531 H.spc      1 <1>        0.000
     70 H           2.2157    1.5448   -2.5261 H.spc      1 <1>        0.000
     71 H           2.4086    3.0058   -1.3677 H.spc      1 <1>        0.000
     72 H           4.2536    1.5828   -1.4713 H.spc      1 <1>        0.000
     73 H           3.0832    0.2277   -0.7702 H.spc      1 <1>        0.000
@<TRIPOS>BOND
     1   27   28 1  
     2   13   26 1  
     3   26   28 1  
     4   23   13 1  
     5   24   14 1  
     6   14   27 1  
     7   10   12 1  
     8    7   11 1  
     9    6    9 1  
    10    6   10 1  
    11    5    9 1  
    12    4    7 1  
    13    3    6 1  
    14    2    5 1  
    15    1    4 1  
    16    1    3 1  
    17    1    2 1  
    18   11    8 1  
    19   12   15 1  
    20    8   16 1  
    21   15   17 1  
    22   15   18 1  
    23   16   19 2  
    24   17   20 1  
    25   17   21 1  
    26   18   22 1  
    27   19   23 1  
    28   20   24 1  
    29   21   25 1  
    30   22   25 1  
    31    1   29 1  
    32    2   30 1  
    33    2   31 1  
    34    4   32 1  
    35    4   33 1  
    36    5   34 1  
    37    5   35 1  
    38    6   36 1  
    39    7   37 1  
    40    7   38 1  
    41    8   39 1  
    42    8   40 1  
    43    9   41 1  
    44    9   42 1  
    45   10   43 1  
    46   10   44 1  
    47   11   45 1  
    48   11   46 1  
    49   12   47 1  
    50   12   48 1  
    51   13   49 1  
    52   13   50 1  
    53   14   51 1  
    54   14   52 1  
    55   16   53 1  
    56   17   54 1  
    57   18   55 1  
    58   18   56 1  
    59   19   57 1  
    60   20   58 1  
    61   20   59 1  
    62   21   60 1  
    63   21   61 1  
    64   22   62 1  
    65   22   63 1  
    66   23   64 1  
    67   23   65 1  
    68   25   66 1  
    69   25   67 1  
    70   26   68 1  
    71   26   69 1  
    72   27   70 1  
    73   27   71 1  
    74   28   72 1  
    75   28   73 1  
