#      Rotatable Fragment
#      Build by yxyuan
#
# Name:          frag3-095-6778/31924
# Creation time: Sat Jun  5 12:51:59 2010


@<TRIPOS>MOLECULE
frag3-095-6778/31924
    5     4     1     1     1
SMALL
USER_CHARGES


@<TRIPOS>ATOM
      1 C25         0.4448   -0.0060   -0.0041 C.2        1 <1>        0.000
      2 O3          1.4503    0.6881   -0.0258 O.2        1 <1>        0.000
      3 O4         -0.7962    0.5085   -0.0246 O.3        1 <1>        0.000
      4 H           0.5596   -1.0893    0.0335 H.spc      1 <1>        0.000
      5 H          -1.4377   -0.2053   -0.0014 H.spc      1 <1>        0.000
@<TRIPOS>BOND
     1    1    2 2  
     2    1    3 1  
     3    1    4 1  
     4    3    5 1  
# Name:          frag3-095-6778/31924 -- energy: -0.036117
# Creation time: Sat Jun  5 12:51:59 2010


@<TRIPOS>MOLECULE
frag3-095-6778/31924 -- energy: -0.036117
    5     4     1     1     1
SMALL
USER_CHARGES


@<TRIPOS>ATOM
      1 C25         0.4448   -0.0060   -0.0041 C.2        1 <1>        0.000
      2 O3          1.4503    0.6881   -0.0258 O.2        1 <1>        0.000
      3 O4         -0.7962    0.5085   -0.0246 O.3        1 <1>        0.000
      4 H           0.5596   -1.0893    0.0335 H.spc      1 <1>        0.000
      5 H          -1.4377   -0.2053   -0.0014 H.spc      1 <1>        0.000
@<TRIPOS>BOND
     1    1    2 2  
     2    1    3 1  
     3    1    4 1  
     4    3    5 1  
