#      Rotatable Fragment
#      Build by yxyuan
#
# Name:          frag5-553-170/138278
# Creation time: Sat Jun  5 12:53:43 2010


@<TRIPOS>MOLECULE
frag5-553-170/138278
   14    15     1     1     1
SMALL
USER_CHARGES


@<TRIPOS>ATOM
      1 N2          1.5347    1.2733   -0.1158 N.2        1 <1>        0.000
      2 C12         0.3424    0.7788   -0.0787 C.2        1 <1>        0.000
      3 C13         2.4097    0.1621    0.0363 C.2        1 <1>        0.000
      4 C14         0.4410   -0.7260    0.0903 C.2        1 <1>        0.000
      5 C15        -0.9863    1.4281   -0.1425 C.2        1 <1>        0.000
      6 N3          1.6871   -1.0563    0.1664 N.2        1 <1>        0.000
      7 O1          3.5880    0.2407    0.0484 O.2        1 <1>        0.000
      8 C16        -0.7899   -1.5477    0.1152 C.2        1 <1>        0.000
      9 C17        -2.0437    0.5823   -0.0764 C.2        1 <1>        0.000
     10 C18        -1.9486   -0.8508    0.0164 C.2        1 <1>        0.000
     11 H          -1.1058    2.5075   -0.2358 H.spc      1 <1>        0.000
     12 H          -0.7665   -2.6336    0.2063 H.spc      1 <1>        0.000
     13 H          -3.0414    1.0208   -0.0949 H.spc      1 <1>        0.000
     14 H          -2.8788   -1.4190    0.0065 H.spc      1 <1>        0.000
@<TRIPOS>BOND
     1    8   10 2  
     2    9   10 1  
     3    1    2 2  
     4    2    4 1  
     5    1    3 1  
     6    2    5 1  
     7    3    6 1  
     8    3    7 2  
     9    4    8 1  
    10    4    6 2  
    11    5    9 2  
    12    5   11 1  
    13    8   12 1  
    14    9   13 1  
    15   10   14 1  
# Name:          frag5-553-170/138278 -- energy: -0.606648
# Creation time: Sat Jun  5 12:53:43 2010


@<TRIPOS>MOLECULE
frag5-553-170/138278 -- energy: -0.606648
   14    15     1     1     1
SMALL
USER_CHARGES


@<TRIPOS>ATOM
      1 N2          1.5347    1.2733   -0.1158 N.2        1 <1>        0.000
      2 C12         0.3424    0.7788   -0.0787 C.2        1 <1>        0.000
      3 C13         2.4097    0.1621    0.0363 C.2        1 <1>        0.000
      4 C14         0.4410   -0.7260    0.0903 C.2        1 <1>        0.000
      5 C15        -0.9863    1.4281   -0.1425 C.2        1 <1>        0.000
      6 N3          1.6871   -1.0563    0.1664 N.2        1 <1>        0.000
      7 O1          3.5880    0.2407    0.0484 O.2        1 <1>        0.000
      8 C16        -0.7899   -1.5477    0.1152 C.2        1 <1>        0.000
      9 C17        -2.0437    0.5823   -0.0764 C.2        1 <1>        0.000
     10 C18        -1.9486   -0.8508    0.0164 C.2        1 <1>        0.000
     11 H          -1.1058    2.5075   -0.2358 H.spc      1 <1>        0.000
     12 H          -0.7665   -2.6336    0.2063 H.spc      1 <1>        0.000
     13 H          -3.0414    1.0208   -0.0949 H.spc      1 <1>        0.000
     14 H          -2.8788   -1.4190    0.0065 H.spc      1 <1>        0.000
@<TRIPOS>BOND
     1    8   10 2  
     2    9   10 1  
     3    1    2 2  
     4    2    4 1  
     5    1    3 1  
     6    2    5 1  
     7    3    6 1  
     8    3    7 2  
     9    4    8 1  
    10    4    6 2  
    11    5    9 2  
    12    5   11 1  
    13    8   12 1  
    14    9   13 1  
    15   10   14 1  
