#      Rotatable Fragment
#      Build by yxyuan
#
# Name:          frag4-336-516/150395
# Creation time: Sat Jun  5 12:53:31 2010


@<TRIPOS>MOLECULE
frag4-336-516/150395
   16    16     1     1     1
SMALL
USER_CHARGES


@<TRIPOS>ATOM
      1 C6         -1.0734   -0.2788   -0.0809 C.2        1 <1>        0.000
      2 C7         -1.0625   -1.7738   -0.0089 C.3        1 <1>        0.000
      3 C8         -2.2152    0.4302   -0.0017 C.2        1 <1>        0.000
      4 N3         -2.3288   -2.3567    0.4867 N.4        1 <1>        0.000
      5 C9         -3.5597   -0.2283    0.1373 C.3        1 <1>        0.000
      6 C10        -3.4841   -1.7255   -0.1792 C.3        1 <1>        0.000
      7 H          -0.1288    0.2517   -0.2010 H.spc      1 <1>        0.000
      8 H          -0.2771   -2.0599    0.6907 H.spc      1 <1>        0.000
      9 H          -0.9070   -2.1470   -1.0212 H.spc      1 <1>        0.000
     10 H          -2.1631    1.5183   -0.0396 H.spc      1 <1>        0.000
     11 H          -2.3968   -2.1953    1.4916 H.spc      1 <1>        0.000
     12 H          -2.3350   -3.3563    0.2839 H.spc      1 <1>        0.000
     13 H          -4.2488    0.2398   -0.5656 H.spc      1 <1>        0.000
     14 H          -3.8991   -0.1086    1.1662 H.spc      1 <1>        0.000
     15 H          -4.3955   -2.2027    0.1811 H.spc      1 <1>        0.000
     16 H          -3.3725   -1.8471   -1.2566 H.spc      1 <1>        0.000
@<TRIPOS>BOND
     1    1    2 1  
     2    1    3 2  
     3    2    4 1  
     4    3    5 1  
     5    4    6 1  
     6    5    6 1  
     7    1    7 1  
     8    2    8 1  
     9    2    9 1  
    10    3   10 1  
    11    4   11 1  
    12    4   12 1  
    13    5   13 1  
    14    5   14 1  
    15    6   15 1  
    16    6   16 1  
# Name:          frag4-336-516/150395 -- energy: -0.982442
# Creation time: Sat Jun  5 12:53:31 2010


@<TRIPOS>MOLECULE
frag4-336-516/150395 -- energy: -0.982442
   16    16     1     1     1
SMALL
USER_CHARGES


@<TRIPOS>ATOM
      1 C6         -1.0734   -0.2788   -0.0809 C.2        1 <1>        0.000
      2 C7         -1.0625   -1.7738   -0.0089 C.3        1 <1>        0.000
      3 C8         -2.2152    0.4302   -0.0017 C.2        1 <1>        0.000
      4 N3         -2.3288   -2.3567    0.4867 N.4        1 <1>        0.000
      5 C9         -3.5597   -0.2283    0.1373 C.3        1 <1>        0.000
      6 C10        -3.4841   -1.7255   -0.1792 C.3        1 <1>        0.000
      7 H          -0.1288    0.2517   -0.2010 H.spc      1 <1>        0.000
      8 H          -0.2771   -2.0599    0.6907 H.spc      1 <1>        0.000
      9 H          -0.9070   -2.1470   -1.0212 H.spc      1 <1>        0.000
     10 H          -2.1631    1.5183   -0.0396 H.spc      1 <1>        0.000
     11 H          -2.3968   -2.1953    1.4916 H.spc      1 <1>        0.000
     12 H          -2.3350   -3.3563    0.2839 H.spc      1 <1>        0.000
     13 H          -4.2488    0.2398   -0.5656 H.spc      1 <1>        0.000
     14 H          -3.8991   -0.1086    1.1662 H.spc      1 <1>        0.000
     15 H          -4.3955   -2.2027    0.1811 H.spc      1 <1>        0.000
     16 H          -3.3725   -1.8471   -1.2566 H.spc      1 <1>        0.000
@<TRIPOS>BOND
     1    1    2 1  
     2    1    3 2  
     3    2    4 1  
     4    3    5 1  
     5    4    6 1  
     6    5    6 1  
     7    1    7 1  
     8    2    8 1  
     9    2    9 1  
    10    3   10 1  
    11    4   11 1  
    12    4   12 1  
    13    5   13 1  
    14    5   14 1  
    15    6   15 1  
    16    6   16 1  
