#      Rotatable Fragment
#      Build by yxyuan
#
# Name:          frag5-581-129/138278
# Creation time: Sat Jun  5 12:53:45 2010


@<TRIPOS>MOLECULE
frag5-581-129/138278
   15    15     1     1     1
SMALL
USER_CHARGES


@<TRIPOS>ATOM
      1 C1          0.1184   -0.9691   -0.4744 C.3        1 <1>        0.000
      2 C4          0.0993   -2.4233   -0.0871 C.2        1 <1>        0.000
      3 C5         -1.0701   -0.2447    0.1844 C.3        1 <1>        0.000
      4 N1         -1.0852   -3.0315    0.1713 N.am       1 <1>        0.000
      5 O1          1.1632   -3.0273   -0.0169 O.2        1 <1>        0.000
      6 C10        -2.3710   -0.9558   -0.2351 C.3        1 <1>        0.000
      7 C15        -2.2441   -2.4568   -0.2360 C.2        1 <1>        0.000
      8 O2         -3.2006   -3.1265   -0.6081 O.2        1 <1>        0.000
      9 H           0.0410   -0.8814   -1.5581 H.spc      1 <1>        0.000
     10 H           1.0509   -0.5163   -0.1375 H.spc      1 <1>        0.000
     11 H          -1.0953    0.7965   -0.1372 H.spc      1 <1>        0.000
     12 H          -0.9658   -0.2701    1.2691 H.spc      1 <1>        0.000
     13 H          -1.1043   -3.9202    0.6715 H.spc      1 <1>        0.000
     14 H          -2.6098   -0.6412   -1.2510 H.spc      1 <1>        0.000
     15 H          -3.1443   -0.6874    0.4847 H.spc      1 <1>        0.000
@<TRIPOS>BOND
     1    7    8 2  
     2    1    2 1  
     3    1    3 1  
     4    2    4 am 
     5    2    5 2  
     6    3    6 1  
     7    4    7 am 
     8    6    7 1  
     9    1    9 1  
    10    1   10 1  
    11    3   11 1  
    12    3   12 1  
    13    4   13 1  
    14    6   14 1  
    15    6   15 1  
# Name:          frag5-581-129/138278 -- energy: -0.969442
# Creation time: Sat Jun  5 12:53:45 2010


@<TRIPOS>MOLECULE
frag5-581-129/138278 -- energy: -0.969442
   15    15     1     1     1
SMALL
USER_CHARGES


@<TRIPOS>ATOM
      1 C1          0.1184   -0.9691   -0.4744 C.3        1 <1>        0.000
      2 C4          0.0993   -2.4233   -0.0871 C.2        1 <1>        0.000
      3 C5         -1.0701   -0.2447    0.1844 C.3        1 <1>        0.000
      4 N1         -1.0852   -3.0315    0.1713 N.am       1 <1>        0.000
      5 O1          1.1632   -3.0273   -0.0169 O.2        1 <1>        0.000
      6 C10        -2.3710   -0.9558   -0.2351 C.3        1 <1>        0.000
      7 C15        -2.2441   -2.4568   -0.2360 C.2        1 <1>        0.000
      8 O2         -3.2006   -3.1265   -0.6081 O.2        1 <1>        0.000
      9 H           0.0410   -0.8814   -1.5581 H.spc      1 <1>        0.000
     10 H           1.0509   -0.5163   -0.1375 H.spc      1 <1>        0.000
     11 H          -1.0953    0.7965   -0.1372 H.spc      1 <1>        0.000
     12 H          -0.9658   -0.2701    1.2691 H.spc      1 <1>        0.000
     13 H          -1.1043   -3.9202    0.6715 H.spc      1 <1>        0.000
     14 H          -2.6098   -0.6412   -1.2510 H.spc      1 <1>        0.000
     15 H          -3.1443   -0.6874    0.4847 H.spc      1 <1>        0.000
@<TRIPOS>BOND
     1    7    8 2  
     2    1    2 1  
     3    1    3 1  
     4    2    4 am 
     5    2    5 2  
     6    3    6 1  
     7    4    7 am 
     8    6    7 1  
     9    1    9 1  
    10    1   10 1  
    11    3   11 1  
    12    3   12 1  
    13    4   13 1  
    14    6   14 1  
    15    6   15 1  
