#      Rotatable Fragment
#      Build by yxyuan
#
# Name:          frag5-623-88/138278
# Creation time: Sat Jun  5 12:53:48 2010


@<TRIPOS>MOLECULE
frag5-623-88/138278
   26    27     1     1     1
SMALL
USER_CHARGES


@<TRIPOS>ATOM
      1 N1          3.4450    0.0451   -0.1895 N.am       1 <1>        0.000
      2 C1          2.1043   -0.2214    0.2720 C.3        1 <1>        0.000
      3 C2          4.0269   -1.1851   -0.6103 C.3        1 <1>        0.000
      4 C3          4.0923    1.2485   -0.1455 C.2        1 <1>        0.000
      5 C4          1.9175   -1.7615    0.3577 C.3        1 <1>        0.000
      6 C5          1.0123    0.4936   -0.5343 C.3        1 <1>        0.000
      7 C6          3.3043   -2.3032    0.0799 C.3        1 <1>        0.000
      8 O1          3.8802    2.2675    0.5212 O.2        1 <1>        0.000
      9 C9          0.8255   -2.3364   -0.5274 C.3        1 <1>        0.000
     10 C10         0.6083   -0.1774   -1.8344 C.3        1 <1>        0.000
     11 C12         0.7117   -1.6875   -1.8728 C.3        1 <1>        0.000
     12 H           1.9818    0.2071    1.2667 H.spc      1 <1>        0.000
     13 H           3.9385   -1.2918   -1.6915 H.spc      1 <1>        0.000
     14 H           5.0858   -1.2070   -0.3528 H.spc      1 <1>        0.000
     15 H           4.9472    1.3225   -0.8177 H.spc      1 <1>        0.000
     16 H           1.5407   -2.0647    1.3345 H.spc      1 <1>        0.000
     17 H           1.4162    1.4696   -0.8032 H.spc      1 <1>        0.000
     18 H           0.1227    0.5074    0.0954 H.spc      1 <1>        0.000
     19 H           3.8106   -2.6063    0.9964 H.spc      1 <1>        0.000
     20 H           3.2709   -3.2027   -0.5348 H.spc      1 <1>        0.000
     21 H          -0.1215   -2.1731   -0.0130 H.spc      1 <1>        0.000
     22 H           1.0715   -3.3845   -0.6981 H.spc      1 <1>        0.000
     23 H          -0.4458    0.0577   -1.9817 H.spc      1 <1>        0.000
     24 H           1.2978    0.1927   -2.5931 H.spc      1 <1>        0.000
     25 H           1.6208   -1.9313   -2.4226 H.spc      1 <1>        0.000
     26 H          -0.2057   -2.0587   -2.3296 H.spc      1 <1>        0.000
@<TRIPOS>BOND
     1    2    5 1  
     2    4    8 2  
     3    1    2 1  
     4   10   11 1  
     5    3    7 1  
     6    1    3 1  
     7    5    7 1  
     8    2    6 1  
     9    1    4 am 
    10    5    9 1  
    11    6   10 1  
    12    9   11 1  
    13    2   12 1  
    14    3   13 1  
    15    3   14 1  
    16    4   15 1  
    17    5   16 1  
    18    6   17 1  
    19    6   18 1  
    20    7   19 1  
    21    7   20 1  
    22    9   21 1  
    23    9   22 1  
    24   10   23 1  
    25   10   24 1  
    26   11   25 1  
    27   11   26 1  
# Name:          frag5-623-88/138278
# Creation time: Sat Jun  5 12:53:48 2010


@<TRIPOS>MOLECULE
frag5-623-88/138278
   26    27     1     1     1
SMALL
USER_CHARGES


@<TRIPOS>ATOM
      1 N1          3.3938    0.2232   -0.0186 N.am       1 <1>        0.000
      2 C1          2.0020   -0.1981   -0.1617 C.3        1 <1>        0.000
      3 C2          4.2324   -0.9310   -0.1630 C.3        1 <1>        0.000
      4 C3          3.7994    1.4732    0.3890 C.2        1 <1>        0.000
      5 C4          1.9711   -1.7191    0.0120 C.3        1 <1>        0.000
      6 C5          1.2014    0.2990   -1.3611 C.3        1 <1>        0.000
      7 C6          3.4148   -2.1010    0.2960 C.3        1 <1>        0.000
      8 O1          4.8791    2.0220    0.5353 O.2        1 <1>        0.000
      9 C9          1.2645   -2.4520   -1.0888 C.3        1 <1>        0.000
     10 C10        -0.1503   -0.3570   -1.4548 C.3        1 <1>        0.000
     11 C12        -0.0800   -1.8768   -1.4678 C.3        1 <1>        0.000
     12 H           1.4470    0.3183    0.6215 H.spc      1 <1>        0.000
     13 H           4.5535   -1.0570   -1.1970 H.spc      1 <1>        0.000
     14 H           5.1432   -0.8318    0.4276 H.spc      1 <1>        0.000
     15 H           2.9617    2.1241    0.6392 H.spc      1 <1>        0.000
     16 H           1.3433   -2.0380    0.8440 H.spc      1 <1>        0.000
     17 H           1.7595    0.0559   -2.2653 H.spc      1 <1>        0.000
     18 H           1.0500    1.3723   -1.2461 H.spc      1 <1>        0.000
     19 H           3.5733   -2.3103    1.3539 H.spc      1 <1>        0.000
     20 H           3.6971   -3.0161   -0.2246 H.spc      1 <1>        0.000
     21 H           1.0866   -3.4664   -0.7317 H.spc      1 <1>        0.000
     22 H           1.8988   -2.3855   -1.9727 H.spc      1 <1>        0.000
     23 H          -0.7227   -0.0605   -0.5759 H.spc      1 <1>        0.000
     24 H          -0.6070   -0.0396   -2.3923 H.spc      1 <1>        0.000
     25 H          -0.2831   -2.1943   -2.4906 H.spc      1 <1>        0.000
     26 H          -0.7966   -2.2331   -0.7278 H.spc      1 <1>        0.000
@<TRIPOS>BOND
     1    2    5 1  
     2    4    8 2  
     3    1    2 1  
     4   10   11 1  
     5    3    7 1  
     6    1    3 1  
     7    5    7 1  
     8    2    6 1  
     9    1    4 am 
    10    5    9 1  
    11    6   10 1  
    12    9   11 1  
    13    2   12 1  
    14    3   13 1  
    15    3   14 1  
    16    4   15 1  
    17    5   16 1  
    18    6   17 1  
    19    6   18 1  
    20    7   19 1  
    21    7   20 1  
    22    9   21 1  
    23    9   22 1  
    24   10   23 1  
    25   10   24 1  
    26   11   25 1  
    27   11   26 1  
# Name:          frag5-623-88/138278 -- energy: -4.167465
# Creation time: Sat Jun  5 12:53:48 2010


@<TRIPOS>MOLECULE
frag5-623-88/138278 -- energy: -4.167465
   26    27     1     1     1
SMALL
USER_CHARGES


@<TRIPOS>ATOM
      1 N1          3.4450    0.0451   -0.1895 N.am       1 <1>        0.000
      2 C1          2.1043   -0.2214    0.2720 C.3        1 <1>        0.000
      3 C2          4.0269   -1.1851   -0.6103 C.3        1 <1>        0.000
      4 C3          4.0923    1.2485   -0.1455 C.2        1 <1>        0.000
      5 C4          1.9175   -1.7615    0.3577 C.3        1 <1>        0.000
      6 C5          1.0123    0.4936   -0.5343 C.3        1 <1>        0.000
      7 C6          3.3043   -2.3032    0.0799 C.3        1 <1>        0.000
      8 O1          3.8802    2.2675    0.5212 O.2        1 <1>        0.000
      9 C9          0.8255   -2.3364   -0.5274 C.3        1 <1>        0.000
     10 C10         0.6083   -0.1774   -1.8344 C.3        1 <1>        0.000
     11 C12         0.7117   -1.6875   -1.8728 C.3        1 <1>        0.000
     12 H           1.9818    0.2071    1.2667 H.spc      1 <1>        0.000
     13 H           3.9385   -1.2918   -1.6915 H.spc      1 <1>        0.000
     14 H           5.0858   -1.2070   -0.3528 H.spc      1 <1>        0.000
     15 H           4.9472    1.3225   -0.8177 H.spc      1 <1>        0.000
     16 H           1.5407   -2.0647    1.3345 H.spc      1 <1>        0.000
     17 H           1.4162    1.4696   -0.8032 H.spc      1 <1>        0.000
     18 H           0.1227    0.5074    0.0954 H.spc      1 <1>        0.000
     19 H           3.8106   -2.6063    0.9964 H.spc      1 <1>        0.000
     20 H           3.2709   -3.2027   -0.5348 H.spc      1 <1>        0.000
     21 H          -0.1215   -2.1731   -0.0130 H.spc      1 <1>        0.000
     22 H           1.0715   -3.3845   -0.6981 H.spc      1 <1>        0.000
     23 H          -0.4458    0.0577   -1.9817 H.spc      1 <1>        0.000
     24 H           1.2978    0.1927   -2.5931 H.spc      1 <1>        0.000
     25 H           1.6208   -1.9313   -2.4226 H.spc      1 <1>        0.000
     26 H          -0.2057   -2.0587   -2.3296 H.spc      1 <1>        0.000
@<TRIPOS>BOND
     1    2    5 1  
     2    4    8 2  
     3    1    2 1  
     4   10   11 1  
     5    3    7 1  
     6    1    3 1  
     7    5    7 1  
     8    2    6 1  
     9    1    4 am 
    10    5    9 1  
    11    6   10 1  
    12    9   11 1  
    13    2   12 1  
    14    3   13 1  
    15    3   14 1  
    16    4   15 1  
    17    5   16 1  
    18    6   17 1  
    19    6   18 1  
    20    7   19 1  
    21    7   20 1  
    22    9   21 1  
    23    9   22 1  
    24   10   23 1  
    25   10   24 1  
    26   11   25 1  
    27   11   26 1  
# Name:          frag5-623-88/138278 -- energy: -3.550879
# Creation time: Sat Jun  5 12:53:48 2010


@<TRIPOS>MOLECULE
frag5-623-88/138278 -- energy: -3.550879
   26    27     1     1     1
SMALL
USER_CHARGES


@<TRIPOS>ATOM
      1 N1          3.3938    0.2232   -0.0186 N.am       1 <1>        0.000
      2 C1          2.0020   -0.1981   -0.1617 C.3        1 <1>        0.000
      3 C2          4.2324   -0.9310   -0.1630 C.3        1 <1>        0.000
      4 C3          3.7994    1.4732    0.3890 C.2        1 <1>        0.000
      5 C4          1.9711   -1.7191    0.0120 C.3        1 <1>        0.000
      6 C5          1.2014    0.2990   -1.3611 C.3        1 <1>        0.000
      7 C6          3.4148   -2.1010    0.2960 C.3        1 <1>        0.000
      8 O1          4.8791    2.0220    0.5353 O.2        1 <1>        0.000
      9 C9          1.2645   -2.4520   -1.0888 C.3        1 <1>        0.000
     10 C10        -0.1503   -0.3570   -1.4548 C.3        1 <1>        0.000
     11 C12        -0.0800   -1.8768   -1.4678 C.3        1 <1>        0.000
     12 H           1.4470    0.3183    0.6215 H.spc      1 <1>        0.000
     13 H           4.5535   -1.0570   -1.1970 H.spc      1 <1>        0.000
     14 H           5.1432   -0.8318    0.4276 H.spc      1 <1>        0.000
     15 H           2.9617    2.1241    0.6392 H.spc      1 <1>        0.000
     16 H           1.3433   -2.0380    0.8440 H.spc      1 <1>        0.000
     17 H           1.7595    0.0559   -2.2653 H.spc      1 <1>        0.000
     18 H           1.0500    1.3723   -1.2461 H.spc      1 <1>        0.000
     19 H           3.5733   -2.3103    1.3539 H.spc      1 <1>        0.000
     20 H           3.6971   -3.0161   -0.2246 H.spc      1 <1>        0.000
     21 H           1.0866   -3.4664   -0.7317 H.spc      1 <1>        0.000
     22 H           1.8988   -2.3855   -1.9727 H.spc      1 <1>        0.000
     23 H          -0.7227   -0.0605   -0.5759 H.spc      1 <1>        0.000
     24 H          -0.6070   -0.0396   -2.3923 H.spc      1 <1>        0.000
     25 H          -0.2831   -2.1943   -2.4906 H.spc      1 <1>        0.000
     26 H          -0.7966   -2.2331   -0.7278 H.spc      1 <1>        0.000
@<TRIPOS>BOND
     1    2    5 1  
     2    4    8 2  
     3    1    2 1  
     4   10   11 1  
     5    3    7 1  
     6    1    3 1  
     7    5    7 1  
     8    2    6 1  
     9    1    4 am 
    10    5    9 1  
    11    6   10 1  
    12    9   11 1  
    13    2   12 1  
    14    3   13 1  
    15    3   14 1  
    16    4   15 1  
    17    5   16 1  
    18    6   17 1  
    19    6   18 1  
    20    7   19 1  
    21    7   20 1  
    22    9   21 1  
    23    9   22 1  
    24   10   23 1  
    25   10   24 1  
    26   11   25 1  
    27   11   26 1  
