#      Rotatable Fragment
#      Build by yxyuan
#
# Name:          frag5-566-150/138278
# Creation time: Sat Jun  5 12:53:44 2010


@<TRIPOS>MOLECULE
frag5-566-150/138278
   13    13     1     1     1
SMALL
USER_CHARGES


@<TRIPOS>ATOM
      1 O2          1.0283   -1.4157    0.5332 O.3        1 <1>        0.000
      2 C15         2.1434   -0.6465    0.2226 C.ar       1 <1>        0.000
      3 C16         3.3879   -1.2677    0.0568 C.ar       1 <1>        0.000
      4 C17         2.0572    0.7460    0.0667 C.ar       1 <1>        0.000
      5 C18         4.5266   -0.5175   -0.2291 C.ar       1 <1>        0.000
      6 C19         3.1957    1.4973   -0.2187 C.ar       1 <1>        0.000
      7 C20         4.4410    0.8734   -0.3621 C.ar       1 <1>        0.000
      8 Cl2         5.8693    1.8184   -0.7023 Cl         1 <1>        0.000
      9 H           0.2599   -0.8458    0.6128 H.spc      1 <1>        0.000
     10 H           3.4664   -2.3506    0.1526 H.spc      1 <1>        0.000
     11 H           1.0927    1.2432    0.1696 H.spc      1 <1>        0.000
     12 H           5.4885   -1.0159   -0.3498 H.spc      1 <1>        0.000
     13 H           3.1162    2.5786   -0.3311 H.spc      1 <1>        0.000
@<TRIPOS>BOND
     1    1    2 1  
     2    2    3 ar 
     3    3    5 ar 
     4    2    4 ar 
     5    4    6 ar 
     6    5    7 ar 
     7    6    7 ar 
     8    7    8 1  
     9    1    9 1  
    10    3   10 1  
    11    4   11 1  
    12    5   12 1  
    13    6   13 1  
# Name:          frag5-566-150/138278 -- energy: -0.237375
# Creation time: Sat Jun  5 12:53:44 2010


@<TRIPOS>MOLECULE
frag5-566-150/138278 -- energy: -0.237375
   13    13     1     1     1
SMALL
USER_CHARGES


@<TRIPOS>ATOM
      1 O2          1.0283   -1.4157    0.5332 O.3        1 <1>        0.000
      2 C15         2.1434   -0.6465    0.2226 C.ar       1 <1>        0.000
      3 C16         3.3879   -1.2677    0.0568 C.ar       1 <1>        0.000
      4 C17         2.0572    0.7460    0.0667 C.ar       1 <1>        0.000
      5 C18         4.5266   -0.5175   -0.2291 C.ar       1 <1>        0.000
      6 C19         3.1957    1.4973   -0.2187 C.ar       1 <1>        0.000
      7 C20         4.4410    0.8734   -0.3621 C.ar       1 <1>        0.000
      8 Cl2         5.8693    1.8184   -0.7023 Cl         1 <1>        0.000
      9 H           0.2599   -0.8458    0.6128 H.spc      1 <1>        0.000
     10 H           3.4664   -2.3506    0.1526 H.spc      1 <1>        0.000
     11 H           1.0927    1.2432    0.1696 H.spc      1 <1>        0.000
     12 H           5.4885   -1.0159   -0.3498 H.spc      1 <1>        0.000
     13 H           3.1162    2.5786   -0.3311 H.spc      1 <1>        0.000
@<TRIPOS>BOND
     1    1    2 1  
     2    2    3 ar 
     3    3    5 ar 
     4    2    4 ar 
     5    4    6 ar 
     6    5    7 ar 
     7    6    7 ar 
     8    7    8 1  
     9    1    9 1  
    10    3   10 1  
    11    4   11 1  
    12    5   12 1  
    13    6   13 1  
