#      Rotatable Fragment
#      Build by yxyuan
#
# Name:          frag3-190-9/96164
# Creation time: Sat Jun  5 12:53:09 2010


@<TRIPOS>MOLECULE
frag3-190-9/96164
    8     7     1     1     1
SMALL
USER_CHARGES


@<TRIPOS>ATOM
      1 C9         -0.2145    0.3393    0.1309 C.2        1 <1>        0.000
      2 N1          0.7703   -0.4552    0.0695 N.2        1 <1>        0.000
      3 N2         -1.5117    0.0292    0.1292 N.pl3      1 <1>        0.000
      4 O1          2.0278    0.0592   -0.0312 O.3        1 <1>        0.000
      5 H           0.0265    1.4006    0.1923 H.spc      1 <1>        0.000
      6 H          -1.8027   -0.9468    0.0736 H.spc      1 <1>        0.000
      7 H          -2.2128    0.7681    0.1835 H.spc      1 <1>        0.000
      8 H           2.6640   -0.6588   -0.0679 H.spc      1 <1>        0.000
@<TRIPOS>BOND
     1    1    2 2  
     2    1    3 1  
     3    2    4 1  
     4    1    5 1  
     5    3    6 1  
     6    3    7 1  
     7    4    8 1  
# Name:          frag3-190-9/96164 -- energy: -0.187412
# Creation time: Sat Jun  5 12:53:09 2010


@<TRIPOS>MOLECULE
frag3-190-9/96164 -- energy: -0.187412
    8     7     1     1     1
SMALL
USER_CHARGES


@<TRIPOS>ATOM
      1 C9         -0.2145    0.3393    0.1309 C.2        1 <1>        0.000
      2 N1          0.7703   -0.4552    0.0695 N.2        1 <1>        0.000
      3 N2         -1.5117    0.0292    0.1292 N.pl3      1 <1>        0.000
      4 O1          2.0278    0.0592   -0.0312 O.3        1 <1>        0.000
      5 H           0.0265    1.4006    0.1923 H.spc      1 <1>        0.000
      6 H          -1.8027   -0.9468    0.0736 H.spc      1 <1>        0.000
      7 H          -2.2128    0.7681    0.1835 H.spc      1 <1>        0.000
      8 H           2.6640   -0.6588   -0.0679 H.spc      1 <1>        0.000
@<TRIPOS>BOND
     1    1    2 2  
     2    1    3 1  
     3    2    4 1  
     4    1    5 1  
     5    3    6 1  
     6    3    7 1  
     7    4    8 1  
