#      Rotatable Fragment
#      Build by yxyuan
#
# Name:          frag2-073-6/319335
# Creation time: Sat Jun  5 12:51:57 2010


@<TRIPOS>MOLECULE
frag2-073-6/319335
   16    17     1     1     1
SMALL
USER_CHARGES


@<TRIPOS>ATOM
      1 C18         0.6181   -1.6697   -0.4850 C.ar       1 <1>        0.000
      2 C19        -0.2657   -0.6317   -0.1731 C.ar       1 <1>        0.000
      3 N4          1.9537   -1.4764   -0.4591 N.ar       1 <1>        0.000
      4 C20         0.2655    0.6301    0.1715 C.ar       1 <1>        0.000
      5 C21        -1.6517   -0.7859   -0.1862 C.ar       1 <1>        0.000
      6 C22         2.4811   -0.2746   -0.1306 C.ar       1 <1>        0.000
      7 C23         1.6526    0.7869    0.1872 C.ar       1 <1>        0.000
      8 C24        -0.6198    1.6670    0.4824 C.ar       1 <1>        0.000
      9 C25        -2.4793    0.2767    0.1324 C.ar       1 <1>        0.000
     10 N5         -1.9518    1.4739    0.4576 N.ar       1 <1>        0.000
     11 H           0.2225   -2.6494   -0.7530 H.spc      1 <1>        0.000
     12 H          -2.0863   -1.7503   -0.4493 H.spc      1 <1>        0.000
     13 H           3.5629   -0.1421   -0.1163 H.spc      1 <1>        0.000
     14 H           2.0856    1.7517    0.4515 H.spc      1 <1>        0.000
     15 H          -0.2250    2.6473    0.7491 H.spc      1 <1>        0.000
     16 H          -3.5613    0.1451    0.1203 H.spc      1 <1>        0.000
@<TRIPOS>BOND
     1    9   10 ar 
     2    8   10 ar 
     3    1    2 ar 
     4    2    4 ar 
     5    1    3 ar 
     6    2    5 ar 
     7    3    6 ar 
     8    4    7 ar 
     9    4    8 ar 
    10    5    9 ar 
    11    6    7 ar 
    12    1   11 1  
    13    5   12 1  
    14    6   13 1  
    15    7   14 1  
    16    8   15 1  
    17    9   16 1  
# Name:          frag2-073-6/319335 -- energy: 0.032279
# Creation time: Sat Jun  5 12:51:57 2010


@<TRIPOS>MOLECULE
frag2-073-6/319335 -- energy: 0.032279
   16    17     1     1     1
SMALL
USER_CHARGES


@<TRIPOS>ATOM
      1 C18         0.6181   -1.6697   -0.4850 C.ar       1 <1>        0.000
      2 C19        -0.2657   -0.6317   -0.1731 C.ar       1 <1>        0.000
      3 N4          1.9537   -1.4764   -0.4591 N.ar       1 <1>        0.000
      4 C20         0.2655    0.6301    0.1715 C.ar       1 <1>        0.000
      5 C21        -1.6517   -0.7859   -0.1862 C.ar       1 <1>        0.000
      6 C22         2.4811   -0.2746   -0.1306 C.ar       1 <1>        0.000
      7 C23         1.6526    0.7869    0.1872 C.ar       1 <1>        0.000
      8 C24        -0.6198    1.6670    0.4824 C.ar       1 <1>        0.000
      9 C25        -2.4793    0.2767    0.1324 C.ar       1 <1>        0.000
     10 N5         -1.9518    1.4739    0.4576 N.ar       1 <1>        0.000
     11 H           0.2225   -2.6494   -0.7530 H.spc      1 <1>        0.000
     12 H          -2.0863   -1.7503   -0.4493 H.spc      1 <1>        0.000
     13 H           3.5629   -0.1421   -0.1163 H.spc      1 <1>        0.000
     14 H           2.0856    1.7517    0.4515 H.spc      1 <1>        0.000
     15 H          -0.2250    2.6473    0.7491 H.spc      1 <1>        0.000
     16 H          -3.5613    0.1451    0.1203 H.spc      1 <1>        0.000
@<TRIPOS>BOND
     1    9   10 ar 
     2    8   10 ar 
     3    1    2 ar 
     4    2    4 ar 
     5    1    3 ar 
     6    2    5 ar 
     7    3    6 ar 
     8    4    7 ar 
     9    4    8 ar 
    10    5    9 ar 
    11    6    7 ar 
    12    1   11 1  
    13    5   12 1  
    14    6   13 1  
    15    7   14 1  
    16    8   15 1  
    17    9   16 1  
