#      Rotatable Fragment
#      Build by yxyuan
#
# Name:          frag5-574-139/138278
# Creation time: Sat Jun  5 12:53:44 2010


@<TRIPOS>MOLECULE
frag5-574-139/138278
   65    67     1     1     1
SMALL
USER_CHARGES


@<TRIPOS>ATOM
      1 N1         -6.2278    1.4102    0.6139 N.am       1 <1>        0.000
      2 C1         -5.8094    2.7810    0.8789 C.3        1 <1>        0.000
      3 C2         -5.3404    0.3716    0.5465 C.2        1 <1>        0.000
      4 C3         -7.6754    1.3894    0.6093 C.3        1 <1>        0.000
      5 C4         -7.0144    3.5355    1.4799 C.3        1 <1>        0.000
      6 C5         -4.6285    2.7843    1.9308 C.2        1 <1>        0.000
      7 C6         -5.6439   -0.8229    1.5213 C.3        1 <1>        0.000
      8 O1         -4.3315    0.4527   -0.1692 O.2        1 <1>        0.000
      9 C11        -4.0761   -2.6967    1.1843 C.2        1 <1>        0.000
     10 C7         -8.2116    2.6053    1.3280 C.3        1 <1>        0.000
     11 N2         -3.9020    3.9580    2.0386 N.am       1 <1>        0.000
     12 O3         -4.4256    1.8174    2.6879 O.2        1 <1>        0.000
     13 N3         -4.4189   -1.5321    1.7847 N.am       1 <1>        0.000
     14 C10        -2.9631    4.1892    3.0978 C.3        1 <1>        0.000
     15 O12        -2.2984   -0.1138    3.1901 O.2        1 <1>        0.000
     16 N8         -0.0799   -1.6606   -0.3649 N.am       1 <1>        0.000
     17 C25         0.8662   -3.8603   -0.0770 C.3        1 <1>        0.000
     18 C13        -1.4688    4.2533    2.8610 C.3        1 <1>        0.000
     19 C14        -2.6057   -3.1440    1.1536 C.3        1 <1>        0.000
     20 O6         -4.9336   -3.3938    0.6214 O.2        1 <1>        0.000
     21 C16        -0.7044    3.0586    2.3257 C.3        1 <1>        0.000
     22 N4         -2.3956   -3.6751   -0.1777 N.am       1 <1>        0.000
     23 C18        -0.7794    1.7207    3.0363 C.3        1 <1>        0.000
     24 C19        -1.4237   -3.7019   -1.1135 C.2        1 <1>        0.000
     25 C21        -1.6424    0.6265    2.4397 C.2        1 <1>        0.000
     26 C22        -0.0518   -3.0157   -0.9436 C.3        1 <1>        0.000
     27 O10        -1.5951   -4.4368   -2.1062 O.2        1 <1>        0.000
     28 N7         -1.7194    0.3835    1.1172 N.am       1 <1>        0.000
     29 C28        -0.8930    0.6859   -0.0357 C.3        1 <1>        0.000
     30 C30        -0.8072   -0.6132   -0.8481 C.2        1 <1>        0.000
     31 C31         1.0093   -1.5826    0.5990 C.3        1 <1>        0.000
     32 C32         1.8069   -2.8620    0.5489 C.3        1 <1>        0.000
     33 O14        -1.4220   -0.6956   -1.9148 O.2        1 <1>        0.000
     34 H          -5.4706    3.2555   -0.0421 H.spc      1 <1>        0.000
     35 H          -8.0310    1.3959   -0.4211 H.spc      1 <1>        0.000
     36 H          -8.0228    0.4900    1.1177 H.spc      1 <1>        0.000
     37 H          -6.8405    3.7870    2.5261 H.spc      1 <1>        0.000
     38 H          -7.1828    4.4823    0.9667 H.spc      1 <1>        0.000
     39 H          -6.0568   -0.4410    2.4550 H.spc      1 <1>        0.000
     40 H          -6.3689   -1.4965    1.0644 H.spc      1 <1>        0.000
     41 H          -9.0216    3.0778    0.7723 H.spc      1 <1>        0.000
     42 H          -8.6449    2.3446    2.2936 H.spc      1 <1>        0.000
     43 H          -4.0398    4.6862    1.3378 H.spc      1 <1>        0.000
     44 H          -3.7706   -1.1337    2.4640 H.spc      1 <1>        0.000
     45 H          -3.2081    5.1958    3.4367 H.spc      1 <1>        0.000
     46 H          -3.0801    3.3122    3.7344 H.spc      1 <1>        0.000
     47 H           1.3957   -4.6175   -0.6553 H.spc      1 <1>        0.000
     48 H           0.3154   -4.4310    0.6707 H.spc      1 <1>        0.000
     49 H          -1.0522    4.4061    3.8566 H.spc      1 <1>        0.000
     50 H          -1.3594    5.0056    2.0799 H.spc      1 <1>        0.000
     51 H          -2.3971   -3.8898    1.9207 H.spc      1 <1>        0.000
     52 H          -1.9298   -2.3158    1.3665 H.spc      1 <1>        0.000
     53 H           0.3429    3.3494    2.4077 H.spc      1 <1>        0.000
     54 H          -1.1482    2.8702    1.3481 H.spc      1 <1>        0.000
     55 H          -3.2237   -4.1743   -0.5024 H.spc      1 <1>        0.000
     56 H          -1.2289    1.9394    4.0049 H.spc      1 <1>        0.000
     57 H           0.2367    1.3273    3.0073 H.spc      1 <1>        0.000
     58 H           0.3122   -2.9183   -1.9664 H.spc      1 <1>        0.000
     59 H          -2.5596   -0.1377    0.8666 H.spc      1 <1>        0.000
     60 H          -1.3225    1.4939   -0.6279 H.spc      1 <1>        0.000
     61 H           0.0967    1.0279    0.2671 H.spc      1 <1>        0.000
     62 H           1.6547   -0.7388    0.3548 H.spc      1 <1>        0.000
     63 H           0.6026   -1.4435    1.6007 H.spc      1 <1>        0.000
     64 H           2.1422   -3.1765    1.5372 H.spc      1 <1>        0.000
     65 H           2.7280   -2.7502   -0.0231 H.spc      1 <1>        0.000
@<TRIPOS>BOND
     1   29   30 1  
     2   30   33 2  
     3   31   32 1  
     4   14   18 1  
     5   13    9 am 
     6   11   14 1  
     7    6   12 2  
     8    7   13 1  
     9    6   11 am 
    10    5   10 1  
    11    4   10 1  
    12    3    8 2  
    13    3    7 1  
    14    2    6 1  
    15    2    5 1  
    16    1    2 1  
    17    1    3 am 
    18    1    4 1  
    19    9   19 1  
    20    9   20 2  
    21   18   21 1  
    22   19   22 1  
    23   21   23 1  
    24   22   24 am 
    25   23   25 1  
    26   24   26 1  
    27   24   27 2  
    28   25   28 am 
    29   25   15 2  
    30   26   16 1  
    31   26   17 1  
    32   28   29 1  
    33   16   30 am 
    34   16   31 1  
    35   17   32 1  
    36    2   34 1  
    37    4   35 1  
    38    4   36 1  
    39    5   37 1  
    40    5   38 1  
    41    7   39 1  
    42    7   40 1  
    43   10   41 1  
    44   10   42 1  
    45   11   43 1  
    46   13   44 1  
    47   14   45 1  
    48   14   46 1  
    49   17   47 1  
    50   17   48 1  
    51   18   49 1  
    52   18   50 1  
    53   19   51 1  
    54   19   52 1  
    55   21   53 1  
    56   21   54 1  
    57   22   55 1  
    58   23   56 1  
    59   23   57 1  
    60   26   58 1  
    61   28   59 1  
    62   29   60 1  
    63   29   61 1  
    64   31   62 1  
    65   31   63 1  
    66   32   64 1  
    67   32   65 1  
# Name:          frag5-574-139/138278
# Creation time: Sat Jun  5 12:53:44 2010


@<TRIPOS>MOLECULE
frag5-574-139/138278
   65    67     1     1     1
SMALL
USER_CHARGES


@<TRIPOS>ATOM
      1 N1         -5.8995   -0.1927    2.0039 N.am       1 <1>        0.000
      2 C1         -4.8538    0.7215    2.4624 C.3        1 <1>        0.000
      3 C2         -7.0091    0.0825    1.2604 C.2        1 <1>        0.000
      4 C3         -5.6940   -1.4177    2.7233 C.3        1 <1>        0.000
      5 C4         -3.6514   -0.1706    2.7276 C.3        1 <1>        0.000
      6 C5         -4.4821    1.9018    1.5330 C.2        1 <1>        0.000
      7 C6         -6.9093   -0.0627   -0.2745 C.3        1 <1>        0.000
      8 O1         -8.0664    0.4326    1.7992 O.2        1 <1>        0.000
      9 C11        -5.5024   -1.6600   -1.6204 C.2        1 <1>        0.000
     10 C7         -4.2240   -1.5412    3.0059 C.3        1 <1>        0.000
     11 N2         -3.7254    2.9141    2.0832 N.am       1 <1>        0.000
     12 O3         -4.8361    1.9139    0.3445 O.2        1 <1>        0.000
     13 N3         -5.6392   -0.6792   -0.6806 N.am       1 <1>        0.000
     14 C10        -3.2410    4.0715    1.3895 C.3        1 <1>        0.000
     15 O12        -0.5572    2.4372    3.2951 O.2        1 <1>        0.000
     16 N8         -0.1883   -2.0021    1.0589 N.am       1 <1>        0.000
     17 C25        -1.4460   -4.0604    0.9909 C.3        1 <1>        0.000
     18 C13        -2.2617    3.8717    0.2506 C.3        1 <1>        0.000
     19 C14        -4.1060   -2.1652   -1.9906 C.3        1 <1>        0.000
     20 O6         -6.4784   -2.1322   -2.2217 O.2        1 <1>        0.000
     21 C16        -0.8379    4.3618    0.4059 C.3        1 <1>        0.000
     22 N4         -3.2733   -2.5903   -0.8664 N.am       1 <1>        0.000
     23 C18        -0.0161    4.0181    1.6226 C.3        1 <1>        0.000
     24 C19        -2.0035   -2.0955   -0.6677 C.2        1 <1>        0.000
     25 C21        -0.0889    2.6094    2.1586 C.2        1 <1>        0.000
     26 C22        -0.9301   -2.8853    0.1555 C.3        1 <1>        0.000
     27 O10        -1.6835   -1.0242   -1.2067 O.2        1 <1>        0.000
     28 N7          0.3818    1.5837    1.3814 N.am       1 <1>        0.000
     29 C28         0.5623    0.2243    1.8979 C.3        1 <1>        0.000
     30 C30         0.4103   -0.8041    0.7533 C.2        1 <1>        0.000
     31 C31         0.1869   -2.8117    2.2114 C.3        1 <1>        0.000
     32 C32        -0.5846   -4.1067    2.2318 C.3        1 <1>        0.000
     33 O14         0.8413   -0.5261   -0.3739 O.2        1 <1>        0.000
     34 H          -5.2278    1.2529    3.3376 H.spc      1 <1>        0.000
     35 H          -6.2597   -1.4095    3.6550 H.spc      1 <1>        0.000
     36 H          -6.0390   -2.2665    2.1328 H.spc      1 <1>        0.000
     37 H          -2.9689   -0.1864    1.8779 H.spc      1 <1>        0.000
     38 H          -3.0590    0.1942    3.5667 H.spc      1 <1>        0.000
     39 H          -7.7249   -0.7019   -0.6127 H.spc      1 <1>        0.000
     40 H          -6.9657    0.9315   -0.7179 H.spc      1 <1>        0.000
     41 H          -4.0366   -1.8547    4.0329 H.spc      1 <1>        0.000
     42 H          -3.7576   -2.3059    2.3847 H.spc      1 <1>        0.000
     43 H          -3.4890    2.8325    3.0721 H.spc      1 <1>        0.000
     44 H          -4.7901   -0.3474   -0.2230 H.spc      1 <1>        0.000
     45 H          -4.1228    4.5208    0.9327 H.spc      1 <1>        0.000
     46 H          -2.6954    4.6459    2.1382 H.spc      1 <1>        0.000
     47 H          -1.3833   -4.9954    0.4342 H.spc      1 <1>        0.000
     48 H          -2.4972   -3.9284    1.2472 H.spc      1 <1>        0.000
     49 H          -2.6696    4.4563   -0.5739 H.spc      1 <1>        0.000
     50 H          -2.1745    2.7904    0.1441 H.spc      1 <1>        0.000
     51 H          -3.5883   -1.3301   -2.4626 H.spc      1 <1>        0.000
     52 H          -4.2499   -3.0432   -2.6203 H.spc      1 <1>        0.000
     53 H          -0.9395    5.4458    0.4576 H.spc      1 <1>        0.000
     54 H          -0.3052    3.8791   -0.4134 H.spc      1 <1>        0.000
     55 H          -3.6448   -3.2753   -0.2082 H.spc      1 <1>        0.000
     56 H          -0.4066    4.6495    2.4206 H.spc      1 <1>        0.000
     57 H           1.0210    4.1558    1.3169 H.spc      1 <1>        0.000
     58 H          -0.2962   -3.3027   -0.6268 H.spc      1 <1>        0.000
     59 H           0.6153    1.7735    0.4068 H.spc      1 <1>        0.000
     60 H           1.5596    0.1350    2.3287 H.spc      1 <1>        0.000
     61 H          -0.1936    0.0274    2.6582 H.spc      1 <1>        0.000
     62 H           1.2513   -3.0383    2.1495 H.spc      1 <1>        0.000
     63 H          -0.0391   -2.2542    3.1204 H.spc      1 <1>        0.000
     64 H          -1.1820   -4.2096    3.1377 H.spc      1 <1>        0.000
     65 H           0.0763   -4.9735    2.2357 H.spc      1 <1>        0.000
@<TRIPOS>BOND
     1   29   30 1  
     2   30   33 2  
     3   31   32 1  
     4   14   18 1  
     5   13    9 am 
     6   11   14 1  
     7    6   12 2  
     8    7   13 1  
     9    6   11 am 
    10    5   10 1  
    11    4   10 1  
    12    3    8 2  
    13    3    7 1  
    14    2    6 1  
    15    2    5 1  
    16    1    2 1  
    17    1    3 am 
    18    1    4 1  
    19    9   19 1  
    20    9   20 2  
    21   18   21 1  
    22   19   22 1  
    23   21   23 1  
    24   22   24 am 
    25   23   25 1  
    26   24   26 1  
    27   24   27 2  
    28   25   28 am 
    29   25   15 2  
    30   26   16 1  
    31   26   17 1  
    32   28   29 1  
    33   16   30 am 
    34   16   31 1  
    35   17   32 1  
    36    2   34 1  
    37    4   35 1  
    38    4   36 1  
    39    5   37 1  
    40    5   38 1  
    41    7   39 1  
    42    7   40 1  
    43   10   41 1  
    44   10   42 1  
    45   11   43 1  
    46   13   44 1  
    47   14   45 1  
    48   14   46 1  
    49   17   47 1  
    50   17   48 1  
    51   18   49 1  
    52   18   50 1  
    53   19   51 1  
    54   19   52 1  
    55   21   53 1  
    56   21   54 1  
    57   22   55 1  
    58   23   56 1  
    59   23   57 1  
    60   26   58 1  
    61   28   59 1  
    62   29   60 1  
    63   29   61 1  
    64   31   62 1  
    65   31   63 1  
    66   32   64 1  
    67   32   65 1  
# Name:          frag5-574-139/138278 -- energy: -13.455527
# Creation time: Sat Jun  5 12:53:44 2010


@<TRIPOS>MOLECULE
frag5-574-139/138278 -- energy: -13.455527
   65    67     1     1     1
SMALL
USER_CHARGES


@<TRIPOS>ATOM
      1 N1         -6.2278    1.4102    0.6139 N.am       1 <1>        0.000
      2 C1         -5.8094    2.7810    0.8789 C.3        1 <1>        0.000
      3 C2         -5.3404    0.3716    0.5465 C.2        1 <1>        0.000
      4 C3         -7.6754    1.3894    0.6093 C.3        1 <1>        0.000
      5 C4         -7.0144    3.5355    1.4799 C.3        1 <1>        0.000
      6 C5         -4.6285    2.7843    1.9308 C.2        1 <1>        0.000
      7 C6         -5.6439   -0.8229    1.5213 C.3        1 <1>        0.000
      8 O1         -4.3315    0.4527   -0.1692 O.2        1 <1>        0.000
      9 C11        -4.0761   -2.6967    1.1843 C.2        1 <1>        0.000
     10 C7         -8.2116    2.6053    1.3280 C.3        1 <1>        0.000
     11 N2         -3.9020    3.9580    2.0386 N.am       1 <1>        0.000
     12 O3         -4.4256    1.8174    2.6879 O.2        1 <1>        0.000
     13 N3         -4.4189   -1.5321    1.7847 N.am       1 <1>        0.000
     14 C10        -2.9631    4.1892    3.0978 C.3        1 <1>        0.000
     15 O12        -2.2984   -0.1138    3.1901 O.2        1 <1>        0.000
     16 N8         -0.0799   -1.6606   -0.3649 N.am       1 <1>        0.000
     17 C25         0.8662   -3.8603   -0.0770 C.3        1 <1>        0.000
     18 C13        -1.4688    4.2533    2.8610 C.3        1 <1>        0.000
     19 C14        -2.6057   -3.1440    1.1536 C.3        1 <1>        0.000
     20 O6         -4.9336   -3.3938    0.6214 O.2        1 <1>        0.000
     21 C16        -0.7044    3.0586    2.3257 C.3        1 <1>        0.000
     22 N4         -2.3956   -3.6751   -0.1777 N.am       1 <1>        0.000
     23 C18        -0.7794    1.7207    3.0363 C.3        1 <1>        0.000
     24 C19        -1.4237   -3.7019   -1.1135 C.2        1 <1>        0.000
     25 C21        -1.6424    0.6265    2.4397 C.2        1 <1>        0.000
     26 C22        -0.0518   -3.0157   -0.9436 C.3        1 <1>        0.000
     27 O10        -1.5951   -4.4368   -2.1062 O.2        1 <1>        0.000
     28 N7         -1.7194    0.3835    1.1172 N.am       1 <1>        0.000
     29 C28        -0.8930    0.6859   -0.0357 C.3        1 <1>        0.000
     30 C30        -0.8072   -0.6132   -0.8481 C.2        1 <1>        0.000
     31 C31         1.0093   -1.5826    0.5990 C.3        1 <1>        0.000
     32 C32         1.8069   -2.8620    0.5489 C.3        1 <1>        0.000
     33 O14        -1.4220   -0.6956   -1.9148 O.2        1 <1>        0.000
     34 H          -5.4706    3.2555   -0.0421 H.spc      1 <1>        0.000
     35 H          -8.0310    1.3959   -0.4211 H.spc      1 <1>        0.000
     36 H          -8.0228    0.4900    1.1177 H.spc      1 <1>        0.000
     37 H          -6.8405    3.7870    2.5261 H.spc      1 <1>        0.000
     38 H          -7.1828    4.4823    0.9667 H.spc      1 <1>        0.000
     39 H          -6.0568   -0.4410    2.4550 H.spc      1 <1>        0.000
     40 H          -6.3689   -1.4965    1.0644 H.spc      1 <1>        0.000
     41 H          -9.0216    3.0778    0.7723 H.spc      1 <1>        0.000
     42 H          -8.6449    2.3446    2.2936 H.spc      1 <1>        0.000
     43 H          -4.0398    4.6862    1.3378 H.spc      1 <1>        0.000
     44 H          -3.7706   -1.1337    2.4640 H.spc      1 <1>        0.000
     45 H          -3.2081    5.1958    3.4367 H.spc      1 <1>        0.000
     46 H          -3.0801    3.3122    3.7344 H.spc      1 <1>        0.000
     47 H           1.3957   -4.6175   -0.6553 H.spc      1 <1>        0.000
     48 H           0.3154   -4.4310    0.6707 H.spc      1 <1>        0.000
     49 H          -1.0522    4.4061    3.8566 H.spc      1 <1>        0.000
     50 H          -1.3594    5.0056    2.0799 H.spc      1 <1>        0.000
     51 H          -2.3971   -3.8898    1.9207 H.spc      1 <1>        0.000
     52 H          -1.9298   -2.3158    1.3665 H.spc      1 <1>        0.000
     53 H           0.3429    3.3494    2.4077 H.spc      1 <1>        0.000
     54 H          -1.1482    2.8702    1.3481 H.spc      1 <1>        0.000
     55 H          -3.2237   -4.1743   -0.5024 H.spc      1 <1>        0.000
     56 H          -1.2289    1.9394    4.0049 H.spc      1 <1>        0.000
     57 H           0.2367    1.3273    3.0073 H.spc      1 <1>        0.000
     58 H           0.3122   -2.9183   -1.9664 H.spc      1 <1>        0.000
     59 H          -2.5596   -0.1377    0.8666 H.spc      1 <1>        0.000
     60 H          -1.3225    1.4939   -0.6279 H.spc      1 <1>        0.000
     61 H           0.0967    1.0279    0.2671 H.spc      1 <1>        0.000
     62 H           1.6547   -0.7388    0.3548 H.spc      1 <1>        0.000
     63 H           0.6026   -1.4435    1.6007 H.spc      1 <1>        0.000
     64 H           2.1422   -3.1765    1.5372 H.spc      1 <1>        0.000
     65 H           2.7280   -2.7502   -0.0231 H.spc      1 <1>        0.000
@<TRIPOS>BOND
     1   29   30 1  
     2   30   33 2  
     3   31   32 1  
     4   14   18 1  
     5   13    9 am 
     6   11   14 1  
     7    6   12 2  
     8    7   13 1  
     9    6   11 am 
    10    5   10 1  
    11    4   10 1  
    12    3    8 2  
    13    3    7 1  
    14    2    6 1  
    15    2    5 1  
    16    1    2 1  
    17    1    3 am 
    18    1    4 1  
    19    9   19 1  
    20    9   20 2  
    21   18   21 1  
    22   19   22 1  
    23   21   23 1  
    24   22   24 am 
    25   23   25 1  
    26   24   26 1  
    27   24   27 2  
    28   25   28 am 
    29   25   15 2  
    30   26   16 1  
    31   26   17 1  
    32   28   29 1  
    33   16   30 am 
    34   16   31 1  
    35   17   32 1  
    36    2   34 1  
    37    4   35 1  
    38    4   36 1  
    39    5   37 1  
    40    5   38 1  
    41    7   39 1  
    42    7   40 1  
    43   10   41 1  
    44   10   42 1  
    45   11   43 1  
    46   13   44 1  
    47   14   45 1  
    48   14   46 1  
    49   17   47 1  
    50   17   48 1  
    51   18   49 1  
    52   18   50 1  
    53   19   51 1  
    54   19   52 1  
    55   21   53 1  
    56   21   54 1  
    57   22   55 1  
    58   23   56 1  
    59   23   57 1  
    60   26   58 1  
    61   28   59 1  
    62   29   60 1  
    63   29   61 1  
    64   31   62 1  
    65   31   63 1  
    66   32   64 1  
    67   32   65 1  
# Name:          frag5-574-139/138278 -- energy: -16.246918
# Creation time: Sat Jun  5 12:53:44 2010


@<TRIPOS>MOLECULE
frag5-574-139/138278 -- energy: -16.246918
   65    67     1     1     1
SMALL
USER_CHARGES


@<TRIPOS>ATOM
      1 N1         -5.8995   -0.1927    2.0039 N.am       1 <1>        0.000
      2 C1         -4.8538    0.7215    2.4624 C.3        1 <1>        0.000
      3 C2         -7.0091    0.0825    1.2604 C.2        1 <1>        0.000
      4 C3         -5.6940   -1.4177    2.7233 C.3        1 <1>        0.000
      5 C4         -3.6514   -0.1706    2.7276 C.3        1 <1>        0.000
      6 C5         -4.4821    1.9018    1.5330 C.2        1 <1>        0.000
      7 C6         -6.9093   -0.0627   -0.2745 C.3        1 <1>        0.000
      8 O1         -8.0664    0.4326    1.7992 O.2        1 <1>        0.000
      9 C11        -5.5024   -1.6600   -1.6204 C.2        1 <1>        0.000
     10 C7         -4.2240   -1.5412    3.0059 C.3        1 <1>        0.000
     11 N2         -3.7254    2.9141    2.0832 N.am       1 <1>        0.000
     12 O3         -4.8361    1.9139    0.3445 O.2        1 <1>        0.000
     13 N3         -5.6392   -0.6792   -0.6806 N.am       1 <1>        0.000
     14 C10        -3.2410    4.0715    1.3895 C.3        1 <1>        0.000
     15 O12        -0.5572    2.4372    3.2951 O.2        1 <1>        0.000
     16 N8         -0.1883   -2.0021    1.0589 N.am       1 <1>        0.000
     17 C25        -1.4460   -4.0604    0.9909 C.3        1 <1>        0.000
     18 C13        -2.2617    3.8717    0.2506 C.3        1 <1>        0.000
     19 C14        -4.1060   -2.1652   -1.9906 C.3        1 <1>        0.000
     20 O6         -6.4784   -2.1322   -2.2217 O.2        1 <1>        0.000
     21 C16        -0.8379    4.3618    0.4059 C.3        1 <1>        0.000
     22 N4         -3.2733   -2.5903   -0.8664 N.am       1 <1>        0.000
     23 C18        -0.0161    4.0181    1.6226 C.3        1 <1>        0.000
     24 C19        -2.0035   -2.0955   -0.6677 C.2        1 <1>        0.000
     25 C21        -0.0889    2.6094    2.1586 C.2        1 <1>        0.000
     26 C22        -0.9301   -2.8853    0.1555 C.3        1 <1>        0.000
     27 O10        -1.6835   -1.0242   -1.2067 O.2        1 <1>        0.000
     28 N7          0.3818    1.5837    1.3814 N.am       1 <1>        0.000
     29 C28         0.5623    0.2243    1.8979 C.3        1 <1>        0.000
     30 C30         0.4103   -0.8041    0.7533 C.2        1 <1>        0.000
     31 C31         0.1869   -2.8117    2.2114 C.3        1 <1>        0.000
     32 C32        -0.5846   -4.1067    2.2318 C.3        1 <1>        0.000
     33 O14         0.8413   -0.5261   -0.3739 O.2        1 <1>        0.000
     34 H          -5.2278    1.2529    3.3376 H.spc      1 <1>        0.000
     35 H          -6.2597   -1.4095    3.6550 H.spc      1 <1>        0.000
     36 H          -6.0390   -2.2665    2.1328 H.spc      1 <1>        0.000
     37 H          -2.9689   -0.1864    1.8779 H.spc      1 <1>        0.000
     38 H          -3.0590    0.1942    3.5667 H.spc      1 <1>        0.000
     39 H          -7.7249   -0.7019   -0.6127 H.spc      1 <1>        0.000
     40 H          -6.9657    0.9315   -0.7179 H.spc      1 <1>        0.000
     41 H          -4.0366   -1.8547    4.0329 H.spc      1 <1>        0.000
     42 H          -3.7576   -2.3059    2.3847 H.spc      1 <1>        0.000
     43 H          -3.4890    2.8325    3.0721 H.spc      1 <1>        0.000
     44 H          -4.7901   -0.3474   -0.2230 H.spc      1 <1>        0.000
     45 H          -4.1228    4.5208    0.9327 H.spc      1 <1>        0.000
     46 H          -2.6954    4.6459    2.1382 H.spc      1 <1>        0.000
     47 H          -1.3833   -4.9954    0.4342 H.spc      1 <1>        0.000
     48 H          -2.4972   -3.9284    1.2472 H.spc      1 <1>        0.000
     49 H          -2.6696    4.4563   -0.5739 H.spc      1 <1>        0.000
     50 H          -2.1745    2.7904    0.1441 H.spc      1 <1>        0.000
     51 H          -3.5883   -1.3301   -2.4626 H.spc      1 <1>        0.000
     52 H          -4.2499   -3.0432   -2.6203 H.spc      1 <1>        0.000
     53 H          -0.9395    5.4458    0.4576 H.spc      1 <1>        0.000
     54 H          -0.3052    3.8791   -0.4134 H.spc      1 <1>        0.000
     55 H          -3.6448   -3.2753   -0.2082 H.spc      1 <1>        0.000
     56 H          -0.4066    4.6495    2.4206 H.spc      1 <1>        0.000
     57 H           1.0210    4.1558    1.3169 H.spc      1 <1>        0.000
     58 H          -0.2962   -3.3027   -0.6268 H.spc      1 <1>        0.000
     59 H           0.6153    1.7735    0.4068 H.spc      1 <1>        0.000
     60 H           1.5596    0.1350    2.3287 H.spc      1 <1>        0.000
     61 H          -0.1936    0.0274    2.6582 H.spc      1 <1>        0.000
     62 H           1.2513   -3.0383    2.1495 H.spc      1 <1>        0.000
     63 H          -0.0391   -2.2542    3.1204 H.spc      1 <1>        0.000
     64 H          -1.1820   -4.2096    3.1377 H.spc      1 <1>        0.000
     65 H           0.0763   -4.9735    2.2357 H.spc      1 <1>        0.000
@<TRIPOS>BOND
     1   29   30 1  
     2   30   33 2  
     3   31   32 1  
     4   14   18 1  
     5   13    9 am 
     6   11   14 1  
     7    6   12 2  
     8    7   13 1  
     9    6   11 am 
    10    5   10 1  
    11    4   10 1  
    12    3    8 2  
    13    3    7 1  
    14    2    6 1  
    15    2    5 1  
    16    1    2 1  
    17    1    3 am 
    18    1    4 1  
    19    9   19 1  
    20    9   20 2  
    21   18   21 1  
    22   19   22 1  
    23   21   23 1  
    24   22   24 am 
    25   23   25 1  
    26   24   26 1  
    27   24   27 2  
    28   25   28 am 
    29   25   15 2  
    30   26   16 1  
    31   26   17 1  
    32   28   29 1  
    33   16   30 am 
    34   16   31 1  
    35   17   32 1  
    36    2   34 1  
    37    4   35 1  
    38    4   36 1  
    39    5   37 1  
    40    5   38 1  
    41    7   39 1  
    42    7   40 1  
    43   10   41 1  
    44   10   42 1  
    45   11   43 1  
    46   13   44 1  
    47   14   45 1  
    48   14   46 1  
    49   17   47 1  
    50   17   48 1  
    51   18   49 1  
    52   18   50 1  
    53   19   51 1  
    54   19   52 1  
    55   21   53 1  
    56   21   54 1  
    57   22   55 1  
    58   23   56 1  
    59   23   57 1  
    60   26   58 1  
    61   28   59 1  
    62   29   60 1  
    63   29   61 1  
    64   31   62 1  
    65   31   63 1  
    66   32   64 1  
    67   32   65 1  
