#      Rotatable Fragment
#      Build by yxyuan
#
# Name:          frag4-369-89/48856
# Creation time: Sat Jun  5 12:53:31 2010


@<TRIPOS>MOLECULE
frag4-369-89/48856
   11    11     1     1     1
SMALL
USER_CHARGES


@<TRIPOS>ATOM
      1 N1          1.3743   -0.2943   -0.0509 N.ar       1 <1>        0.000
      2 C1          0.3800   -1.3015   -0.0879 C.ar       1 <1>        0.000
      3 C2         -0.9387   -1.0151   -0.0283 C.ar       1 <1>        0.000
      4 C3         -1.3590    0.3710    0.0574 C.ar       1 <1>        0.000
      5 C4         -0.3826    1.2989    0.0777 C.ar       1 <1>        0.000
      6 C5          1.0027    0.9189    0.0303 C.ar       1 <1>        0.000
      7 H           0.6892   -2.3437   -0.1672 H.spc      1 <1>        0.000
      8 H          -1.6782   -1.8157   -0.0444 H.spc      1 <1>        0.000
      9 H          -2.4123    0.6477    0.1031 H.spc      1 <1>        0.000
     10 H          -0.6474    2.3549    0.1309 H.spc      1 <1>        0.000
     11 H           1.7627    1.6995    0.0653 H.spc      1 <1>        0.000
@<TRIPOS>BOND
     1    1    6 ar 
     2    1    2 ar 
     3    2    3 ar 
     4    3    4 ar 
     5    4    5 ar 
     6    5    6 ar 
     7    2    7 1  
     8    3    8 1  
     9    4    9 1  
    10    5   10 1  
    11    6   11 1  
# Name:          frag4-369-89/48856 -- energy: 0.342452
# Creation time: Sat Jun  5 12:53:31 2010


@<TRIPOS>MOLECULE
frag4-369-89/48856 -- energy: 0.342452
   11    11     1     1     1
SMALL
USER_CHARGES


@<TRIPOS>ATOM
      1 N1          1.3743   -0.2943   -0.0509 N.ar       1 <1>        0.000
      2 C1          0.3800   -1.3015   -0.0879 C.ar       1 <1>        0.000
      3 C2         -0.9387   -1.0151   -0.0283 C.ar       1 <1>        0.000
      4 C3         -1.3590    0.3710    0.0574 C.ar       1 <1>        0.000
      5 C4         -0.3826    1.2989    0.0777 C.ar       1 <1>        0.000
      6 C5          1.0027    0.9189    0.0303 C.ar       1 <1>        0.000
      7 H           0.6892   -2.3437   -0.1672 H.spc      1 <1>        0.000
      8 H          -1.6782   -1.8157   -0.0444 H.spc      1 <1>        0.000
      9 H          -2.4123    0.6477    0.1031 H.spc      1 <1>        0.000
     10 H          -0.6474    2.3549    0.1309 H.spc      1 <1>        0.000
     11 H           1.7627    1.6995    0.0653 H.spc      1 <1>        0.000
@<TRIPOS>BOND
     1    1    6 ar 
     2    1    2 ar 
     3    2    3 ar 
     4    3    4 ar 
     5    4    5 ar 
     6    5    6 ar 
     7    2    7 1  
     8    3    8 1  
     9    4    9 1  
    10    5   10 1  
    11    6   11 1  
