#      Rotatable Fragment
#      Build by yxyuan
#
# Name:          frag3-261-4/96164
# Creation time: Sat Jun  5 12:53:22 2010


@<TRIPOS>MOLECULE
frag3-261-4/96164
   13    12     1     1     1
SMALL
USER_CHARGES


@<TRIPOS>ATOM
      1 C1         -0.4802    0.0903    0.0882 C.cat      1 <1>        0.000
      2 N1          0.5918    0.7941   -0.0028 N.pl3      1 <1>        0.000
      3 N2         -1.7380    0.6045   -0.1152 N.pl3      1 <1>        0.000
      4 N3         -0.4432   -1.2680    0.3018 N.pl3      1 <1>        0.000
      5 N4         -1.9510    1.3424   -1.2077 N.3        1 <1>        0.000
      6 N5         -1.6324   -1.9284    0.2189 N.3        1 <1>        0.000
      7 H           1.5044    0.3468    0.0838 H.spc      1 <1>        0.000
      8 H          -2.4897    0.4272    0.5511 H.spc      1 <1>        0.000
      9 H           0.4281   -1.7552    0.5112 H.spc      1 <1>        0.000
     10 H          -2.9226    1.6524   -1.2230 H.spc      1 <1>        0.000
     11 H          -1.3340    2.1545   -1.1937 H.spc      1 <1>        0.000
     12 H          -1.4812   -2.9218    0.3943 H.spc      1 <1>        0.000
     13 H          -2.2774   -1.5534    0.9144 H.spc      1 <1>        0.000
@<TRIPOS>BOND
     1    1    2 ar 
     2    1    3 ar 
     3    1    4 ar 
     4    3    5 1  
     5    4    6 1  
     6    2    7 1  
     7    3    8 1  
     8    4    9 1  
     9    5   10 1  
    10    5   11 1  
    11    6   12 1  
    12    6   13 1  
# Name:          frag3-261-4/96164
# Creation time: Sat Jun  5 12:53:22 2010


@<TRIPOS>MOLECULE
frag3-261-4/96164
   13    12     1     1     1
SMALL
USER_CHARGES


@<TRIPOS>ATOM
      1 C1         -0.8231   -0.0147   -0.0867 C.cat      1 <1>        0.000
      2 N1          0.4064    0.3207   -0.0921 N.pl3      1 <1>        0.000
      3 N2         -1.8137    0.6855   -0.6503 N.pl3      1 <1>        0.000
      4 N3         -1.2718   -1.1585    0.4619 N.pl3      1 <1>        0.000
      5 N4         -1.7419    1.9692   -0.8860 N.3        1 <1>        0.000
      6 N5         -0.4090   -2.1673    0.5364 N.3        1 <1>        0.000
      7 H           1.1036   -0.2902    0.3336 H.spc      1 <1>        0.000
      8 H          -2.6684    0.1928   -0.9093 H.spc      1 <1>        0.000
      9 H          -2.2285   -1.2474    0.8044 H.spc      1 <1>        0.000
     10 H          -2.6107    2.2834   -1.3182 H.spc      1 <1>        0.000
     11 H          -1.5981    2.4674   -0.0077 H.spc      1 <1>        0.000
     12 H          -0.8645   -2.9716    0.9677 H.spc      1 <1>        0.000
     13 H          -0.0958   -2.4153   -0.4021 H.spc      1 <1>        0.000
@<TRIPOS>BOND
     1    1    2 ar 
     2    1    3 ar 
     3    1    4 ar 
     4    3    5 1  
     5    4    6 1  
     6    2    7 1  
     7    3    8 1  
     8    4    9 1  
     9    5   10 1  
    10    5   11 1  
    11    6   12 1  
    12    6   13 1  
# Name:          frag3-261-4/96164 -- energy: -0.499690
# Creation time: Sat Jun  5 12:53:22 2010


@<TRIPOS>MOLECULE
frag3-261-4/96164 -- energy: -0.499690
   13    12     1     1     1
SMALL
USER_CHARGES


@<TRIPOS>ATOM
      1 C1         -0.4802    0.0903    0.0882 C.cat      1 <1>        0.000
      2 N1          0.5918    0.7941   -0.0028 N.pl3      1 <1>        0.000
      3 N2         -1.7380    0.6045   -0.1152 N.pl3      1 <1>        0.000
      4 N3         -0.4432   -1.2680    0.3018 N.pl3      1 <1>        0.000
      5 N4         -1.9510    1.3424   -1.2077 N.3        1 <1>        0.000
      6 N5         -1.6324   -1.9284    0.2189 N.3        1 <1>        0.000
      7 H           1.5044    0.3468    0.0838 H.spc      1 <1>        0.000
      8 H          -2.4897    0.4272    0.5511 H.spc      1 <1>        0.000
      9 H           0.4281   -1.7552    0.5112 H.spc      1 <1>        0.000
     10 H          -2.9226    1.6524   -1.2230 H.spc      1 <1>        0.000
     11 H          -1.3340    2.1545   -1.1937 H.spc      1 <1>        0.000
     12 H          -1.4812   -2.9218    0.3943 H.spc      1 <1>        0.000
     13 H          -2.2774   -1.5534    0.9144 H.spc      1 <1>        0.000
@<TRIPOS>BOND
     1    1    2 ar 
     2    1    3 ar 
     3    1    4 ar 
     4    3    5 1  
     5    4    6 1  
     6    2    7 1  
     7    3    8 1  
     8    4    9 1  
     9    5   10 1  
    10    5   11 1  
    11    6   12 1  
    12    6   13 1  
# Name:          frag3-261-4/96164 -- energy: -0.608589
# Creation time: Sat Jun  5 12:53:22 2010


@<TRIPOS>MOLECULE
frag3-261-4/96164 -- energy: -0.608589
   13    12     1     1     1
SMALL
USER_CHARGES


@<TRIPOS>ATOM
      1 C1         -0.8231   -0.0147   -0.0867 C.cat      1 <1>        0.000
      2 N1          0.4064    0.3207   -0.0921 N.pl3      1 <1>        0.000
      3 N2         -1.8137    0.6855   -0.6503 N.pl3      1 <1>        0.000
      4 N3         -1.2718   -1.1585    0.4619 N.pl3      1 <1>        0.000
      5 N4         -1.7419    1.9692   -0.8860 N.3        1 <1>        0.000
      6 N5         -0.4090   -2.1673    0.5364 N.3        1 <1>        0.000
      7 H           1.1036   -0.2902    0.3336 H.spc      1 <1>        0.000
      8 H          -2.6684    0.1928   -0.9093 H.spc      1 <1>        0.000
      9 H          -2.2285   -1.2474    0.8044 H.spc      1 <1>        0.000
     10 H          -2.6107    2.2834   -1.3182 H.spc      1 <1>        0.000
     11 H          -1.5981    2.4674   -0.0077 H.spc      1 <1>        0.000
     12 H          -0.8645   -2.9716    0.9677 H.spc      1 <1>        0.000
     13 H          -0.0958   -2.4153   -0.4021 H.spc      1 <1>        0.000
@<TRIPOS>BOND
     1    1    2 ar 
     2    1    3 ar 
     3    1    4 ar 
     4    3    5 1  
     5    4    6 1  
     6    2    7 1  
     7    3    8 1  
     8    4    9 1  
     9    5   10 1  
    10    5   11 1  
    11    6   12 1  
    12    6   13 1  
