#      Rotatable Fragment
#      Build by yxyuan
#
# Name:          frag3-181-8/31924
# Creation time: Sat Jun  5 12:52:09 2010


@<TRIPOS>MOLECULE
frag3-181-8/31924
    7     6     1     1     1
SMALL
USER_CHARGES


@<TRIPOS>ATOM
      1 N1          0.9779   -0.0572    0.0943 N.am       1 <1>        0.000
      2 C26        -0.2642    0.3479   -0.2181 C.2        1 <1>        0.000
      3 O13        -1.2799   -0.3162   -0.1951 O.2        1 <1>        0.000
      4 O14        -0.1772    1.6513   -0.5025 O.3        1 <1>        0.000
      5 H           1.1412   -1.0197    0.3897 H.spc      1 <1>        0.000
      6 H           1.7577    0.5977    0.0361 H.spc      1 <1>        0.000
      7 H           0.7404    1.9285   -0.4502 H.spc      1 <1>        0.000
@<TRIPOS>BOND
     1    1    2 am 
     2    2    3 2  
     3    2    4 1  
     4    1    5 1  
     5    1    6 1  
     6    4    7 1  
# Name:          frag3-181-8/31924 -- energy: 1.940462
# Creation time: Sat Jun  5 12:52:09 2010


@<TRIPOS>MOLECULE
frag3-181-8/31924 -- energy: 1.940462
    7     6     1     1     1
SMALL
USER_CHARGES


@<TRIPOS>ATOM
      1 N1          0.9779   -0.0572    0.0943 N.am       1 <1>        0.000
      2 C26        -0.2642    0.3479   -0.2181 C.2        1 <1>        0.000
      3 O13        -1.2799   -0.3162   -0.1951 O.2        1 <1>        0.000
      4 O14        -0.1772    1.6513   -0.5025 O.3        1 <1>        0.000
      5 H           1.1412   -1.0197    0.3897 H.spc      1 <1>        0.000
      6 H           1.7577    0.5977    0.0361 H.spc      1 <1>        0.000
      7 H           0.7404    1.9285   -0.4502 H.spc      1 <1>        0.000
@<TRIPOS>BOND
     1    1    2 am 
     2    2    3 2  
     3    2    4 1  
     4    1    5 1  
     5    1    6 1  
     6    4    7 1  
