#      Rotatable Fragment
#      Build by yxyuan
#
# Name:          frag4-454-38/48856
# Creation time: Sat Jun  5 12:52:48 2010


@<TRIPOS>MOLECULE
frag4-454-38/48856
   11    11     1     1     1
SMALL
USER_CHARGES


@<TRIPOS>ATOM
      1 O1         -0.4148    1.3627    0.0563 O.3        1 <1>        0.000
      2 C1          0.8140    0.9287   -0.1150 C.3        1 <1>        0.000
      3 C2          0.8504   -0.5250   -0.1182 C.2        1 <1>        0.000
      4 C3         -0.4089   -0.9046    0.0587 C.2        1 <1>        0.000
      5 C4         -1.1991    0.3167    0.1670 C.3        1 <1>        0.000
      6 H           1.4341    1.2947    0.7033 H.spc      1 <1>        0.000
      7 H           1.1856    1.2924   -1.0730 H.spc      1 <1>        0.000
      8 H           1.7241   -1.1652   -0.2398 H.spc      1 <1>        0.000
      9 H          -0.7799   -1.9281    0.1125 H.spc      1 <1>        0.000
     10 H          -1.9431    0.3373   -0.6294 H.spc      1 <1>        0.000
     11 H          -1.6972    0.3398    1.1363 H.spc      1 <1>        0.000
@<TRIPOS>BOND
     1    1    2 1  
     2    1    5 1  
     3    2    3 1  
     4    3    4 2  
     5    4    5 1  
     6    2    6 1  
     7    2    7 1  
     8    3    8 1  
     9    4    9 1  
    10    5   10 1  
    11    5   11 1  
# Name:          frag4-454-38/48856 -- energy: -0.483789
# Creation time: Sat Jun  5 12:52:48 2010


@<TRIPOS>MOLECULE
frag4-454-38/48856 -- energy: -0.483789
   11    11     1     1     1
SMALL
USER_CHARGES


@<TRIPOS>ATOM
      1 O1         -0.4148    1.3627    0.0563 O.3        1 <1>        0.000
      2 C1          0.8140    0.9287   -0.1150 C.3        1 <1>        0.000
      3 C2          0.8504   -0.5250   -0.1182 C.2        1 <1>        0.000
      4 C3         -0.4089   -0.9046    0.0587 C.2        1 <1>        0.000
      5 C4         -1.1991    0.3167    0.1670 C.3        1 <1>        0.000
      6 H           1.4341    1.2947    0.7033 H.spc      1 <1>        0.000
      7 H           1.1856    1.2924   -1.0730 H.spc      1 <1>        0.000
      8 H           1.7241   -1.1652   -0.2398 H.spc      1 <1>        0.000
      9 H          -0.7799   -1.9281    0.1125 H.spc      1 <1>        0.000
     10 H          -1.9431    0.3373   -0.6294 H.spc      1 <1>        0.000
     11 H          -1.6972    0.3398    1.1363 H.spc      1 <1>        0.000
@<TRIPOS>BOND
     1    1    2 1  
     2    1    5 1  
     3    2    3 1  
     4    3    4 2  
     5    4    5 1  
     6    2    6 1  
     7    2    7 1  
     8    3    8 1  
     9    4    9 1  
    10    5   10 1  
    11    5   11 1  
