#      Rotatable Fragment
#      Build by yxyuan
#
# Name:          frag3-119-45/31924
# Creation time: Sat Jun  5 12:52:02 2010


@<TRIPOS>MOLECULE
frag3-119-45/31924
    6     5     1     1     1
SMALL
USER_CHARGES


@<TRIPOS>ATOM
      1 O2          1.1314    0.4905    0.0235 O.3        1 <1>        0.000
      2 C10        -0.0158   -0.1816   -0.0442 C.2        1 <1>        0.000
      3 O3         -1.1086    0.3033   -0.2666 O.2        1 <1>        0.000
      4 O4          0.2421   -1.4683    0.1782 O.3        1 <1>        0.000
      5 H           1.8482   -0.1201    0.2104 H.spc      1 <1>        0.000
      6 H           1.1836   -1.5839    0.3260 H.spc      1 <1>        0.000
@<TRIPOS>BOND
     1    1    2 1  
     2    2    3 2  
     3    2    4 1  
     4    1    5 1  
     5    4    6 1  
