#      Rotatable Fragment
#      Build by yxyuan
#
# Name:          frag5-513-178/41815
# Creation time: Sat Jun  5 12:52:50 2010


@<TRIPOS>MOLECULE
frag5-513-178/41815
   16    16     1     1     1
SMALL
USER_CHARGES


@<TRIPOS>ATOM
      1 C6         -4.0245   -0.4115   -1.3997 C.2        1 <1>        0.000
      2 O1         -2.8745   -0.7378   -1.6248 O.2        1 <1>        0.000
      3 N2         -4.8744    0.1446   -2.2943 N.am       1 <1>        0.000
      4 C7         -6.2128    0.4384   -2.0032 C.ar       1 <1>        0.000
      5 C8         -6.9154    1.3758   -2.7685 C.ar       1 <1>        0.000
      6 C9         -8.2246    1.7309   -2.4384 C.ar       1 <1>        0.000
      7 C10        -8.8505    1.1350   -1.3406 C.ar       1 <1>        0.000
      8 C11        -8.1807    0.1556   -0.6020 C.ar       1 <1>        0.000
      9 C12        -6.8758   -0.2000   -0.9403 C.ar       1 <1>        0.000
     10 H          -4.4028   -0.5814   -0.3917 H.spc      1 <1>        0.000
     11 H          -4.5228    0.3606   -3.2271 H.spc      1 <1>        0.000
     12 H          -6.4348    1.8343   -3.6327 H.spc      1 <1>        0.000
     13 H          -8.7571    2.4711   -3.0356 H.spc      1 <1>        0.000
     14 H          -9.8606    1.4338   -1.0603 H.spc      1 <1>        0.000
     15 H          -8.6781   -0.3297    0.2377 H.spc      1 <1>        0.000
     16 H          -6.3650   -0.9800   -0.3757 H.spc      1 <1>        0.000
@<TRIPOS>BOND
     1    7    8 ar 
     2    8    9 ar 
     3    1    2 2  
     4    3    4 1  
     5    1    3 am 
     6    4    5 ar 
     7    4    9 ar 
     8    5    6 ar 
     9    6    7 ar 
    10    1   10 1  
    11    3   11 1  
    12    5   12 1  
    13    6   13 1  
    14    7   14 1  
    15    8   15 1  
    16    9   16 1  
# Name:          frag5-513-178/41815
# Creation time: Sat Jun  5 12:52:50 2010


@<TRIPOS>MOLECULE
frag5-513-178/41815
   16    16     1     1     1
SMALL
USER_CHARGES


@<TRIPOS>ATOM
      1 C6         -3.8815   -0.4147   -1.9218 C.2        1 <1>        0.000
      2 O1         -3.7802   -0.3773   -0.7001 O.2        1 <1>        0.000
      3 N2         -4.9038   -0.0048   -2.7172 N.am       1 <1>        0.000
      4 C7         -6.1695    0.3587   -2.2277 C.ar       1 <1>        0.000
      5 C8         -6.9229    1.3572   -2.8181 C.ar       1 <1>        0.000
      6 C9         -8.1266    1.7807   -2.2429 C.ar       1 <1>        0.000
      7 C10        -8.6129    1.1585   -1.0953 C.ar       1 <1>        0.000
      8 C11        -7.9224    0.0855   -0.5540 C.ar       1 <1>        0.000
      9 C12        -6.7132   -0.3129   -1.1347 C.ar       1 <1>        0.000
     10 H          -3.0256   -0.8392   -2.4465 H.spc      1 <1>        0.000
     11 H          -4.7438    0.0415   -3.7235 H.spc      1 <1>        0.000
     12 H          -6.5752    1.8196   -3.7419 H.spc      1 <1>        0.000
     13 H          -8.6855    2.6003   -2.6945 H.spc      1 <1>        0.000
     14 H          -9.5306    1.5132   -0.6260 H.spc      1 <1>        0.000
     15 H          -8.3169   -0.4421    0.3144 H.spc      1 <1>        0.000
     16 H          -6.1829   -1.1708   -0.7213 H.spc      1 <1>        0.000
@<TRIPOS>BOND
     1    7    8 ar 
     2    8    9 ar 
     3    1    2 2  
     4    3    4 1  
     5    1    3 am 
     6    4    5 ar 
     7    4    9 ar 
     8    5    6 ar 
     9    6    7 ar 
    10    1   10 1  
    11    3   11 1  
    12    5   12 1  
    13    6   13 1  
    14    7   14 1  
    15    8   15 1  
    16    9   16 1  
# Name:          frag5-513-178/41815
# Creation time: Sat Jun  5 12:52:50 2010


@<TRIPOS>MOLECULE
frag5-513-178/41815
   16    16     1     1     1
SMALL
USER_CHARGES


@<TRIPOS>ATOM
      1 C6         -3.7987   -0.1780   -1.7119 C.2        1 <1>        0.000
      2 O1         -3.9423   -1.2989   -1.2577 O.2        1 <1>        0.000
      3 N2         -4.6899    0.6568   -2.3031 N.am       1 <1>        0.000
      4 C7         -6.0555    0.6935   -2.0250 C.ar       1 <1>        0.000
      5 C8         -6.9618    1.3881   -2.8183 C.ar       1 <1>        0.000
      6 C9         -8.3170    1.4753   -2.4687 C.ar       1 <1>        0.000
      7 C10        -8.7699    0.8461   -1.3181 C.ar       1 <1>        0.000
      8 C11        -7.9140    0.0705   -0.5612 C.ar       1 <1>        0.000
      9 C12        -6.5839   -0.0227   -0.9477 C.ar       1 <1>        0.000
     10 H          -2.7873    0.2202   -1.6299 H.spc      1 <1>        0.000
     11 H          -4.3339    1.3067   -3.0040 H.spc      1 <1>        0.000
     12 H          -6.6123    1.8741   -3.7292 H.spc      1 <1>        0.000
     13 H          -9.0105    2.0341   -3.0972 H.spc      1 <1>        0.000
     14 H          -9.8085    0.9648   -1.0094 H.spc      1 <1>        0.000
     15 H          -8.2752   -0.4575    0.3213 H.spc      1 <1>        0.000
     16 H          -5.9230   -0.6832   -0.3865 H.spc      1 <1>        0.000
@<TRIPOS>BOND
     1    7    8 ar 
     2    8    9 ar 
     3    1    2 2  
     4    3    4 1  
     5    1    3 am 
     6    4    5 ar 
     7    4    9 ar 
     8    5    6 ar 
     9    6    7 ar 
    10    1   10 1  
    11    3   11 1  
    12    5   12 1  
    13    6   13 1  
    14    7   14 1  
    15    8   15 1  
    16    9   16 1  
# Name:          frag5-513-178/41815 -- energy: -0.294550
# Creation time: Sat Jun  5 12:52:50 2010


@<TRIPOS>MOLECULE
frag5-513-178/41815 -- energy: -0.294550
   16    16     1     1     1
SMALL
USER_CHARGES


@<TRIPOS>ATOM
      1 C6         -4.0245   -0.4115   -1.3997 C.2        1 <1>        0.000
      2 O1         -2.8745   -0.7378   -1.6248 O.2        1 <1>        0.000
      3 N2         -4.8744    0.1446   -2.2943 N.am       1 <1>        0.000
      4 C7         -6.2128    0.4384   -2.0032 C.ar       1 <1>        0.000
      5 C8         -6.9154    1.3758   -2.7685 C.ar       1 <1>        0.000
      6 C9         -8.2246    1.7309   -2.4384 C.ar       1 <1>        0.000
      7 C10        -8.8505    1.1350   -1.3406 C.ar       1 <1>        0.000
      8 C11        -8.1807    0.1556   -0.6020 C.ar       1 <1>        0.000
      9 C12        -6.8758   -0.2000   -0.9403 C.ar       1 <1>        0.000
     10 H          -4.4028   -0.5814   -0.3917 H.spc      1 <1>        0.000
     11 H          -4.5228    0.3606   -3.2271 H.spc      1 <1>        0.000
     12 H          -6.4348    1.8343   -3.6327 H.spc      1 <1>        0.000
     13 H          -8.7571    2.4711   -3.0356 H.spc      1 <1>        0.000
     14 H          -9.8606    1.4338   -1.0603 H.spc      1 <1>        0.000
     15 H          -8.6781   -0.3297    0.2377 H.spc      1 <1>        0.000
     16 H          -6.3650   -0.9800   -0.3757 H.spc      1 <1>        0.000
@<TRIPOS>BOND
     1    7    8 ar 
     2    8    9 ar 
     3    1    2 2  
     4    3    4 1  
     5    1    3 am 
     6    4    5 ar 
     7    4    9 ar 
     8    5    6 ar 
     9    6    7 ar 
    10    1   10 1  
    11    3   11 1  
    12    5   12 1  
    13    6   13 1  
    14    7   14 1  
    15    8   15 1  
    16    9   16 1  
# Name:          frag5-513-178/41815 -- energy: -0.549160
# Creation time: Sat Jun  5 12:52:50 2010


@<TRIPOS>MOLECULE
frag5-513-178/41815 -- energy: -0.549160
   16    16     1     1     1
SMALL
USER_CHARGES


@<TRIPOS>ATOM
      1 C6         -3.8815   -0.4147   -1.9218 C.2        1 <1>        0.000
      2 O1         -3.7802   -0.3773   -0.7001 O.2        1 <1>        0.000
      3 N2         -4.9038   -0.0048   -2.7172 N.am       1 <1>        0.000
      4 C7         -6.1695    0.3587   -2.2277 C.ar       1 <1>        0.000
      5 C8         -6.9229    1.3572   -2.8181 C.ar       1 <1>        0.000
      6 C9         -8.1266    1.7807   -2.2429 C.ar       1 <1>        0.000
      7 C10        -8.6129    1.1585   -1.0953 C.ar       1 <1>        0.000
      8 C11        -7.9224    0.0855   -0.5540 C.ar       1 <1>        0.000
      9 C12        -6.7132   -0.3129   -1.1347 C.ar       1 <1>        0.000
     10 H          -3.0256   -0.8392   -2.4465 H.spc      1 <1>        0.000
     11 H          -4.7438    0.0415   -3.7235 H.spc      1 <1>        0.000
     12 H          -6.5752    1.8196   -3.7419 H.spc      1 <1>        0.000
     13 H          -8.6855    2.6003   -2.6945 H.spc      1 <1>        0.000
     14 H          -9.5306    1.5132   -0.6260 H.spc      1 <1>        0.000
     15 H          -8.3169   -0.4421    0.3144 H.spc      1 <1>        0.000
     16 H          -6.1829   -1.1708   -0.7213 H.spc      1 <1>        0.000
@<TRIPOS>BOND
     1    7    8 ar 
     2    8    9 ar 
     3    1    2 2  
     4    3    4 1  
     5    1    3 am 
     6    4    5 ar 
     7    4    9 ar 
     8    5    6 ar 
     9    6    7 ar 
    10    1   10 1  
    11    3   11 1  
    12    5   12 1  
    13    6   13 1  
    14    7   14 1  
    15    8   15 1  
    16    9   16 1  
# Name:          frag5-513-178/41815 -- energy: -0.110168
# Creation time: Sat Jun  5 12:52:50 2010


@<TRIPOS>MOLECULE
frag5-513-178/41815 -- energy: -0.110168
   16    16     1     1     1
SMALL
USER_CHARGES


@<TRIPOS>ATOM
      1 C6         -3.7987   -0.1780   -1.7119 C.2        1 <1>        0.000
      2 O1         -3.9423   -1.2989   -1.2577 O.2        1 <1>        0.000
      3 N2         -4.6899    0.6568   -2.3031 N.am       1 <1>        0.000
      4 C7         -6.0555    0.6935   -2.0250 C.ar       1 <1>        0.000
      5 C8         -6.9618    1.3881   -2.8183 C.ar       1 <1>        0.000
      6 C9         -8.3170    1.4753   -2.4687 C.ar       1 <1>        0.000
      7 C10        -8.7699    0.8461   -1.3181 C.ar       1 <1>        0.000
      8 C11        -7.9140    0.0705   -0.5612 C.ar       1 <1>        0.000
      9 C12        -6.5839   -0.0227   -0.9477 C.ar       1 <1>        0.000
     10 H          -2.7873    0.2202   -1.6299 H.spc      1 <1>        0.000
     11 H          -4.3339    1.3067   -3.0040 H.spc      1 <1>        0.000
     12 H          -6.6123    1.8741   -3.7292 H.spc      1 <1>        0.000
     13 H          -9.0105    2.0341   -3.0972 H.spc      1 <1>        0.000
     14 H          -9.8085    0.9648   -1.0094 H.spc      1 <1>        0.000
     15 H          -8.2752   -0.4575    0.3213 H.spc      1 <1>        0.000
     16 H          -5.9230   -0.6832   -0.3865 H.spc      1 <1>        0.000
@<TRIPOS>BOND
     1    7    8 ar 
     2    8    9 ar 
     3    1    2 2  
     4    3    4 1  
     5    1    3 am 
     6    4    5 ar 
     7    4    9 ar 
     8    5    6 ar 
     9    6    7 ar 
    10    1   10 1  
    11    3   11 1  
    12    5   12 1  
    13    6   13 1  
    14    7   14 1  
    15    8   15 1  
    16    9   16 1  
