#      Rotatable Fragment
#      Build by yxyuan
#
# Name:          frag3-270-3/96164
# Creation time: Sat Jun  5 12:53:23 2010


@<TRIPOS>MOLECULE
frag3-270-3/96164
    9     8     1     1     1
SMALL
USER_CHARGES


@<TRIPOS>ATOM
      1 O5          1.8704    0.2045   -0.5090 O.3        1 <1>        0.000
      2 C18         0.8167   -0.1352    0.2343 C.2        1 <1>        0.000
      3 N1          0.9643    0.3217    1.5217 N.am       1 <1>        0.000
      4 O7         -0.0911   -0.8125   -0.1998 O.2        1 <1>        0.000
      5 N2          2.0467    1.0382    1.9158 N.3        1 <1>        0.000
      6 H           2.4719    0.7381    0.0155 H.spc      1 <1>        0.000
      7 H           0.2351    0.1151    2.2044 H.spc      1 <1>        0.000
      8 H           1.9550    1.2748    2.9037 H.spc      1 <1>        0.000
      9 H           2.8904    0.4826    1.7750 H.spc      1 <1>        0.000
@<TRIPOS>BOND
     1    1    2 1  
     2    2    3 am 
     3    2    4 2  
     4    3    5 1  
     5    1    6 1  
     6    3    7 1  
     7    5    8 1  
     8    5    9 1  
# Name:          frag3-270-3/96164
# Creation time: Sat Jun  5 12:53:23 2010


@<TRIPOS>MOLECULE
frag3-270-3/96164
    9     8     1     1     1
SMALL
USER_CHARGES


@<TRIPOS>ATOM
      1 O5          1.7532   -0.0125   -0.9360 O.3        1 <1>        0.000
      2 C18         0.9953   -0.1174    0.1594 C.2        1 <1>        0.000
      3 N1          1.6931    0.4778    1.1676 N.am       1 <1>        0.000
      4 O7         -0.1143   -0.6074    0.1767 O.2        1 <1>        0.000
      5 N2          1.2796    0.8762    2.3954 N.3        1 <1>        0.000
      6 H           2.5864    0.4065   -0.7083 H.spc      1 <1>        0.000
      7 H           2.6783    0.6500    0.9673 H.spc      1 <1>        0.000
      8 H           2.0648    1.2870    2.9006 H.spc      1 <1>        0.000
      9 H           0.5383    1.5696    2.2948 H.spc      1 <1>        0.000
@<TRIPOS>BOND
     1    1    2 1  
     2    2    3 am 
     3    2    4 2  
     4    3    5 1  
     5    1    6 1  
     6    3    7 1  
     7    5    8 1  
     8    5    9 1  
# Name:          frag3-270-3/96164 -- energy: 2.433986
# Creation time: Sat Jun  5 12:53:23 2010


@<TRIPOS>MOLECULE
frag3-270-3/96164 -- energy: 2.433986
    9     8     1     1     1
SMALL
USER_CHARGES


@<TRIPOS>ATOM
      1 O5          1.7532   -0.0125   -0.9360 O.3        1 <1>        0.000
      2 C18         0.9953   -0.1174    0.1594 C.2        1 <1>        0.000
      3 N1          1.6931    0.4778    1.1676 N.am       1 <1>        0.000
      4 O7         -0.1143   -0.6074    0.1767 O.2        1 <1>        0.000
      5 N2          1.2796    0.8762    2.3954 N.3        1 <1>        0.000
      6 H           2.5864    0.4065   -0.7083 H.spc      1 <1>        0.000
      7 H           2.6783    0.6500    0.9673 H.spc      1 <1>        0.000
      8 H           2.0648    1.2870    2.9006 H.spc      1 <1>        0.000
      9 H           0.5383    1.5696    2.2948 H.spc      1 <1>        0.000
@<TRIPOS>BOND
     1    1    2 1  
     2    2    3 am 
     3    2    4 2  
     4    3    5 1  
     5    1    6 1  
     6    3    7 1  
     7    5    8 1  
     8    5    9 1  
