#      Rotatable Fragment
#      Build by yxyuan
#
# Name:          frag3-138-25/31924
# Creation time: Sat Jun  5 12:52:03 2010


@<TRIPOS>MOLECULE
frag3-138-25/31924
    8     7     1     1     1
SMALL
USER_CHARGES


@<TRIPOS>ATOM
      1 C15         1.2456   -0.2128    0.0028 C.2        1 <1>        0.000
      2 O2          1.2313   -1.4242    0.1095 O.2        1 <1>        0.000
      3 C16        -0.0738    0.5335    0.0847 C.2        1 <1>        0.000
      4 O3          0.0620    1.7318    0.2480 O.2        1 <1>        0.000
      5 N3         -1.2253   -0.1818   -0.0227 N.am       1 <1>        0.000
      6 H           2.1824    0.3237   -0.1479 H.spc      1 <1>        0.000
      7 H          -2.1270    0.2918    0.0330 H.spc      1 <1>        0.000
      8 H          -1.1874   -1.1919   -0.1589 H.spc      1 <1>        0.000
@<TRIPOS>BOND
     1    1    2 2  
     2    1    3 1  
     3    3    4 2  
     4    3    5 am 
     5    1    6 1  
     6    5    7 1  
     7    5    8 1  
# Name:          frag3-138-25/31924
# Creation time: Sat Jun  5 12:52:03 2010


@<TRIPOS>MOLECULE
frag3-138-25/31924
    8     7     1     1     1
SMALL
USER_CHARGES


@<TRIPOS>ATOM
      1 C15         0.7346   -0.7907   -0.1214 C.2        1 <1>        0.000
      2 O2          1.8891   -0.7571    0.2555 O.2        1 <1>        0.000
      3 C16        -0.2004    0.3961    0.0600 C.2        1 <1>        0.000
      4 O3          0.3610    1.4426    0.3398 O.2        1 <1>        0.000
      5 N3         -1.5445    0.1557   -0.1115 N.am       1 <1>        0.000
      6 H           0.3589   -1.6941   -0.6018 H.spc      1 <1>        0.000
      7 H          -2.2163    0.9156   -0.0036 H.spc      1 <1>        0.000
      8 H          -1.8689   -0.7823   -0.3465 H.spc      1 <1>        0.000
@<TRIPOS>BOND
     1    1    2 2  
     2    1    3 1  
     3    3    4 2  
     4    3    5 am 
     5    1    6 1  
     6    5    7 1  
     7    5    8 1  
# Name:          frag3-138-25/31924 -- energy: -0.225516
# Creation time: Sat Jun  5 12:52:03 2010


@<TRIPOS>MOLECULE
frag3-138-25/31924 -- energy: -0.225516
    8     7     1     1     1
SMALL
USER_CHARGES


@<TRIPOS>ATOM
      1 C15         1.2456   -0.2128    0.0028 C.2        1 <1>        0.000
      2 O2          1.2313   -1.4242    0.1095 O.2        1 <1>        0.000
      3 C16        -0.0738    0.5335    0.0847 C.2        1 <1>        0.000
      4 O3          0.0620    1.7318    0.2480 O.2        1 <1>        0.000
      5 N3         -1.2253   -0.1818   -0.0227 N.am       1 <1>        0.000
      6 H           2.1824    0.3237   -0.1479 H.spc      1 <1>        0.000
      7 H          -2.1270    0.2918    0.0330 H.spc      1 <1>        0.000
      8 H          -1.1874   -1.1919   -0.1589 H.spc      1 <1>        0.000
@<TRIPOS>BOND
     1    1    2 2  
     2    1    3 1  
     3    3    4 2  
     4    3    5 am 
     5    1    6 1  
     6    5    7 1  
     7    5    8 1  
# Name:          frag3-138-25/31924 -- energy: -0.223573
# Creation time: Sat Jun  5 12:52:03 2010


@<TRIPOS>MOLECULE
frag3-138-25/31924 -- energy: -0.223573
    8     7     1     1     1
SMALL
USER_CHARGES


@<TRIPOS>ATOM
      1 C15         0.7346   -0.7907   -0.1214 C.2        1 <1>        0.000
      2 O2          1.8891   -0.7571    0.2555 O.2        1 <1>        0.000
      3 C16        -0.2004    0.3961    0.0600 C.2        1 <1>        0.000
      4 O3          0.3610    1.4426    0.3398 O.2        1 <1>        0.000
      5 N3         -1.5445    0.1557   -0.1115 N.am       1 <1>        0.000
      6 H           0.3589   -1.6941   -0.6018 H.spc      1 <1>        0.000
      7 H          -2.2163    0.9156   -0.0036 H.spc      1 <1>        0.000
      8 H          -1.8689   -0.7823   -0.3465 H.spc      1 <1>        0.000
@<TRIPOS>BOND
     1    1    2 2  
     2    1    3 1  
     3    3    4 2  
     4    3    5 am 
     5    1    6 1  
     6    5    7 1  
     7    5    8 1  
