#      Rotatable Fragment
#      Build by yxyuan
#
# Name:          frag2-050-23/92655
# Creation time: Sat Jun  5 12:51:57 2010


@<TRIPOS>MOLECULE
frag2-050-23/92655
   15    16     1     1     1
SMALL
USER_CHARGES


@<TRIPOS>ATOM
      1 C8         -2.2251   -0.0639   -0.0296 C.ar       1 <1>        0.000
      2 C9         -1.9501    1.2970   -0.0525 C.ar       1 <1>        0.000
      3 N1         -0.6762    1.7278   -0.0325 N.ar       1 <1>        0.000
      4 C10         0.3705    0.8762   -0.0063 C.ar       1 <1>        0.000
      5 N2          1.6404    1.3344    0.0012 N.ar       1 <1>        0.000
      6 C11         2.6885    0.4954    0.0269 C.ar       1 <1>        0.000
      7 N3          2.4987   -0.8382    0.0472 N.ar       1 <1>        0.000
      8 C12         1.2550   -1.3530    0.0404 C.ar       1 <1>        0.000
      9 C13         0.1448   -0.5075    0.0135 C.ar       1 <1>        0.000
     10 C14        -1.1730   -0.9698    0.0047 C.ar       1 <1>        0.000
     11 H          -3.2561   -0.4175   -0.0385 H.spc      1 <1>        0.000
     12 H          -2.7677    2.0170   -0.0867 H.spc      1 <1>        0.000
     13 H           3.7018    0.8969    0.0314 H.spc      1 <1>        0.000
     14 H           1.1144   -2.4338    0.0560 H.spc      1 <1>        0.000
     15 H          -1.3756   -2.0406    0.0247 H.spc      1 <1>        0.000
@<TRIPOS>BOND
     1    9   10 ar 
     2    1    2 ar 
     3    1   10 ar 
     4    2    3 ar 
     5    3    4 ar 
     6    4    5 ar 
     7    4    9 ar 
     8    5    6 ar 
     9    6    7 ar 
    10    7    8 ar 
    11    8    9 ar 
    12    1   11 1  
    13    2   12 1  
    14    6   13 1  
    15    8   14 1  
    16   10   15 1  
# Name:          frag2-050-23/92655 -- energy: 0.188805
# Creation time: Sat Jun  5 12:51:57 2010


@<TRIPOS>MOLECULE
frag2-050-23/92655 -- energy: 0.188805
   15    16     1     1     1
SMALL
USER_CHARGES


@<TRIPOS>ATOM
      1 C8         -2.2251   -0.0639   -0.0296 C.ar       1 <1>        0.000
      2 C9         -1.9501    1.2970   -0.0525 C.ar       1 <1>        0.000
      3 N1         -0.6762    1.7278   -0.0325 N.ar       1 <1>        0.000
      4 C10         0.3705    0.8762   -0.0063 C.ar       1 <1>        0.000
      5 N2          1.6404    1.3344    0.0012 N.ar       1 <1>        0.000
      6 C11         2.6885    0.4954    0.0269 C.ar       1 <1>        0.000
      7 N3          2.4987   -0.8382    0.0472 N.ar       1 <1>        0.000
      8 C12         1.2550   -1.3530    0.0404 C.ar       1 <1>        0.000
      9 C13         0.1448   -0.5075    0.0135 C.ar       1 <1>        0.000
     10 C14        -1.1730   -0.9698    0.0047 C.ar       1 <1>        0.000
     11 H          -3.2561   -0.4175   -0.0385 H.spc      1 <1>        0.000
     12 H          -2.7677    2.0170   -0.0867 H.spc      1 <1>        0.000
     13 H           3.7018    0.8969    0.0314 H.spc      1 <1>        0.000
     14 H           1.1144   -2.4338    0.0560 H.spc      1 <1>        0.000
     15 H          -1.3756   -2.0406    0.0247 H.spc      1 <1>        0.000
@<TRIPOS>BOND
     1    9   10 ar 
     2    1    2 ar 
     3    1   10 ar 
     4    2    3 ar 
     5    3    4 ar 
     6    4    5 ar 
     7    4    9 ar 
     8    5    6 ar 
     9    6    7 ar 
    10    7    8 ar 
    11    8    9 ar 
    12    1   11 1  
    13    2   12 1  
    14    6   13 1  
    15    8   14 1  
    16   10   15 1  
