#      Rotatable Fragment
#      Build by yxyuan
#
# Name:          frag4-368-304/150395
# Creation time: Sat Jun  5 12:53:32 2010


@<TRIPOS>MOLECULE
frag4-368-304/150395
   13    13     1     1     1
SMALL
USER_CHARGES


@<TRIPOS>ATOM
      1 C3         -1.6664    0.6648   -0.3117 C.3        1 <1>        0.000
      2 N2         -2.7540    1.5606   -0.1523 N.3        1 <1>        0.000
      3 C6         -0.4731    1.5442   -0.1353 C.3        1 <1>        0.000
      4 C10        -2.2842    2.8487    0.0948 C.3        1 <1>        0.000
      5 N4         -0.8951    2.8577    0.1087 N.3        1 <1>        0.000
      6 H          -1.6767    0.1577   -1.2765 H.spc      1 <1>        0.000
      7 H          -1.6914   -0.1588    0.4018 H.spc      1 <1>        0.000
      8 H          -3.3244    1.2562    0.6366 H.spc      1 <1>        0.000
      9 H           0.1344    1.5192   -1.0399 H.spc      1 <1>        0.000
     10 H           0.1190    1.1894    0.7083 H.spc      1 <1>        0.000
     11 H          -2.6531    3.1834    1.0643 H.spc      1 <1>        0.000
     12 H          -2.6377    3.5147   -0.6923 H.spc      1 <1>        0.000
     13 H          -0.5317    3.4911   -0.6034 H.spc      1 <1>        0.000
@<TRIPOS>BOND
     1    1    2 1  
     2    1    3 1  
     3    2    4 1  
     4    3    5 1  
     5    4    5 1  
     6    1    6 1  
     7    1    7 1  
     8    2    8 1  
     9    3    9 1  
    10    3   10 1  
    11    4   11 1  
    12    4   12 1  
    13    5   13 1  
# Name:          frag4-368-304/150395 -- energy: -0.651765
# Creation time: Sat Jun  5 12:53:32 2010


@<TRIPOS>MOLECULE
frag4-368-304/150395 -- energy: -0.651765
   13    13     1     1     1
SMALL
USER_CHARGES


@<TRIPOS>ATOM
      1 C3         -1.6664    0.6648   -0.3117 C.3        1 <1>        0.000
      2 N2         -2.7540    1.5606   -0.1523 N.3        1 <1>        0.000
      3 C6         -0.4731    1.5442   -0.1353 C.3        1 <1>        0.000
      4 C10        -2.2842    2.8487    0.0948 C.3        1 <1>        0.000
      5 N4         -0.8951    2.8577    0.1087 N.3        1 <1>        0.000
      6 H          -1.6767    0.1577   -1.2765 H.spc      1 <1>        0.000
      7 H          -1.6914   -0.1588    0.4018 H.spc      1 <1>        0.000
      8 H          -3.3244    1.2562    0.6366 H.spc      1 <1>        0.000
      9 H           0.1344    1.5192   -1.0399 H.spc      1 <1>        0.000
     10 H           0.1190    1.1894    0.7083 H.spc      1 <1>        0.000
     11 H          -2.6531    3.1834    1.0643 H.spc      1 <1>        0.000
     12 H          -2.6377    3.5147   -0.6923 H.spc      1 <1>        0.000
     13 H          -0.5317    3.4911   -0.6034 H.spc      1 <1>        0.000
@<TRIPOS>BOND
     1    1    2 1  
     2    1    3 1  
     3    2    4 1  
     4    3    5 1  
     5    4    5 1  
     6    1    6 1  
     7    1    7 1  
     8    2    8 1  
     9    3    9 1  
    10    3   10 1  
    11    4   11 1  
    12    4   12 1  
    13    5   13 1  
