#      Rotatable Fragment
#      Build by yxyuan
#
# Name:          frag4-410-54/48856
# Creation time: Sat Jun  5 12:51:57 2010


@<TRIPOS>MOLECULE
frag4-410-54/48856
   14    15     1     1     1
SMALL
USER_CHARGES


@<TRIPOS>ATOM
      1 C1          1.3545    0.9353    0.0972 C.2        1 <1>        0.000
      2 C2          1.9892   -0.5040   -0.0041 C.2        1 <1>        0.000
      3 N1          1.1138   -1.4413    0.0114 N.2        1 <1>        0.000
      4 C3         -0.1617   -0.7476    0.0135 C.2        1 <1>        0.000
      5 N2         -1.3699   -1.0821    0.2094 N.2        1 <1>        0.000
      6 C4         -2.5042   -0.2574   -0.0637 C.3        1 <1>        0.000
      7 N3         -2.1037    1.0955   -0.1914 N.2        1 <1>        0.000
      8 C5         -0.9191    1.5618   -0.1772 C.2        1 <1>        0.000
      9 C6          0.1567    0.6210   -0.4001 C.2        1 <1>        0.000
     10 H           1.7617    1.8803    0.4567 H.spc      1 <1>        0.000
     11 H           3.0616   -0.6842   -0.0795 H.spc      1 <1>        0.000
     12 H          -3.2151   -0.3438    0.7580 H.spc      1 <1>        0.000
     13 H          -2.9668   -0.5828   -0.9955 H.spc      1 <1>        0.000
     14 H          -0.7247    2.6204   -0.0051 H.spc      1 <1>        0.000
@<TRIPOS>BOND
     1    1    2 1  
     2    1    9 2  
     3    2    3 2  
     4    3    4 1  
     5    4    9 1  
     6    4    5 2  
     7    5    6 1  
     8    6    7 1  
     9    7    8 2  
    10    8    9 1  
    11    1   10 1  
    12    2   11 1  
    13    6   12 1  
    14    6   13 1  
    15    8   14 1  
# Name:          frag4-410-54/48856 -- energy: -0.473173
# Creation time: Sat Jun  5 12:51:57 2010


@<TRIPOS>MOLECULE
frag4-410-54/48856 -- energy: -0.473173
   14    15     1     1     1
SMALL
USER_CHARGES


@<TRIPOS>ATOM
      1 C1          1.3545    0.9353    0.0972 C.2        1 <1>        0.000
      2 C2          1.9892   -0.5040   -0.0041 C.2        1 <1>        0.000
      3 N1          1.1138   -1.4413    0.0114 N.2        1 <1>        0.000
      4 C3         -0.1617   -0.7476    0.0135 C.2        1 <1>        0.000
      5 N2         -1.3699   -1.0821    0.2094 N.2        1 <1>        0.000
      6 C4         -2.5042   -0.2574   -0.0637 C.3        1 <1>        0.000
      7 N3         -2.1037    1.0955   -0.1914 N.2        1 <1>        0.000
      8 C5         -0.9191    1.5618   -0.1772 C.2        1 <1>        0.000
      9 C6          0.1567    0.6210   -0.4001 C.2        1 <1>        0.000
     10 H           1.7617    1.8803    0.4567 H.spc      1 <1>        0.000
     11 H           3.0616   -0.6842   -0.0795 H.spc      1 <1>        0.000
     12 H          -3.2151   -0.3438    0.7580 H.spc      1 <1>        0.000
     13 H          -2.9668   -0.5828   -0.9955 H.spc      1 <1>        0.000
     14 H          -0.7247    2.6204   -0.0051 H.spc      1 <1>        0.000
@<TRIPOS>BOND
     1    1    2 1  
     2    1    9 2  
     3    2    3 2  
     4    3    4 1  
     5    4    9 1  
     6    4    5 2  
     7    5    6 1  
     8    6    7 1  
     9    7    8 2  
    10    8    9 1  
    11    1   10 1  
    12    2   11 1  
    13    6   12 1  
    14    6   13 1  
    15    8   14 1  
