#      Rotatable Fragment
#      Build by yxyuan
#
# Name:          frag5-625-87/138278
# Creation time: Sat Jun  5 12:53:48 2010


@<TRIPOS>MOLECULE
frag5-625-87/138278
   18    19     1     1     1
SMALL
USER_CHARGES


@<TRIPOS>ATOM
      1 C1          0.6366    0.2954    0.3051 C.3        1 <1>        0.000
      2 C2         -0.7855   -0.1810    0.1630 C.ar       1 <1>        0.000
      3 C4          1.3981   -1.0657    0.3747 C.3        1 <1>        0.000
      4 C5         -0.7684   -1.5752    0.1203 C.ar       1 <1>        0.000
      5 C6         -1.9782    0.5305    0.0835 C.ar       1 <1>        0.000
      6 O1          0.4742   -2.1628    0.2216 O.3        1 <1>        0.000
      7 C11        -1.9597   -2.2815   -0.0143 C.ar       1 <1>        0.000
      8 C12        -3.1894   -0.1666   -0.0286 C.ar       1 <1>        0.000
      9 C16        -3.1593   -1.5753   -0.0858 C.ar       1 <1>        0.000
     10 O2         -4.3824    0.5361   -0.0810 O.3        1 <1>        0.000
     11 H           0.8028    0.9395    1.1686 H.spc      1 <1>        0.000
     12 H           0.9677    0.9463   -0.5041 H.spc      1 <1>        0.000
     13 H           1.8925   -1.1485    1.3426 H.spc      1 <1>        0.000
     14 H           2.1335   -1.1042   -0.4289 H.spc      1 <1>        0.000
     15 H          -1.9711    1.6202    0.1081 H.spc      1 <1>        0.000
     16 H          -1.9549   -3.3704   -0.0631 H.spc      1 <1>        0.000
     17 H          -4.0953   -2.1244   -0.1882 H.spc      1 <1>        0.000
     18 H          -4.2006    1.4773   -0.0289 H.spc      1 <1>        0.000
@<TRIPOS>BOND
     1    4    7 ar 
     2    8   10 1  
     3    7    9 ar 
     4    4    6 1  
     5    8    9 ar 
     6    5    8 ar 
     7    1    2 1  
     8    1    3 1  
     9    2    4 ar 
    10    2    5 ar 
    11    3    6 1  
    12    1   11 1  
    13    1   12 1  
    14    3   13 1  
    15    3   14 1  
    16    5   15 1  
    17    7   16 1  
    18    9   17 1  
    19   10   18 1  
# Name:          frag5-625-87/138278 -- energy: -0.836634
# Creation time: Sat Jun  5 12:53:48 2010


@<TRIPOS>MOLECULE
frag5-625-87/138278 -- energy: -0.836634
   18    19     1     1     1
SMALL
USER_CHARGES


@<TRIPOS>ATOM
      1 C1          0.6366    0.2954    0.3051 C.3        1 <1>        0.000
      2 C2         -0.7855   -0.1810    0.1630 C.ar       1 <1>        0.000
      3 C4          1.3981   -1.0657    0.3747 C.3        1 <1>        0.000
      4 C5         -0.7684   -1.5752    0.1203 C.ar       1 <1>        0.000
      5 C6         -1.9782    0.5305    0.0835 C.ar       1 <1>        0.000
      6 O1          0.4742   -2.1628    0.2216 O.3        1 <1>        0.000
      7 C11        -1.9597   -2.2815   -0.0143 C.ar       1 <1>        0.000
      8 C12        -3.1894   -0.1666   -0.0286 C.ar       1 <1>        0.000
      9 C16        -3.1593   -1.5753   -0.0858 C.ar       1 <1>        0.000
     10 O2         -4.3824    0.5361   -0.0810 O.3        1 <1>        0.000
     11 H           0.8028    0.9395    1.1686 H.spc      1 <1>        0.000
     12 H           0.9677    0.9463   -0.5041 H.spc      1 <1>        0.000
     13 H           1.8925   -1.1485    1.3426 H.spc      1 <1>        0.000
     14 H           2.1335   -1.1042   -0.4289 H.spc      1 <1>        0.000
     15 H          -1.9711    1.6202    0.1081 H.spc      1 <1>        0.000
     16 H          -1.9549   -3.3704   -0.0631 H.spc      1 <1>        0.000
     17 H          -4.0953   -2.1244   -0.1882 H.spc      1 <1>        0.000
     18 H          -4.2006    1.4773   -0.0289 H.spc      1 <1>        0.000
@<TRIPOS>BOND
     1    4    7 ar 
     2    8   10 1  
     3    7    9 ar 
     4    4    6 1  
     5    8    9 ar 
     6    5    8 ar 
     7    1    2 1  
     8    1    3 1  
     9    2    4 ar 
    10    2    5 ar 
    11    3    6 1  
    12    1   11 1  
    13    1   12 1  
    14    3   13 1  
    15    3   14 1  
    16    5   15 1  
    17    7   16 1  
    18    9   17 1  
    19   10   18 1  
