#      Rotatable Fragment
#      Build by yxyuan
#
# Name:          frag4-393-231/150395
# Creation time: Sat Jun  5 12:53:34 2010


@<TRIPOS>MOLECULE
frag4-393-231/150395
   23    25     1     1     1
SMALL
USER_CHARGES


@<TRIPOS>ATOM
      1 C1          1.2603    0.2008    0.0302 C.3        1 <1>        0.000
      2 C2          2.2617   -0.9584   -0.0413 C.ar       1 <1>        0.000
      3 C3          2.2514    1.3706    0.0182 C.ar       1 <1>        0.000
      4 C5          3.5837   -0.5238   -0.0569 C.ar       1 <1>        0.000
      5 C6          1.9698   -2.3224   -0.0907 C.ar       1 <1>        0.000
      6 C7          3.5773    0.9491   -0.0152 C.ar       1 <1>        0.000
      7 C8          1.9473    2.7331    0.0343 C.ar       1 <1>        0.000
      8 C9          4.6529   -1.4190   -0.1080 C.ar       1 <1>        0.000
      9 C10         3.0316   -3.2331   -0.1510 C.ar       1 <1>        0.000
     10 C11         4.6388    1.8547   -0.0095 C.ar       1 <1>        0.000
     11 C12         3.0014    3.6545    0.0233 C.ar       1 <1>        0.000
     12 C14         4.3600   -2.7864   -0.1564 C.ar       1 <1>        0.000
     13 C15         4.3343    3.2205    0.0080 C.ar       1 <1>        0.000
     14 H           0.5173    0.2179   -0.7672 H.spc      1 <1>        0.000
     15 H           0.5869    0.1760    0.8869 H.spc      1 <1>        0.000
     16 H           0.9372   -2.6712   -0.0825 H.spc      1 <1>        0.000
     17 H           0.9116    3.0722    0.0550 H.spc      1 <1>        0.000
     18 H           5.6836   -1.0643   -0.1101 H.spc      1 <1>        0.000
     19 H           2.8226   -4.3020   -0.1942 H.spc      1 <1>        0.000
     20 H           5.6726    1.5092   -0.0184 H.spc      1 <1>        0.000
     21 H           2.7830    4.7224    0.0267 H.spc      1 <1>        0.000
     22 H           5.1729   -3.5113   -0.1987 H.spc      1 <1>        0.000
     23 H           5.1409    3.9536    0.0098 H.spc      1 <1>        0.000
@<TRIPOS>BOND
     1    8   12 ar 
     2    2    5 ar 
     3    5    9 ar 
     4    3    6 ar 
     5    2    4 ar 
     6   10   13 ar 
     7   11   13 ar 
     8    4    6 1  
     9    9   12 ar 
    10    4    8 ar 
    11    1    3 1  
    12    1    2 1  
    13    3    7 ar 
    14    7   11 ar 
    15    6   10 ar 
    16    1   14 1  
    17    1   15 1  
    18    5   16 1  
    19    7   17 1  
    20    8   18 1  
    21    9   19 1  
    22   10   20 1  
    23   11   21 1  
    24   12   22 1  
    25   13   23 1  
# Name:          frag4-393-231/150395 -- energy: -1.295657
# Creation time: Sat Jun  5 12:53:34 2010


@<TRIPOS>MOLECULE
frag4-393-231/150395 -- energy: -1.295657
   23    25     1     1     1
SMALL
USER_CHARGES


@<TRIPOS>ATOM
      1 C1          1.2603    0.2008    0.0302 C.3        1 <1>        0.000
      2 C2          2.2617   -0.9584   -0.0413 C.ar       1 <1>        0.000
      3 C3          2.2514    1.3706    0.0182 C.ar       1 <1>        0.000
      4 C5          3.5837   -0.5238   -0.0569 C.ar       1 <1>        0.000
      5 C6          1.9698   -2.3224   -0.0907 C.ar       1 <1>        0.000
      6 C7          3.5773    0.9491   -0.0152 C.ar       1 <1>        0.000
      7 C8          1.9473    2.7331    0.0343 C.ar       1 <1>        0.000
      8 C9          4.6529   -1.4190   -0.1080 C.ar       1 <1>        0.000
      9 C10         3.0316   -3.2331   -0.1510 C.ar       1 <1>        0.000
     10 C11         4.6388    1.8547   -0.0095 C.ar       1 <1>        0.000
     11 C12         3.0014    3.6545    0.0233 C.ar       1 <1>        0.000
     12 C14         4.3600   -2.7864   -0.1564 C.ar       1 <1>        0.000
     13 C15         4.3343    3.2205    0.0080 C.ar       1 <1>        0.000
     14 H           0.5173    0.2179   -0.7672 H.spc      1 <1>        0.000
     15 H           0.5869    0.1760    0.8869 H.spc      1 <1>        0.000
     16 H           0.9372   -2.6712   -0.0825 H.spc      1 <1>        0.000
     17 H           0.9116    3.0722    0.0550 H.spc      1 <1>        0.000
     18 H           5.6836   -1.0643   -0.1101 H.spc      1 <1>        0.000
     19 H           2.8226   -4.3020   -0.1942 H.spc      1 <1>        0.000
     20 H           5.6726    1.5092   -0.0184 H.spc      1 <1>        0.000
     21 H           2.7830    4.7224    0.0267 H.spc      1 <1>        0.000
     22 H           5.1729   -3.5113   -0.1987 H.spc      1 <1>        0.000
     23 H           5.1409    3.9536    0.0098 H.spc      1 <1>        0.000
@<TRIPOS>BOND
     1    8   12 ar 
     2    2    5 ar 
     3    5    9 ar 
     4    3    6 ar 
     5    2    4 ar 
     6   10   13 ar 
     7   11   13 ar 
     8    4    6 1  
     9    9   12 ar 
    10    4    8 ar 
    11    1    3 1  
    12    1    2 1  
    13    3    7 ar 
    14    7   11 ar 
    15    6   10 ar 
    16    1   14 1  
    17    1   15 1  
    18    5   16 1  
    19    7   17 1  
    20    8   18 1  
    21    9   19 1  
    22   10   20 1  
    23   11   21 1  
    24   12   22 1  
    25   13   23 1  
