#      Rotatable Fragment
#      Build by yxyuan
#
# Name:          frag3-099-343/31924
# Creation time: Sat Jun  5 12:51:59 2010


@<TRIPOS>MOLECULE
frag3-099-343/31924
   10     9     1     1     1
SMALL
USER_CHARGES


@<TRIPOS>ATOM
      1 C20         1.8892    0.0693   -0.1339 C.2        1 <1>        0.000
      2 C21         0.5926   -0.2081   -0.2499 C.2        1 <1>        0.000
      3 C22        -0.5812    0.2451    0.4152 C.2        1 <1>        0.000
      4 C23        -0.7345    1.2810    1.2391 C.2        1 <1>        0.000
      5 H           2.2275    0.7926    0.6081 H.spc      1 <1>        0.000
      6 H           2.6127   -0.4268   -0.7809 H.spc      1 <1>        0.000
      7 H           0.3836   -0.9450   -1.0254 H.spc      1 <1>        0.000
      8 H          -1.4822   -0.3376    0.2235 H.spc      1 <1>        0.000
      9 H           0.1184    1.9146    1.4825 H.spc      1 <1>        0.000
     10 H          -1.7128    1.4948    1.6697 H.spc      1 <1>        0.000
@<TRIPOS>BOND
     1    1    2 2  
     2    2    3 1  
     3    3    4 2  
     4    1    5 1  
     5    1    6 1  
     6    2    7 1  
     7    3    8 1  
     8    4    9 1  
     9    4   10 1  
# Name:          frag3-099-343/31924
# Creation time: Sat Jun  5 12:51:59 2010


@<TRIPOS>MOLECULE
frag3-099-343/31924
   10     9     1     1     1
SMALL
USER_CHARGES


@<TRIPOS>ATOM
      1 C20         1.7970   -0.3245   -0.6060 C.2        1 <1>        0.000
      2 C21         0.9437    0.1206    0.3082 C.2        1 <1>        0.000
      3 C22        -0.4367    0.4806    0.3031 C.2        1 <1>        0.000
      4 C23        -1.1379    1.1105    1.2652 C.2        1 <1>        0.000
      5 H           1.4627   -0.4857   -1.6309 H.spc      1 <1>        0.000
      6 H           2.8320   -0.5288   -0.3318 H.spc      1 <1>        0.000
      7 H           1.4040    0.2382    1.2892 H.spc      1 <1>        0.000
      8 H          -0.9950    0.2117   -0.5936 H.spc      1 <1>        0.000
      9 H          -0.6459    1.4102    2.1905 H.spc      1 <1>        0.000
     10 H          -2.1973    1.3206    1.1185 H.spc      1 <1>        0.000
@<TRIPOS>BOND
     1    1    2 2  
     2    2    3 1  
     3    3    4 2  
     4    1    5 1  
     5    1    6 1  
     6    2    7 1  
     7    3    8 1  
     8    4    9 1  
     9    4   10 1  
# Name:          frag3-099-343/31924 -- energy: -0.476964
# Creation time: Sat Jun  5 12:51:59 2010


@<TRIPOS>MOLECULE
frag3-099-343/31924 -- energy: -0.476964
   10     9     1     1     1
SMALL
USER_CHARGES


@<TRIPOS>ATOM
      1 C20         1.8892    0.0693   -0.1339 C.2        1 <1>        0.000
      2 C21         0.5926   -0.2081   -0.2499 C.2        1 <1>        0.000
      3 C22        -0.5812    0.2451    0.4152 C.2        1 <1>        0.000
      4 C23        -0.7345    1.2810    1.2391 C.2        1 <1>        0.000
      5 H           2.2275    0.7926    0.6081 H.spc      1 <1>        0.000
      6 H           2.6127   -0.4268   -0.7809 H.spc      1 <1>        0.000
      7 H           0.3836   -0.9450   -1.0254 H.spc      1 <1>        0.000
      8 H          -1.4822   -0.3376    0.2235 H.spc      1 <1>        0.000
      9 H           0.1184    1.9146    1.4825 H.spc      1 <1>        0.000
     10 H          -1.7128    1.4948    1.6697 H.spc      1 <1>        0.000
@<TRIPOS>BOND
     1    1    2 2  
     2    2    3 1  
     3    3    4 2  
     4    1    5 1  
     5    1    6 1  
     6    2    7 1  
     7    3    8 1  
     8    4    9 1  
     9    4   10 1  
# Name:          frag3-099-343/31924 -- energy: -0.393772
# Creation time: Sat Jun  5 12:51:59 2010


@<TRIPOS>MOLECULE
frag3-099-343/31924 -- energy: -0.393772
   10     9     1     1     1
SMALL
USER_CHARGES


@<TRIPOS>ATOM
      1 C20         1.7970   -0.3245   -0.6060 C.2        1 <1>        0.000
      2 C21         0.9437    0.1206    0.3082 C.2        1 <1>        0.000
      3 C22        -0.4367    0.4806    0.3031 C.2        1 <1>        0.000
      4 C23        -1.1379    1.1105    1.2652 C.2        1 <1>        0.000
      5 H           1.4627   -0.4857   -1.6309 H.spc      1 <1>        0.000
      6 H           2.8320   -0.5288   -0.3318 H.spc      1 <1>        0.000
      7 H           1.4040    0.2382    1.2892 H.spc      1 <1>        0.000
      8 H          -0.9950    0.2117   -0.5936 H.spc      1 <1>        0.000
      9 H          -0.6459    1.4102    2.1905 H.spc      1 <1>        0.000
     10 H          -2.1973    1.3206    1.1185 H.spc      1 <1>        0.000
@<TRIPOS>BOND
     1    1    2 2  
     2    2    3 1  
     3    3    4 2  
     4    1    5 1  
     5    1    6 1  
     6    2    7 1  
     7    3    8 1  
     8    4    9 1  
     9    4   10 1  
