#      Rotatable Fragment
#      Build by yxyuan
#
# Name:          frag3-223-6/96164
# Creation time: Sat Jun  5 12:53:14 2010


@<TRIPOS>MOLECULE
frag3-223-6/96164
    6     5     1     1     1
SMALL
USER_CHARGES


@<TRIPOS>ATOM
      1 C27        -0.6373    0.2113    0.1644 C.2        1 <1>        0.000
      2 C28         0.5935   -0.1976   -0.1533 C.2        1 <1>        0.000
      3 F1          1.5899    0.6949   -0.2950 F          1 <1>        0.000
      4 F2          0.8398   -1.5116   -0.3331 F          1 <1>        0.000
      5 H          -1.4409   -0.5163    0.2780 H.spc      1 <1>        0.000
      6 H          -0.8384    1.2726    0.3101 H.spc      1 <1>        0.000
@<TRIPOS>BOND
     1    1    2 2  
     2    2    3 1  
     3    2    4 1  
     4    1    5 1  
     5    1    6 1  
# Name:          frag3-223-6/96164 -- energy: -0.094639
# Creation time: Sat Jun  5 12:53:14 2010


@<TRIPOS>MOLECULE
frag3-223-6/96164 -- energy: -0.094639
    6     5     1     1     1
SMALL
USER_CHARGES


@<TRIPOS>ATOM
      1 C27        -0.6373    0.2113    0.1644 C.2        1 <1>        0.000
      2 C28         0.5935   -0.1976   -0.1533 C.2        1 <1>        0.000
      3 F1          1.5899    0.6949   -0.2950 F          1 <1>        0.000
      4 F2          0.8398   -1.5116   -0.3331 F          1 <1>        0.000
      5 H          -1.4409   -0.5163    0.2780 H.spc      1 <1>        0.000
      6 H          -0.8384    1.2726    0.3101 H.spc      1 <1>        0.000
@<TRIPOS>BOND
     1    1    2 2  
     2    2    3 1  
     3    2    4 1  
     4    1    5 1  
     5    1    6 1  
