#      Rotatable Fragment
#      Build by yxyuan
#
# Name:          frag3-140-25/31924
# Creation time: Sat Jun  5 12:52:03 2010


@<TRIPOS>MOLECULE
frag3-140-25/31924
    8     7     1     1     1
SMALL
USER_CHARGES


@<TRIPOS>ATOM
      1 S1         -0.0608    1.9695    0.4623 S.2        1 <1>        0.000
      2 C1         -0.0085    0.3687    0.0863 C.2        1 <1>        0.000
      3 N1          1.2001   -0.1386   -0.2365 N.am       1 <1>        0.000
      4 N2         -1.1938   -0.2844    0.1145 N.am       1 <1>        0.000
      5 H           2.0225    0.4648   -0.2386 H.spc      1 <1>        0.000
      6 H           1.2910   -1.1254   -0.4783 H.spc      1 <1>        0.000
      7 H          -2.0473    0.2181    0.3585 H.spc      1 <1>        0.000
      8 H          -1.2335   -1.2790   -0.1082 H.spc      1 <1>        0.000
@<TRIPOS>BOND
     1    1    2 2  
     2    2    3 am 
     3    2    4 am 
     4    3    5 1  
     5    3    6 1  
     6    4    7 1  
     7    4    8 1  
# Name:          frag3-140-25/31924 -- energy: -0.204739
# Creation time: Sat Jun  5 12:52:03 2010


@<TRIPOS>MOLECULE
frag3-140-25/31924 -- energy: -0.204739
    8     7     1     1     1
SMALL
USER_CHARGES


@<TRIPOS>ATOM
      1 S1         -0.0608    1.9695    0.4623 S.2        1 <1>        0.000
      2 C1         -0.0085    0.3687    0.0863 C.2        1 <1>        0.000
      3 N1          1.2001   -0.1386   -0.2365 N.am       1 <1>        0.000
      4 N2         -1.1938   -0.2844    0.1145 N.am       1 <1>        0.000
      5 H           2.0225    0.4648   -0.2386 H.spc      1 <1>        0.000
      6 H           1.2910   -1.1254   -0.4783 H.spc      1 <1>        0.000
      7 H          -2.0473    0.2181    0.3585 H.spc      1 <1>        0.000
      8 H          -1.2335   -1.2790   -0.1082 H.spc      1 <1>        0.000
@<TRIPOS>BOND
     1    1    2 2  
     2    2    3 am 
     3    2    4 am 
     4    3    5 1  
     5    3    6 1  
     6    4    7 1  
     7    4    8 1  
