#      Rotatable Fragment
#      Build by yxyuan
#
# Name:          frag3-096-655/96164
# Creation time: Sat Jun  5 12:52:45 2010


@<TRIPOS>MOLECULE
frag3-096-655/96164
    7     6     1     1     1
SMALL
USER_CHARGES


@<TRIPOS>ATOM
      1 N5         -0.7096    1.8129    0.0871 N.am       1 <1>        0.000
      2 S1         -2.1568    2.2921   -0.4794 S.o2       1 <1>        0.000
      3 O1         -3.1751    1.9149    0.4459 O.2        1 <1>        0.000
      4 O2         -2.1337    2.2878   -1.9137 O.2        1 <1>        0.000
      5 H          -0.6480    1.3237    0.9800 H.spc      1 <1>        0.000
      6 H           0.1364    2.0016   -0.4505 H.spc      1 <1>        0.000
      7 H          -2.5871    3.5505   -0.4728 H.spc      1 <1>        0.000
@<TRIPOS>BOND
     1    1    2 1  
     2    2    3 2  
     3    2    4 2  
     4    1    5 1  
     5    1    6 1  
     6    2    7 1  
# Name:          frag3-096-655/96164 -- energy: -0.113492
# Creation time: Sat Jun  5 12:52:45 2010


@<TRIPOS>MOLECULE
frag3-096-655/96164 -- energy: -0.113492
    7     6     1     1     1
SMALL
USER_CHARGES


@<TRIPOS>ATOM
      1 N5         -0.7096    1.8129    0.0871 N.am       1 <1>        0.000
      2 S1         -2.1568    2.2921   -0.4794 S.o2       1 <1>        0.000
      3 O1         -3.1751    1.9149    0.4459 O.2        1 <1>        0.000
      4 O2         -2.1337    2.2878   -1.9137 O.2        1 <1>        0.000
      5 H          -0.6480    1.3237    0.9800 H.spc      1 <1>        0.000
      6 H           0.1364    2.0016   -0.4505 H.spc      1 <1>        0.000
      7 H          -2.5871    3.5505   -0.4728 H.spc      1 <1>        0.000
@<TRIPOS>BOND
     1    1    2 1  
     2    2    3 2  
     3    2    4 2  
     4    1    5 1  
     5    1    6 1  
     6    2    7 1  
