#      Rotatable Fragment
#      Build by yxyuan
#
# Name:          frag5-668-66/138278
# Creation time: Sat Jun  5 12:51:51 2010


@<TRIPOS>MOLECULE
frag5-668-66/138278
   37    39     1     1     1
SMALL
USER_CHARGES


@<TRIPOS>ATOM
      1 C1          2.4091   -0.9110   -0.1624 C.3        1 <1>        0.000
      2 C2          1.3259   -1.2357    0.8992 C.3        1 <1>        0.000
      3 C3          3.0915    0.4625    0.0231 C.3        1 <1>        0.000
      4 C4          1.7952   -1.0134   -1.5810 C.3        1 <1>        0.000
      5 C5          3.4395   -2.0278    0.0700 C.3        1 <1>        0.000
      6 C6         -0.1188   -0.8279    0.6139 C.3        1 <1>        0.000
      7 C7          1.5084   -2.7250    1.1427 C.2        1 <1>        0.000
      8 C8          2.4168    1.6967    0.5886 C.3        1 <1>        0.000
      9 C10         0.4886   -1.7566   -1.7171 C.3        1 <1>        0.000
     10 C11         2.7595   -3.2719    0.5475 C.3        1 <1>        0.000
     11 C12        -0.4554    0.6240    0.9363 C.3        1 <1>        0.000
     12 C13        -0.5850   -1.3116   -0.7583 C.3        1 <1>        0.000
     13 O1          0.7187   -3.4171    1.7711 O.2        1 <1>        0.000
     14 C15         1.7400    1.6607    1.9410 C.3        1 <1>        0.000
     15 C16         0.2726    1.3069    2.0680 C.3        1 <1>        0.000
     16 H           1.4832   -0.6123    1.7794 H.spc      1 <1>        0.000
     17 H           3.8503    0.2463    0.7751 H.spc      1 <1>        0.000
     18 H           3.2992    0.7604   -1.0046 H.spc      1 <1>        0.000
     19 H           2.5169   -1.5737   -2.1753 H.spc      1 <1>        0.000
     20 H           1.5851    0.0116   -1.8865 H.spc      1 <1>        0.000
     21 H           3.9512   -2.2403   -0.8687 H.spc      1 <1>        0.000
     22 H           4.1539   -1.7008    0.8256 H.spc      1 <1>        0.000
     23 H          -0.7289   -1.3639    1.3409 H.spc      1 <1>        0.000
     24 H           1.6042    1.8982   -0.1094 H.spc      1 <1>        0.000
     25 H           3.2319    2.4085    0.7187 H.spc      1 <1>        0.000
     26 H           0.6939   -2.8053   -1.5023 H.spc      1 <1>        0.000
     27 H           0.1165   -1.5665   -2.7238 H.spc      1 <1>        0.000
     28 H           3.3579   -3.8505    1.2512 H.spc      1 <1>        0.000
     29 H           2.5813   -3.9999   -0.2439 H.spc      1 <1>        0.000
     30 H          -1.5015    0.6095    1.2422 H.spc      1 <1>        0.000
     31 H          -0.1758    1.1831    0.0433 H.spc      1 <1>        0.000
     32 H          -1.0735   -0.4581   -1.2284 H.spc      1 <1>        0.000
     33 H          -1.2058   -2.1883   -0.5735 H.spc      1 <1>        0.000
     34 H           2.2528    0.8591    2.4726 H.spc      1 <1>        0.000
     35 H           1.7955    2.6910    2.2925 H.spc      1 <1>        0.000
     36 H          -0.2271    2.2709    2.1637 H.spc      1 <1>        0.000
     37 H           0.2423    0.5816    2.8811 H.spc      1 <1>        0.000
@<TRIPOS>BOND
     1    6   12 1  
     2    3    8 1  
     3    1    3 1  
     4    2    7 1  
     5    5   10 1  
     6    1    5 1  
     7    7   13 2  
     8    6   11 1  
     9    1    4 1  
    10    2    6 1  
    11    4    9 1  
    12    1    2 1  
    13   14   15 1  
    14   11   15 1  
    15    9   12 1  
    16    8   14 1  
    17    7   10 1  
    18    2   16 1  
    19    3   17 1  
    20    3   18 1  
    21    4   19 1  
    22    4   20 1  
    23    5   21 1  
    24    5   22 1  
    25    6   23 1  
    26    8   24 1  
    27    8   25 1  
    28    9   26 1  
    29    9   27 1  
    30   10   28 1  
    31   10   29 1  
    32   11   30 1  
    33   11   31 1  
    34   12   32 1  
    35   12   33 1  
    36   14   34 1  
    37   14   35 1  
    38   15   36 1  
    39   15   37 1  
# Name:          frag5-668-66/138278 -- energy: -4.853964
# Creation time: Sat Jun  5 12:51:51 2010


@<TRIPOS>MOLECULE
frag5-668-66/138278 -- energy: -4.853964
   37    39     1     1     1
SMALL
USER_CHARGES


@<TRIPOS>ATOM
      1 C1          2.4091   -0.9110   -0.1624 C.3        1 <1>        0.000
      2 C2          1.3259   -1.2357    0.8992 C.3        1 <1>        0.000
      3 C3          3.0915    0.4625    0.0231 C.3        1 <1>        0.000
      4 C4          1.7952   -1.0134   -1.5810 C.3        1 <1>        0.000
      5 C5          3.4395   -2.0278    0.0700 C.3        1 <1>        0.000
      6 C6         -0.1188   -0.8279    0.6139 C.3        1 <1>        0.000
      7 C7          1.5084   -2.7250    1.1427 C.2        1 <1>        0.000
      8 C8          2.4168    1.6967    0.5886 C.3        1 <1>        0.000
      9 C10         0.4886   -1.7566   -1.7171 C.3        1 <1>        0.000
     10 C11         2.7595   -3.2719    0.5475 C.3        1 <1>        0.000
     11 C12        -0.4554    0.6240    0.9363 C.3        1 <1>        0.000
     12 C13        -0.5850   -1.3116   -0.7583 C.3        1 <1>        0.000
     13 O1          0.7187   -3.4171    1.7711 O.2        1 <1>        0.000
     14 C15         1.7400    1.6607    1.9410 C.3        1 <1>        0.000
     15 C16         0.2726    1.3069    2.0680 C.3        1 <1>        0.000
     16 H           1.4832   -0.6123    1.7794 H.spc      1 <1>        0.000
     17 H           3.8503    0.2463    0.7751 H.spc      1 <1>        0.000
     18 H           3.2992    0.7604   -1.0046 H.spc      1 <1>        0.000
     19 H           2.5169   -1.5737   -2.1753 H.spc      1 <1>        0.000
     20 H           1.5851    0.0116   -1.8865 H.spc      1 <1>        0.000
     21 H           3.9512   -2.2403   -0.8687 H.spc      1 <1>        0.000
     22 H           4.1539   -1.7008    0.8256 H.spc      1 <1>        0.000
     23 H          -0.7289   -1.3639    1.3409 H.spc      1 <1>        0.000
     24 H           1.6042    1.8982   -0.1094 H.spc      1 <1>        0.000
     25 H           3.2319    2.4085    0.7187 H.spc      1 <1>        0.000
     26 H           0.6939   -2.8053   -1.5023 H.spc      1 <1>        0.000
     27 H           0.1165   -1.5665   -2.7238 H.spc      1 <1>        0.000
     28 H           3.3579   -3.8505    1.2512 H.spc      1 <1>        0.000
     29 H           2.5813   -3.9999   -0.2439 H.spc      1 <1>        0.000
     30 H          -1.5015    0.6095    1.2422 H.spc      1 <1>        0.000
     31 H          -0.1758    1.1831    0.0433 H.spc      1 <1>        0.000
     32 H          -1.0735   -0.4581   -1.2284 H.spc      1 <1>        0.000
     33 H          -1.2058   -2.1883   -0.5735 H.spc      1 <1>        0.000
     34 H           2.2528    0.8591    2.4726 H.spc      1 <1>        0.000
     35 H           1.7955    2.6910    2.2925 H.spc      1 <1>        0.000
     36 H          -0.2271    2.2709    2.1637 H.spc      1 <1>        0.000
     37 H           0.2423    0.5816    2.8811 H.spc      1 <1>        0.000
@<TRIPOS>BOND
     1    6   12 1  
     2    3    8 1  
     3    1    3 1  
     4    2    7 1  
     5    5   10 1  
     6    1    5 1  
     7    7   13 2  
     8    6   11 1  
     9    1    4 1  
    10    2    6 1  
    11    4    9 1  
    12    1    2 1  
    13   14   15 1  
    14   11   15 1  
    15    9   12 1  
    16    8   14 1  
    17    7   10 1  
    18    2   16 1  
    19    3   17 1  
    20    3   18 1  
    21    4   19 1  
    22    4   20 1  
    23    5   21 1  
    24    5   22 1  
    25    6   23 1  
    26    8   24 1  
    27    8   25 1  
    28    9   26 1  
    29    9   27 1  
    30   10   28 1  
    31   10   29 1  
    32   11   30 1  
    33   11   31 1  
    34   12   32 1  
    35   12   33 1  
    36   14   34 1  
    37   14   35 1  
    38   15   36 1  
    39   15   37 1  
