#      Rotatable Fragment
#      Build by yxyuan
#
# Name:          frag3-121-67/96164
# Creation time: Sat Jun  5 12:52:51 2010


@<TRIPOS>MOLECULE
frag3-121-67/96164
    5     4     1     1     1
SMALL
USER_CHARGES


@<TRIPOS>ATOM
      1 N4         -3.4125   -0.3248    0.0348 N.3        1 <1>        0.000
      2 O5         -4.5995    0.3360    0.3005 O.3        1 <1>        0.000
      3 H          -3.5906   -1.0955   -0.6092 H.spc      1 <1>        0.000
      4 H          -2.7496    0.3258   -0.3867 H.spc      1 <1>        0.000
      5 H          -4.4319    1.0614    0.9066 H.spc      1 <1>        0.000
@<TRIPOS>BOND
     1    1    2 1  
     2    1    3 1  
     3    1    4 1  
     4    2    5 1  
# Name:          frag3-121-67/96164 -- energy: -0.030044
# Creation time: Sat Jun  5 12:52:51 2010


@<TRIPOS>MOLECULE
frag3-121-67/96164 -- energy: -0.030044
    5     4     1     1     1
SMALL
USER_CHARGES


@<TRIPOS>ATOM
      1 N4         -3.4125   -0.3248    0.0348 N.3        1 <1>        0.000
      2 O5         -4.5995    0.3360    0.3005 O.3        1 <1>        0.000
      3 H          -3.5906   -1.0955   -0.6092 H.spc      1 <1>        0.000
      4 H          -2.7496    0.3258   -0.3867 H.spc      1 <1>        0.000
      5 H          -4.4319    1.0614    0.9066 H.spc      1 <1>        0.000
@<TRIPOS>BOND
     1    1    2 1  
     2    1    3 1  
     3    1    4 1  
     4    2    5 1  
