#      Rotatable Fragment
#      Build by yxyuan
#
# Name:          frag4-295-1585/48856
# Creation time: Sat Jun  5 12:52:47 2010


@<TRIPOS>MOLECULE
frag4-295-1585/48856
   13    13     1     1     1
SMALL
USER_CHARGES


@<TRIPOS>ATOM
      1 C7          0.0428    0.6351    2.6791 C.3        1 <1>        0.000
      2 O2          0.9375   -0.3646    3.0816 O.3        1 <1>        0.000
      3 C8          0.6074   -1.5995    2.5096 C.3        1 <1>        0.000
      4 C9         -0.5913   -1.3030    1.6376 C.3        1 <1>        0.000
      5 C10        -0.4733    0.1570    1.3476 C.3        1 <1>        0.000
      6 H           0.5227    1.6111    2.6071 H.spc      1 <1>        0.000
      7 H          -0.7598    0.7831    3.4016 H.spc      1 <1>        0.000
      8 H           0.3872   -2.3542    3.2646 H.spc      1 <1>        0.000
      9 H           1.4350   -2.0198    1.9381 H.spc      1 <1>        0.000
     10 H          -1.5319   -1.5524    2.1288 H.spc      1 <1>        0.000
     11 H          -0.6012   -1.9056    0.7294 H.spc      1 <1>        0.000
     12 H           0.1646    0.4017    0.4983 H.spc      1 <1>        0.000
     13 H          -1.3986    0.6320    1.0215 H.spc      1 <1>        0.000
@<TRIPOS>BOND
     1    1    2 1  
     2    1    5 1  
     3    2    3 1  
     4    3    4 1  
     5    4    5 1  
     6    1    6 1  
     7    1    7 1  
     8    3    8 1  
     9    3    9 1  
    10    4   10 1  
    11    4   11 1  
    12    5   12 1  
    13    5   13 1  
# Name:          frag4-295-1585/48856 -- energy: -0.737446
# Creation time: Sat Jun  5 12:52:47 2010


@<TRIPOS>MOLECULE
frag4-295-1585/48856 -- energy: -0.737446
   13    13     1     1     1
SMALL
USER_CHARGES


@<TRIPOS>ATOM
      1 C7          0.0428    0.6351    2.6791 C.3        1 <1>        0.000
      2 O2          0.9375   -0.3646    3.0816 O.3        1 <1>        0.000
      3 C8          0.6074   -1.5995    2.5096 C.3        1 <1>        0.000
      4 C9         -0.5913   -1.3030    1.6376 C.3        1 <1>        0.000
      5 C10        -0.4733    0.1570    1.3476 C.3        1 <1>        0.000
      6 H           0.5227    1.6111    2.6071 H.spc      1 <1>        0.000
      7 H          -0.7598    0.7831    3.4016 H.spc      1 <1>        0.000
      8 H           0.3872   -2.3542    3.2646 H.spc      1 <1>        0.000
      9 H           1.4350   -2.0198    1.9381 H.spc      1 <1>        0.000
     10 H          -1.5319   -1.5524    2.1288 H.spc      1 <1>        0.000
     11 H          -0.6012   -1.9056    0.7294 H.spc      1 <1>        0.000
     12 H           0.1646    0.4017    0.4983 H.spc      1 <1>        0.000
     13 H          -1.3986    0.6320    1.0215 H.spc      1 <1>        0.000
@<TRIPOS>BOND
     1    1    2 1  
     2    1    5 1  
     3    2    3 1  
     4    3    4 1  
     5    4    5 1  
     6    1    6 1  
     7    1    7 1  
     8    3    8 1  
     9    3    9 1  
    10    4   10 1  
    11    4   11 1  
    12    5   12 1  
    13    5   13 1  
