#      Rotatable Fragment
#      Build by yxyuan
#
# Name:          frag4-460-106/150395
# Creation time: Sat Jun  5 12:53:37 2010


@<TRIPOS>MOLECULE
frag4-460-106/150395
   19    20     1     1     1
SMALL
USER_CHARGES


@<TRIPOS>ATOM
      1 C1         -0.9405    1.5161   -0.1557 C.ar       1 <1>        0.000
      2 C2         -0.9446    0.0928   -0.0918 C.ar       1 <1>        0.000
      3 C3         -2.1491    2.2045   -0.0912 C.ar       1 <1>        0.000
      4 O1          0.2591    2.1744   -0.2932 O.3        1 <1>        0.000
      5 N1          0.2349   -0.5742   -0.1294 N.pl3      1 <1>        0.000
      6 C4         -2.1677   -0.5678    0.0191 C.ar       1 <1>        0.000
      7 C5         -3.3567    1.5273    0.0220 C.ar       1 <1>        0.000
      8 C7          1.4242    1.4765   -0.7068 C.3        1 <1>        0.000
      9 C8          1.3662    0.1084   -0.0766 C.3        1 <1>        0.000
     10 C10        -3.3642    0.1318    0.0758 C.ar       1 <1>        0.000
     11 H          -2.1476    3.2938   -0.1302 H.spc      1 <1>        0.000
     12 H           0.2496   -1.5918   -0.1977 H.spc      1 <1>        0.000
     13 H          -2.1839   -1.6568    0.0621 H.spc      1 <1>        0.000
     14 H          -4.2937    2.0823    0.0686 H.spc      1 <1>        0.000
     15 H           1.4617    1.3991   -1.7934 H.spc      1 <1>        0.000
     16 H           2.3231    2.0074   -0.3935 H.spc      1 <1>        0.000
     17 H           1.5409    0.2808    0.9854 H.spc      1 <1>        0.000
     18 H           2.0821   -0.4906   -0.6394 H.spc      1 <1>        0.000
     19 H          -4.3081   -0.4064    0.1621 H.spc      1 <1>        0.000
@<TRIPOS>BOND
     1    8    9 1  
     2    7   10 ar 
     3    6   10 ar 
     4    5    9 1  
     5    1    2 ar 
     6    1    4 1  
     7    1    3 ar 
     8    2    5 1  
     9    2    6 ar 
    10    3    7 ar 
    11    4    8 1  
    12    3   11 1  
    13    5   12 1  
    14    6   13 1  
    15    7   14 1  
    16    8   15 1  
    17    8   16 1  
    18    9   17 1  
    19    9   18 1  
    20   10   19 1  
# Name:          frag4-460-106/150395 -- energy: -0.524278
# Creation time: Sat Jun  5 12:53:37 2010


@<TRIPOS>MOLECULE
frag4-460-106/150395 -- energy: -0.524278
   19    20     1     1     1
SMALL
USER_CHARGES


@<TRIPOS>ATOM
      1 C1         -0.9405    1.5161   -0.1557 C.ar       1 <1>        0.000
      2 C2         -0.9446    0.0928   -0.0918 C.ar       1 <1>        0.000
      3 C3         -2.1491    2.2045   -0.0912 C.ar       1 <1>        0.000
      4 O1          0.2591    2.1744   -0.2932 O.3        1 <1>        0.000
      5 N1          0.2349   -0.5742   -0.1294 N.pl3      1 <1>        0.000
      6 C4         -2.1677   -0.5678    0.0191 C.ar       1 <1>        0.000
      7 C5         -3.3567    1.5273    0.0220 C.ar       1 <1>        0.000
      8 C7          1.4242    1.4765   -0.7068 C.3        1 <1>        0.000
      9 C8          1.3662    0.1084   -0.0766 C.3        1 <1>        0.000
     10 C10        -3.3642    0.1318    0.0758 C.ar       1 <1>        0.000
     11 H          -2.1476    3.2938   -0.1302 H.spc      1 <1>        0.000
     12 H           0.2496   -1.5918   -0.1977 H.spc      1 <1>        0.000
     13 H          -2.1839   -1.6568    0.0621 H.spc      1 <1>        0.000
     14 H          -4.2937    2.0823    0.0686 H.spc      1 <1>        0.000
     15 H           1.4617    1.3991   -1.7934 H.spc      1 <1>        0.000
     16 H           2.3231    2.0074   -0.3935 H.spc      1 <1>        0.000
     17 H           1.5409    0.2808    0.9854 H.spc      1 <1>        0.000
     18 H           2.0821   -0.4906   -0.6394 H.spc      1 <1>        0.000
     19 H          -4.3081   -0.4064    0.1621 H.spc      1 <1>        0.000
@<TRIPOS>BOND
     1    8    9 1  
     2    7   10 ar 
     3    6   10 ar 
     4    5    9 1  
     5    1    2 ar 
     6    1    4 1  
     7    1    3 ar 
     8    2    5 1  
     9    2    6 ar 
    10    3    7 ar 
    11    4    8 1  
    12    3   11 1  
    13    5   12 1  
    14    6   13 1  
    15    7   14 1  
    16    8   15 1  
    17    8   16 1  
    18    9   17 1  
    19    9   18 1  
    20   10   19 1  
