#      Rotatable Fragment
#      Build by yxyuan
#
# Name:          frag3-257-4/96164
# Creation time: Sat Jun  5 12:53:21 2010


@<TRIPOS>MOLECULE
frag3-257-4/96164
   11    10     1     1     1
SMALL
USER_CHARGES


@<TRIPOS>ATOM
      1 C2         -1.0819    0.5079   -0.0177 C.2        1 <1>        0.000
      2 C5          0.1811    0.8788    0.1339 C.2        1 <1>        0.000
      3 N1         -1.7038   -0.6786   -0.1823 N.pl3      1 <1>        0.000
      4 C9          1.2200   -0.1529    0.1574 C.2        1 <1>        0.000
      5 O3          2.3900    0.2504    0.6562 O.3        1 <1>        0.000
      6 O4          1.0634   -1.3003   -0.2116 O.2        1 <1>        0.000
      7 H          -1.7739    1.3500   -0.0071 H.spc      1 <1>        0.000
      8 H           0.4418    1.9319    0.2391 H.spc      1 <1>        0.000
      9 H          -1.1591   -1.5406   -0.2085 H.spc      1 <1>        0.000
     10 H          -2.7185   -0.7133   -0.2805 H.spc      1 <1>        0.000
     11 H           2.3324    1.1788    0.8937 H.spc      1 <1>        0.000
@<TRIPOS>BOND
     1    1    2 2  
     2    1    3 1  
     3    2    4 1  
     4    4    5 1  
     5    4    6 2  
     6    1    7 1  
     7    2    8 1  
     8    3    9 1  
     9    3   10 1  
    10    5   11 1  
# Name:          frag3-257-4/96164
# Creation time: Sat Jun  5 12:53:21 2010


@<TRIPOS>MOLECULE
frag3-257-4/96164
   11    10     1     1     1
SMALL
USER_CHARGES


@<TRIPOS>ATOM
      1 C2         -1.0601    0.4234   -0.1833 C.2        1 <1>        0.000
      2 C5          0.1539    0.4851   -0.7260 C.2        1 <1>        0.000
      3 N1         -1.6013   -0.1478    0.9010 N.pl3      1 <1>        0.000
      4 C9          1.2369   -0.2302   -0.0582 C.2        1 <1>        0.000
      5 O3          1.0393   -0.5630    1.2211 O.3        1 <1>        0.000
      6 O4          2.3001   -0.4623   -0.6187 O.2        1 <1>        0.000
      7 H          -1.7975    0.9750   -0.7664 H.spc      1 <1>        0.000
      8 H           0.3334    1.0516   -1.6397 H.spc      1 <1>        0.000
      9 H          -1.0180   -0.6950    1.5340 H.spc      1 <1>        0.000
     10 H          -2.5966   -0.0355    1.0935 H.spc      1 <1>        0.000
     11 H           0.1531   -0.3044    1.4846 H.spc      1 <1>        0.000
@<TRIPOS>BOND
     1    1    2 2  
     2    1    3 1  
     3    2    4 1  
     4    4    5 1  
     5    4    6 2  
     6    1    7 1  
     7    2    8 1  
     8    3    9 1  
     9    3   10 1  
    10    5   11 1  
# Name:          frag3-257-4/96164
# Creation time: Sat Jun  5 12:53:21 2010


@<TRIPOS>MOLECULE
frag3-257-4/96164
   11    10     1     1     1
SMALL
USER_CHARGES


@<TRIPOS>ATOM
      1 C2         -1.0811    0.3703    0.2340 C.2        1 <1>        0.000
      2 C5          0.0070    0.2139    0.9904 C.2        1 <1>        0.000
      3 N1         -1.4153    0.1966   -1.0531 N.pl3      1 <1>        0.000
      4 C9          1.1912   -0.3159    0.3405 C.2        1 <1>        0.000
      5 O3          1.5448    0.2675   -0.8052 O.3        1 <1>        0.000
      6 O4          1.8223   -1.2271    0.8293 O.2        1 <1>        0.000
      7 H          -1.9242    0.7377    0.8190 H.spc      1 <1>        0.000
      8 H           0.0063    0.4726    2.0493 H.spc      1 <1>        0.000
      9 H          -0.7216   -0.1444   -1.7186 H.spc      1 <1>        0.000
     10 H          -2.3632    0.4055   -1.3666 H.spc      1 <1>        0.000
     11 H           0.9168    0.9622   -1.0164 H.spc      1 <1>        0.000
@<TRIPOS>BOND
     1    1    2 2  
     2    1    3 1  
     3    2    4 1  
     4    4    5 1  
     5    4    6 2  
     6    1    7 1  
     7    2    8 1  
     8    3    9 1  
     9    3   10 1  
    10    5   11 1  
# Name:          frag3-257-4/96164
# Creation time: Sat Jun  5 12:53:21 2010


@<TRIPOS>MOLECULE
frag3-257-4/96164
   11    10     1     1     1
SMALL
USER_CHARGES


@<TRIPOS>ATOM
      1 C2         -1.0904    0.4636    0.1356 C.2        1 <1>        0.000
      2 C5          0.0830    0.6097    0.7582 C.2        1 <1>        0.000
      3 N1         -1.5357   -0.3239   -0.8438 N.pl3      1 <1>        0.000
      4 C9          1.1975   -0.2349    0.3067 C.2        1 <1>        0.000
      5 O3          2.2209    0.4380   -0.2183 O.3        1 <1>        0.000
      6 O4          1.1937   -1.4473    0.3976 O.2        1 <1>        0.000
      7 H          -1.8561    1.1410    0.5137 H.spc      1 <1>        0.000
      8 H           0.2085    1.3272    1.5691 H.spc      1 <1>        0.000
      9 H          -0.9091   -1.0014   -1.2782 H.spc      1 <1>        0.000
     10 H          -2.5030   -0.2489   -1.1586 H.spc      1 <1>        0.000
     11 H           2.0283    1.3783   -0.1979 H.spc      1 <1>        0.000
@<TRIPOS>BOND
     1    1    2 2  
     2    1    3 1  
     3    2    4 1  
     4    4    5 1  
     5    4    6 2  
     6    1    7 1  
     7    2    8 1  
     8    3    9 1  
     9    3   10 1  
    10    5   11 1  
# Name:          frag3-257-4/96164 -- energy: 0.014449
# Creation time: Sat Jun  5 12:53:21 2010


@<TRIPOS>MOLECULE
frag3-257-4/96164 -- energy: 0.014449
   11    10     1     1     1
SMALL
USER_CHARGES


@<TRIPOS>ATOM
      1 C2         -1.0819    0.5079   -0.0177 C.2        1 <1>        0.000
      2 C5          0.1811    0.8788    0.1339 C.2        1 <1>        0.000
      3 N1         -1.7038   -0.6786   -0.1823 N.pl3      1 <1>        0.000
      4 C9          1.2200   -0.1529    0.1574 C.2        1 <1>        0.000
      5 O3          2.3900    0.2504    0.6562 O.3        1 <1>        0.000
      6 O4          1.0634   -1.3003   -0.2116 O.2        1 <1>        0.000
      7 H          -1.7739    1.3500   -0.0071 H.spc      1 <1>        0.000
      8 H           0.4418    1.9319    0.2391 H.spc      1 <1>        0.000
      9 H          -1.1591   -1.5406   -0.2085 H.spc      1 <1>        0.000
     10 H          -2.7185   -0.7133   -0.2805 H.spc      1 <1>        0.000
     11 H           2.3324    1.1788    0.8937 H.spc      1 <1>        0.000
@<TRIPOS>BOND
     1    1    2 2  
     2    1    3 1  
     3    2    4 1  
     4    4    5 1  
     5    4    6 2  
     6    1    7 1  
     7    2    8 1  
     8    3    9 1  
     9    3   10 1  
    10    5   11 1  
# Name:          frag3-257-4/96164 -- energy: -0.225505
# Creation time: Sat Jun  5 12:53:21 2010


@<TRIPOS>MOLECULE
frag3-257-4/96164 -- energy: -0.225505
   11    10     1     1     1
SMALL
USER_CHARGES


@<TRIPOS>ATOM
      1 C2         -1.0811    0.3703    0.2340 C.2        1 <1>        0.000
      2 C5          0.0070    0.2139    0.9904 C.2        1 <1>        0.000
      3 N1         -1.4153    0.1966   -1.0531 N.pl3      1 <1>        0.000
      4 C9          1.1912   -0.3159    0.3405 C.2        1 <1>        0.000
      5 O3          1.5448    0.2675   -0.8052 O.3        1 <1>        0.000
      6 O4          1.8223   -1.2271    0.8293 O.2        1 <1>        0.000
      7 H          -1.9242    0.7377    0.8190 H.spc      1 <1>        0.000
      8 H           0.0063    0.4726    2.0493 H.spc      1 <1>        0.000
      9 H          -0.7216   -0.1444   -1.7186 H.spc      1 <1>        0.000
     10 H          -2.3632    0.4055   -1.3666 H.spc      1 <1>        0.000
     11 H           0.9168    0.9622   -1.0164 H.spc      1 <1>        0.000
@<TRIPOS>BOND
     1    1    2 2  
     2    1    3 1  
     3    2    4 1  
     4    4    5 1  
     5    4    6 2  
     6    1    7 1  
     7    2    8 1  
     8    3    9 1  
     9    3   10 1  
    10    5   11 1  
# Name:          frag3-257-4/96164 -- energy: -0.534449
# Creation time: Sat Jun  5 12:53:21 2010


@<TRIPOS>MOLECULE
frag3-257-4/96164 -- energy: -0.534449
   11    10     1     1     1
SMALL
USER_CHARGES


@<TRIPOS>ATOM
      1 C2         -1.0904    0.4636    0.1356 C.2        1 <1>        0.000
      2 C5          0.0830    0.6097    0.7582 C.2        1 <1>        0.000
      3 N1         -1.5357   -0.3239   -0.8438 N.pl3      1 <1>        0.000
      4 C9          1.1975   -0.2349    0.3067 C.2        1 <1>        0.000
      5 O3          2.2209    0.4380   -0.2183 O.3        1 <1>        0.000
      6 O4          1.1937   -1.4473    0.3976 O.2        1 <1>        0.000
      7 H          -1.8561    1.1410    0.5137 H.spc      1 <1>        0.000
      8 H           0.2085    1.3272    1.5691 H.spc      1 <1>        0.000
      9 H          -0.9091   -1.0014   -1.2782 H.spc      1 <1>        0.000
     10 H          -2.5030   -0.2489   -1.1586 H.spc      1 <1>        0.000
     11 H           2.0283    1.3783   -0.1979 H.spc      1 <1>        0.000
@<TRIPOS>BOND
     1    1    2 2  
     2    1    3 1  
     3    2    4 1  
     4    4    5 1  
     5    4    6 2  
     6    1    7 1  
     7    2    8 1  
     8    3    9 1  
     9    3   10 1  
    10    5   11 1  
