#      Rotatable Fragment
#      Build by yxyuan
#
# Name:          frag3-185-7/31924
# Creation time: Sat Jun  5 12:52:09 2010


@<TRIPOS>MOLECULE
frag3-185-7/31924
   13    12     1     1     1
SMALL
USER_CHARGES


@<TRIPOS>ATOM
      1 C10        -0.7153    1.2054   -0.0338 C.2        1 <1>        0.000
      2 C11        -0.1930   -0.0054    0.1305 C.2        1 <1>        0.000
      3 N2          1.1338   -0.2764    0.2396 N.am       1 <1>        0.000
      4 C12         2.2862    0.4027    0.0676 C.2        1 <1>        0.000
      5 O4          3.4510    0.0731    0.2714 O.2        1 <1>        0.000
      6 C18        -1.2331   -1.0685    0.0841 C.2        1 <1>        0.000
      7 O5         -2.4359   -0.8590    0.0262 O.2        1 <1>        0.000
      8 O6         -0.7483   -2.3160    0.0508 O.3        1 <1>        0.000
      9 H          -0.0633    2.0771   -0.0906 H.spc      1 <1>        0.000
     10 H          -1.7957    1.3269   -0.1117 H.spc      1 <1>        0.000
     11 H           1.3014   -1.2413    0.5249 H.spc      1 <1>        0.000
     12 H           2.1625    1.4150   -0.3173 H.spc      1 <1>        0.000
     13 H           0.2097   -2.2874    0.1064 H.spc      1 <1>        0.000
@<TRIPOS>BOND
     1    1    2 2  
     2    2    6 1  
     3    2    3 1  
     4    3    4 am 
     5    4    5 2  
     6    6    7 2  
     7    6    8 1  
     8    1    9 1  
     9    1   10 1  
    10    3   11 1  
    11    4   12 1  
    12    8   13 1  
# Name:          frag3-185-7/31924
# Creation time: Sat Jun  5 12:52:09 2010


@<TRIPOS>MOLECULE
frag3-185-7/31924
   13    12     1     1     1
SMALL
USER_CHARGES


@<TRIPOS>ATOM
      1 C10        -0.3465    1.0982    0.3235 C.2        1 <1>        0.000
      2 C11        -0.0266   -0.1928    0.1662 C.2        1 <1>        0.000
      3 N2          1.2363   -0.6829    0.1051 N.am       1 <1>        0.000
      4 C12         2.4815   -0.1190    0.1010 C.2        1 <1>        0.000
      5 O4          2.8699    1.0428    0.1052 O.2        1 <1>        0.000
      6 C18        -1.2393   -1.0387    0.0302 C.2        1 <1>        0.000
      7 O5         -2.3170   -0.6211   -0.3683 O.2        1 <1>        0.000
      8 O6         -1.1128   -2.3305    0.3737 O.3        1 <1>        0.000
      9 H           0.4400    1.8475    0.4136 H.spc      1 <1>        0.000
     10 H          -1.3933    1.3996    0.3614 H.spc      1 <1>        0.000
     11 H           1.2631   -1.7010    0.0498 H.spc      1 <1>        0.000
     12 H           3.2907   -0.8492    0.0922 H.spc      1 <1>        0.000
     13 H          -0.2127   -2.4969    0.6630 H.spc      1 <1>        0.000
@<TRIPOS>BOND
     1    1    2 2  
     2    2    6 1  
     3    2    3 1  
     4    3    4 am 
     5    4    5 2  
     6    6    7 2  
     7    6    8 1  
     8    1    9 1  
     9    1   10 1  
    10    3   11 1  
    11    4   12 1  
    12    8   13 1  
# Name:          frag3-185-7/31924
# Creation time: Sat Jun  5 12:52:09 2010


@<TRIPOS>MOLECULE
frag3-185-7/31924
   13    12     1     1     1
SMALL
USER_CHARGES


@<TRIPOS>ATOM
      1 C10        -1.1149    1.2820   -0.3580 C.2        1 <1>        0.000
      2 C11        -0.2768    0.2838   -0.0519 C.2        1 <1>        0.000
      3 N2          1.0728    0.4144    0.0290 N.am       1 <1>        0.000
      4 C12         2.0791   -0.4224    0.3598 C.2        1 <1>        0.000
      5 O4          3.2941   -0.2361    0.4194 O.2        1 <1>        0.000
      6 C18        -1.0221   -0.9961    0.1264 C.2        1 <1>        0.000
      7 O5         -2.1353   -1.1031    0.6200 O.2        1 <1>        0.000
      8 O6         -0.3516   -2.0666   -0.3083 O.3        1 <1>        0.000
      9 H          -0.7238    2.2788   -0.5619 H.spc      1 <1>        0.000
     10 H          -2.1883    1.0979   -0.4033 H.spc      1 <1>        0.000
     11 H           1.3972    1.3505   -0.2135 H.spc      1 <1>        0.000
     12 H           1.7622   -1.4330    0.6174 H.spc      1 <1>        0.000
     13 H           0.4972   -1.7896   -0.6610 H.spc      1 <1>        0.000
@<TRIPOS>BOND
     1    1    2 2  
     2    2    6 1  
     3    2    3 1  
     4    3    4 am 
     5    4    5 2  
     6    6    7 2  
     7    6    8 1  
     8    1    9 1  
     9    1   10 1  
    10    3   11 1  
    11    4   12 1  
    12    8   13 1  
# Name:          frag3-185-7/31924
# Creation time: Sat Jun  5 12:52:09 2010


@<TRIPOS>MOLECULE
frag3-185-7/31924
   13    12     1     1     1
SMALL
USER_CHARGES


@<TRIPOS>ATOM
      1 C10        -1.2408    1.2557    0.4069 C.2        1 <1>        0.000
      2 C11        -0.2455    0.3887    0.1783 C.2        1 <1>        0.000
      3 N2          1.0549    0.7632    0.0862 N.am       1 <1>        0.000
      4 C12         2.2178    0.0629   -0.0223 C.2        1 <1>        0.000
      5 O4          2.4440   -1.1310    0.1369 O.2        1 <1>        0.000
      6 C18        -0.7811   -0.9922    0.0202 C.2        1 <1>        0.000
      7 O5         -1.8809   -1.2119   -0.4821 O.2        1 <1>        0.000
      8 O6         -0.0231   -1.9793    0.5124 O.3        1 <1>        0.000
      9 H          -1.0223    2.3167    0.5282 H.spc      1 <1>        0.000
     10 H          -2.2692    0.9002    0.4716 H.spc      1 <1>        0.000
     11 H           1.1890    1.7742    0.1013 H.spc      1 <1>        0.000
     12 H           3.0877    0.6606   -0.2947 H.spc      1 <1>        0.000
     13 H           0.7933   -1.6119    0.8590 H.spc      1 <1>        0.000
@<TRIPOS>BOND
     1    1    2 2  
     2    2    6 1  
     3    2    3 1  
     4    3    4 am 
     5    4    5 2  
     6    6    7 2  
     7    6    8 1  
     8    1    9 1  
     9    1   10 1  
    10    3   11 1  
    11    4   12 1  
    12    8   13 1  
# Name:          frag3-185-7/31924
# Creation time: Sat Jun  5 12:52:09 2010


@<TRIPOS>MOLECULE
frag3-185-7/31924
   13    12     1     1     1
SMALL
USER_CHARGES


@<TRIPOS>ATOM
      1 C10        -1.1536    1.2273    0.5190 C.2        1 <1>        0.000
      2 C11        -0.2829    0.2536    0.2574 C.2        1 <1>        0.000
      3 N2          1.0671    0.4170    0.2109 N.am       1 <1>        0.000
      4 C12         2.1178   -0.4126    0.0385 C.2        1 <1>        0.000
      5 O4          3.3112   -0.1695   -0.0460 O.2        1 <1>        0.000
      6 C18        -1.0094   -1.0023   -0.0054 C.2        1 <1>        0.000
      7 O5         -1.9657   -1.0724   -0.7578 O.2        1 <1>        0.000
      8 O6         -0.5391   -2.0851    0.6198 O.3        1 <1>        0.000
      9 H          -0.7976    2.2388    0.7146 H.spc      1 <1>        0.000
     10 H          -2.2221    1.0125    0.5375 H.spc      1 <1>        0.000
     11 H           1.3499    1.3892    0.3347 H.spc      1 <1>        0.000
     12 H           1.8594   -1.4688   -0.0374 H.spc      1 <1>        0.000
     13 H           0.2107   -1.8376    1.1658 H.spc      1 <1>        0.000
@<TRIPOS>BOND
     1    1    2 2  
     2    2    6 1  
     3    2    3 1  
     4    3    4 am 
     5    4    5 2  
     6    6    7 2  
     7    6    8 1  
     8    1    9 1  
     9    1   10 1  
    10    3   11 1  
    11    4   12 1  
    12    8   13 1  
# Name:          frag3-185-7/31924
# Creation time: Sat Jun  5 12:52:09 2010


@<TRIPOS>MOLECULE
frag3-185-7/31924
   13    12     1     1     1
SMALL
USER_CHARGES


@<TRIPOS>ATOM
      1 C10        -0.7182    1.1375    0.6565 C.2        1 <1>        0.000
      2 C11        -0.1817   -0.0369    0.2963 C.2        1 <1>        0.000
      3 N2          1.1393   -0.2959    0.0936 N.am       1 <1>        0.000
      4 C12         2.2491    0.4561    0.0083 C.2        1 <1>        0.000
      5 O4          3.4214    0.1227   -0.0589 O.2        1 <1>        0.000
      6 C18        -1.2062   -1.0716   -0.0035 C.2        1 <1>        0.000
      7 O5         -1.9672   -1.0110   -0.9630 O.2        1 <1>        0.000
      8 O6         -1.1912   -2.1449    0.8072 O.3        1 <1>        0.000
      9 H          -0.0763    2.0039    0.8159 H.spc      1 <1>        0.000
     10 H          -1.7964    1.2261    0.7900 H.spc      1 <1>        0.000
     11 H           1.3307   -1.2914   -0.0197 H.spc      1 <1>        0.000
     12 H           2.0757    1.5322   -0.0026 H.spc      1 <1>        0.000
     13 H          -0.5368   -2.0141    1.4973 H.spc      1 <1>        0.000
@<TRIPOS>BOND
     1    1    2 2  
     2    2    6 1  
     3    2    3 1  
     4    3    4 am 
     5    4    5 2  
     6    6    7 2  
     7    6    8 1  
     8    1    9 1  
     9    1   10 1  
    10    3   11 1  
    11    4   12 1  
    12    8   13 1  
# Name:          frag3-185-7/31924
# Creation time: Sat Jun  5 12:52:09 2010


@<TRIPOS>MOLECULE
frag3-185-7/31924
   13    12     1     1     1
SMALL
USER_CHARGES


@<TRIPOS>ATOM
      1 C10        -1.2181    1.1768    0.5101 C.2        1 <1>        0.000
      2 C11        -0.2787    0.2498    0.3144 C.2        1 <1>        0.000
      3 N2          1.0400    0.4948    0.1693 N.am       1 <1>        0.000
      4 C12         2.1156   -0.3362    0.1466 C.2        1 <1>        0.000
      5 O4          3.2793   -0.0926   -0.1383 O.2        1 <1>        0.000
      6 C18        -0.9207   -1.0754    0.0187 C.2        1 <1>        0.000
      7 O5         -0.4215   -1.8269   -0.8030 O.2        1 <1>        0.000
      8 O6         -2.0505   -1.4342    0.6187 O.3        1 <1>        0.000
      9 H          -0.9418    2.2298    0.5637 H.spc      1 <1>        0.000
     10 H          -2.2618    0.8811    0.6164 H.spc      1 <1>        0.000
     11 H           1.2718    1.4817    0.0562 H.spc      1 <1>        0.000
     12 H           1.9106   -1.3705    0.4227 H.spc      1 <1>        0.000
     13 H          -2.3176   -0.7466    1.2330 H.spc      1 <1>        0.000
@<TRIPOS>BOND
     1    1    2 2  
     2    2    6 1  
     3    2    3 1  
     4    3    4 am 
     5    4    5 2  
     6    6    7 2  
     7    6    8 1  
     8    1    9 1  
     9    1   10 1  
    10    3   11 1  
    11    4   12 1  
    12    8   13 1  
# Name:          frag3-185-7/31924
# Creation time: Sat Jun  5 12:52:09 2010


@<TRIPOS>MOLECULE
frag3-185-7/31924
   13    12     1     1     1
SMALL
USER_CHARGES


@<TRIPOS>ATOM
      1 C10        -1.2403    1.0455   -0.7299 C.2        1 <1>        0.000
      2 C11        -0.2592    0.3330   -0.1635 C.2        1 <1>        0.000
      3 N2          0.9867    0.8141    0.0428 N.am       1 <1>        0.000
      4 C12         2.1512    0.2185    0.4226 C.2        1 <1>        0.000
      5 O4          2.4898   -0.9396    0.5829 O.2        1 <1>        0.000
      6 C18        -0.7068   -1.0466    0.1807 C.2        1 <1>        0.000
      7 O5         -0.4084   -1.5895    1.2212 O.2        1 <1>        0.000
      8 O6         -1.4677   -1.6794   -0.7203 O.3        1 <1>        0.000
      9 H          -1.0539    2.0701   -1.0516 H.spc      1 <1>        0.000
     10 H          -2.2258    0.6012   -0.8695 H.spc      1 <1>        0.000
     11 H           1.0714    1.8180   -0.1169 H.spc      1 <1>        0.000
     12 H           2.9505    0.9310    0.6265 H.spc      1 <1>        0.000
     13 H          -1.6053   -1.1078   -1.4792 H.spc      1 <1>        0.000
@<TRIPOS>BOND
     1    1    2 2  
     2    2    6 1  
     3    2    3 1  
     4    3    4 am 
     5    4    5 2  
     6    6    7 2  
     7    6    8 1  
     8    1    9 1  
     9    1   10 1  
    10    3   11 1  
    11    4   12 1  
    12    8   13 1  
# Name:          frag3-185-7/31924
# Creation time: Sat Jun  5 12:52:09 2010


@<TRIPOS>MOLECULE
frag3-185-7/31924
   13    12     1     1     1
SMALL
USER_CHARGES


@<TRIPOS>ATOM
      1 C10        -1.1085    1.0999   -0.7068 C.2        1 <1>        0.000
      2 C11        -0.2642    0.2047   -0.1750 C.2        1 <1>        0.000
      3 N2          1.0564    0.4313    0.0076 N.am       1 <1>        0.000
      4 C12         2.0907   -0.2982    0.4944 C.2        1 <1>        0.000
      5 O4          3.2797   -0.0298    0.5771 O.2        1 <1>        0.000
      6 C18        -0.9651   -1.0634    0.1639 C.2        1 <1>        0.000
      7 O5         -0.6892   -1.6577    1.1955 O.2        1 <1>        0.000
      8 O6         -1.8545   -1.5309   -0.7201 O.3        1 <1>        0.000
      9 H          -0.7405    2.0767   -1.0205 H.spc      1 <1>        0.000
     10 H          -2.1630    0.8509   -0.8255 H.spc      1 <1>        0.000
     11 H           1.3395    1.3653   -0.2889 H.spc      1 <1>        0.000
     12 H           1.8171   -1.2830    0.8730 H.spc      1 <1>        0.000
     13 H          -1.9251   -0.9183   -1.4558 H.spc      1 <1>        0.000
@<TRIPOS>BOND
     1    1    2 2  
     2    2    6 1  
     3    2    3 1  
     4    3    4 am 
     5    4    5 2  
     6    6    7 2  
     7    6    8 1  
     8    1    9 1  
     9    1   10 1  
    10    3   11 1  
    11    4   12 1  
    12    8   13 1  
# Name:          frag3-185-7/31924
# Creation time: Sat Jun  5 12:52:09 2010


@<TRIPOS>MOLECULE
frag3-185-7/31924
   13    12     1     1     1
SMALL
USER_CHARGES


@<TRIPOS>ATOM
      1 C10        -1.2346    1.1367   -0.5462 C.2        1 <1>        0.000
      2 C11        -0.2335    0.3524   -0.1543 C.2        1 <1>        0.000
      3 N2          1.0811    0.6960   -0.2202 N.am       1 <1>        0.000
      4 C12         2.2042    0.0654    0.2147 C.2        1 <1>        0.000
      5 O4          2.3850   -0.9850    0.8064 O.2        1 <1>        0.000
      6 C18        -0.7688   -0.9842    0.2076 C.2        1 <1>        0.000
      7 O5         -1.5868   -1.1543    1.0950 O.2        1 <1>        0.000
      8 O6         -0.3013   -1.9709   -0.5665 O.3        1 <1>        0.000
      9 H          -1.0249    2.1264   -0.9519 H.spc      1 <1>        0.000
     10 H          -2.2643    0.7894   -0.4615 H.spc      1 <1>        0.000
     11 H           1.2560    1.5897   -0.6797 H.spc      1 <1>        0.000
     12 H           3.1241    0.6052   -0.0099 H.spc      1 <1>        0.000
     13 H           0.3295   -1.6117   -1.1947 H.spc      1 <1>        0.000
@<TRIPOS>BOND
     1    1    2 2  
     2    2    6 1  
     3    2    3 1  
     4    3    4 am 
     5    4    5 2  
     6    6    7 2  
     7    6    8 1  
     8    1    9 1  
     9    1   10 1  
    10    3   11 1  
    11    4   12 1  
    12    8   13 1  
# Name:          frag3-185-7/31924
# Creation time: Sat Jun  5 12:52:09 2010


@<TRIPOS>MOLECULE
frag3-185-7/31924
   13    12     1     1     1
SMALL
USER_CHARGES


@<TRIPOS>ATOM
      1 C10        -0.6558    1.1043    0.5269 C.2        1 <1>        0.000
      2 C11        -0.1423   -0.0998    0.2955 C.2        1 <1>        0.000
      3 N2          1.1676   -0.3534    0.0526 N.am       1 <1>        0.000
      4 C12         2.2585    0.4447    0.0319 C.2        1 <1>        0.000
      5 O4          3.4485    0.2089    0.0195 O.2        1 <1>        0.000
      6 C18        -1.1828   -1.1458    0.0335 C.2        1 <1>        0.000
      7 O5         -0.9757   -2.0264   -0.7760 O.2        1 <1>        0.000
      8 O6         -2.3727   -0.9765    0.6526 O.3        1 <1>        0.000
      9 H          -0.0086    1.9813    0.5304 H.spc      1 <1>        0.000
     10 H          -1.7241    1.2146    0.7131 H.spc      1 <1>        0.000
     11 H           1.3677   -1.3321   -0.1536 H.spc      1 <1>        0.000
     12 H           2.0227    1.5089    0.0250 H.spc      1 <1>        0.000
     13 H          -2.3179   -0.2263    1.2491 H.spc      1 <1>        0.000
@<TRIPOS>BOND
     1    1    2 2  
     2    2    6 1  
     3    2    3 1  
     4    3    4 am 
     5    4    5 2  
     6    6    7 2  
     7    6    8 1  
     8    1    9 1  
     9    1   10 1  
    10    3   11 1  
    11    4   12 1  
    12    8   13 1  
# Name:          frag3-185-7/31924 -- energy: 0.462950
# Creation time: Sat Jun  5 12:52:09 2010


@<TRIPOS>MOLECULE
frag3-185-7/31924 -- energy: 0.462950
   13    12     1     1     1
SMALL
USER_CHARGES


@<TRIPOS>ATOM
      1 C10        -0.3465    1.0982    0.3235 C.2        1 <1>        0.000
      2 C11        -0.0266   -0.1928    0.1662 C.2        1 <1>        0.000
      3 N2          1.2363   -0.6829    0.1051 N.am       1 <1>        0.000
      4 C12         2.4815   -0.1190    0.1010 C.2        1 <1>        0.000
      5 O4          2.8699    1.0428    0.1052 O.2        1 <1>        0.000
      6 C18        -1.2393   -1.0387    0.0302 C.2        1 <1>        0.000
      7 O5         -2.3170   -0.6211   -0.3683 O.2        1 <1>        0.000
      8 O6         -1.1128   -2.3305    0.3737 O.3        1 <1>        0.000
      9 H           0.4400    1.8475    0.4136 H.spc      1 <1>        0.000
     10 H          -1.3933    1.3996    0.3614 H.spc      1 <1>        0.000
     11 H           1.2631   -1.7010    0.0498 H.spc      1 <1>        0.000
     12 H           3.2907   -0.8492    0.0922 H.spc      1 <1>        0.000
     13 H          -0.2127   -2.4969    0.6630 H.spc      1 <1>        0.000
@<TRIPOS>BOND
     1    1    2 2  
     2    2    6 1  
     3    2    3 1  
     4    3    4 am 
     5    4    5 2  
     6    6    7 2  
     7    6    8 1  
     8    1    9 1  
     9    1   10 1  
    10    3   11 1  
    11    4   12 1  
    12    8   13 1  
# Name:          frag3-185-7/31924 -- energy: 0.608860
# Creation time: Sat Jun  5 12:52:09 2010


@<TRIPOS>MOLECULE
frag3-185-7/31924 -- energy: 0.608860
   13    12     1     1     1
SMALL
USER_CHARGES


@<TRIPOS>ATOM
      1 C10        -1.1149    1.2820   -0.3580 C.2        1 <1>        0.000
      2 C11        -0.2768    0.2838   -0.0519 C.2        1 <1>        0.000
      3 N2          1.0728    0.4144    0.0290 N.am       1 <1>        0.000
      4 C12         2.0791   -0.4224    0.3598 C.2        1 <1>        0.000
      5 O4          3.2941   -0.2361    0.4194 O.2        1 <1>        0.000
      6 C18        -1.0221   -0.9961    0.1264 C.2        1 <1>        0.000
      7 O5         -2.1353   -1.1031    0.6200 O.2        1 <1>        0.000
      8 O6         -0.3516   -2.0666   -0.3083 O.3        1 <1>        0.000
      9 H          -0.7238    2.2788   -0.5619 H.spc      1 <1>        0.000
     10 H          -2.1883    1.0979   -0.4033 H.spc      1 <1>        0.000
     11 H           1.3972    1.3505   -0.2135 H.spc      1 <1>        0.000
     12 H           1.7622   -1.4330    0.6174 H.spc      1 <1>        0.000
     13 H           0.4972   -1.7896   -0.6610 H.spc      1 <1>        0.000
@<TRIPOS>BOND
     1    1    2 2  
     2    2    6 1  
     3    2    3 1  
     4    3    4 am 
     5    4    5 2  
     6    6    7 2  
     7    6    8 1  
     8    1    9 1  
     9    1   10 1  
    10    3   11 1  
    11    4   12 1  
    12    8   13 1  
# Name:          frag3-185-7/31924 -- energy: -0.722836
# Creation time: Sat Jun  5 12:52:09 2010


@<TRIPOS>MOLECULE
frag3-185-7/31924 -- energy: -0.722836
   13    12     1     1     1
SMALL
USER_CHARGES


@<TRIPOS>ATOM
      1 C10        -1.1536    1.2273    0.5190 C.2        1 <1>        0.000
      2 C11        -0.2829    0.2536    0.2574 C.2        1 <1>        0.000
      3 N2          1.0671    0.4170    0.2109 N.am       1 <1>        0.000
      4 C12         2.1178   -0.4126    0.0385 C.2        1 <1>        0.000
      5 O4          3.3112   -0.1695   -0.0460 O.2        1 <1>        0.000
      6 C18        -1.0094   -1.0023   -0.0054 C.2        1 <1>        0.000
      7 O5         -1.9657   -1.0724   -0.7578 O.2        1 <1>        0.000
      8 O6         -0.5391   -2.0851    0.6198 O.3        1 <1>        0.000
      9 H          -0.7976    2.2388    0.7146 H.spc      1 <1>        0.000
     10 H          -2.2221    1.0125    0.5375 H.spc      1 <1>        0.000
     11 H           1.3499    1.3892    0.3347 H.spc      1 <1>        0.000
     12 H           1.8594   -1.4688   -0.0374 H.spc      1 <1>        0.000
     13 H           0.2107   -1.8376    1.1658 H.spc      1 <1>        0.000
@<TRIPOS>BOND
     1    1    2 2  
     2    2    6 1  
     3    2    3 1  
     4    3    4 am 
     5    4    5 2  
     6    6    7 2  
     7    6    8 1  
     8    1    9 1  
     9    1   10 1  
    10    3   11 1  
    11    4   12 1  
    12    8   13 1  
# Name:          frag3-185-7/31924 -- energy: -1.005149
# Creation time: Sat Jun  5 12:52:09 2010


@<TRIPOS>MOLECULE
frag3-185-7/31924 -- energy: -1.005149
   13    12     1     1     1
SMALL
USER_CHARGES


@<TRIPOS>ATOM
      1 C10        -0.7182    1.1375    0.6565 C.2        1 <1>        0.000
      2 C11        -0.1817   -0.0369    0.2963 C.2        1 <1>        0.000
      3 N2          1.1393   -0.2959    0.0936 N.am       1 <1>        0.000
      4 C12         2.2491    0.4561    0.0083 C.2        1 <1>        0.000
      5 O4          3.4214    0.1227   -0.0589 O.2        1 <1>        0.000
      6 C18        -1.2062   -1.0716   -0.0035 C.2        1 <1>        0.000
      7 O5         -1.9672   -1.0110   -0.9630 O.2        1 <1>        0.000
      8 O6         -1.1912   -2.1449    0.8072 O.3        1 <1>        0.000
      9 H          -0.0763    2.0039    0.8159 H.spc      1 <1>        0.000
     10 H          -1.7964    1.2261    0.7900 H.spc      1 <1>        0.000
     11 H           1.3307   -1.2914   -0.0197 H.spc      1 <1>        0.000
     12 H           2.0757    1.5322   -0.0026 H.spc      1 <1>        0.000
     13 H          -0.5368   -2.0141    1.4973 H.spc      1 <1>        0.000
@<TRIPOS>BOND
     1    1    2 2  
     2    2    6 1  
     3    2    3 1  
     4    3    4 am 
     5    4    5 2  
     6    6    7 2  
     7    6    8 1  
     8    1    9 1  
     9    1   10 1  
    10    3   11 1  
    11    4   12 1  
    12    8   13 1  
# Name:          frag3-185-7/31924 -- energy: 1.136420
# Creation time: Sat Jun  5 12:52:09 2010


@<TRIPOS>MOLECULE
frag3-185-7/31924 -- energy: 1.136420
   13    12     1     1     1
SMALL
USER_CHARGES


@<TRIPOS>ATOM
      1 C10        -1.2181    1.1768    0.5101 C.2        1 <1>        0.000
      2 C11        -0.2787    0.2498    0.3144 C.2        1 <1>        0.000
      3 N2          1.0400    0.4948    0.1693 N.am       1 <1>        0.000
      4 C12         2.1156   -0.3362    0.1466 C.2        1 <1>        0.000
      5 O4          3.2793   -0.0926   -0.1383 O.2        1 <1>        0.000
      6 C18        -0.9207   -1.0754    0.0187 C.2        1 <1>        0.000
      7 O5         -0.4215   -1.8269   -0.8030 O.2        1 <1>        0.000
      8 O6         -2.0505   -1.4342    0.6187 O.3        1 <1>        0.000
      9 H          -0.9418    2.2298    0.5637 H.spc      1 <1>        0.000
     10 H          -2.2618    0.8811    0.6164 H.spc      1 <1>        0.000
     11 H           1.2718    1.4817    0.0562 H.spc      1 <1>        0.000
     12 H           1.9106   -1.3705    0.4227 H.spc      1 <1>        0.000
     13 H          -2.3176   -0.7466    1.2330 H.spc      1 <1>        0.000
@<TRIPOS>BOND
     1    1    2 2  
     2    2    6 1  
     3    2    3 1  
     4    3    4 am 
     5    4    5 2  
     6    6    7 2  
     7    6    8 1  
     8    1    9 1  
     9    1   10 1  
    10    3   11 1  
    11    4   12 1  
    12    8   13 1  
# Name:          frag3-185-7/31924 -- energy: 0.016185
# Creation time: Sat Jun  5 12:52:09 2010


@<TRIPOS>MOLECULE
frag3-185-7/31924 -- energy: 0.016185
   13    12     1     1     1
SMALL
USER_CHARGES


@<TRIPOS>ATOM
      1 C10        -1.2403    1.0455   -0.7299 C.2        1 <1>        0.000
      2 C11        -0.2592    0.3330   -0.1635 C.2        1 <1>        0.000
      3 N2          0.9867    0.8141    0.0428 N.am       1 <1>        0.000
      4 C12         2.1512    0.2185    0.4226 C.2        1 <1>        0.000
      5 O4          2.4898   -0.9396    0.5829 O.2        1 <1>        0.000
      6 C18        -0.7068   -1.0466    0.1807 C.2        1 <1>        0.000
      7 O5         -0.4084   -1.5895    1.2212 O.2        1 <1>        0.000
      8 O6         -1.4677   -1.6794   -0.7203 O.3        1 <1>        0.000
      9 H          -1.0539    2.0701   -1.0516 H.spc      1 <1>        0.000
     10 H          -2.2258    0.6012   -0.8695 H.spc      1 <1>        0.000
     11 H           1.0714    1.8180   -0.1169 H.spc      1 <1>        0.000
     12 H           2.9505    0.9310    0.6265 H.spc      1 <1>        0.000
     13 H          -1.6053   -1.1078   -1.4792 H.spc      1 <1>        0.000
@<TRIPOS>BOND
     1    1    2 2  
     2    2    6 1  
     3    2    3 1  
     4    3    4 am 
     5    4    5 2  
     6    6    7 2  
     7    6    8 1  
     8    1    9 1  
     9    1   10 1  
    10    3   11 1  
    11    4   12 1  
    12    8   13 1  
# Name:          frag3-185-7/31924 -- energy: 0.222201
# Creation time: Sat Jun  5 12:52:09 2010


@<TRIPOS>MOLECULE
frag3-185-7/31924 -- energy: 0.222201
   13    12     1     1     1
SMALL
USER_CHARGES


@<TRIPOS>ATOM
      1 C10        -1.1085    1.0999   -0.7068 C.2        1 <1>        0.000
      2 C11        -0.2642    0.2047   -0.1750 C.2        1 <1>        0.000
      3 N2          1.0564    0.4313    0.0076 N.am       1 <1>        0.000
      4 C12         2.0907   -0.2982    0.4944 C.2        1 <1>        0.000
      5 O4          3.2797   -0.0298    0.5771 O.2        1 <1>        0.000
      6 C18        -0.9651   -1.0634    0.1639 C.2        1 <1>        0.000
      7 O5         -0.6892   -1.6577    1.1955 O.2        1 <1>        0.000
      8 O6         -1.8545   -1.5309   -0.7201 O.3        1 <1>        0.000
      9 H          -0.7405    2.0767   -1.0205 H.spc      1 <1>        0.000
     10 H          -2.1630    0.8509   -0.8255 H.spc      1 <1>        0.000
     11 H           1.3395    1.3653   -0.2889 H.spc      1 <1>        0.000
     12 H           1.8171   -1.2830    0.8730 H.spc      1 <1>        0.000
     13 H          -1.9251   -0.9183   -1.4558 H.spc      1 <1>        0.000
@<TRIPOS>BOND
     1    1    2 2  
     2    2    6 1  
     3    2    3 1  
     4    3    4 am 
     5    4    5 2  
     6    6    7 2  
     7    6    8 1  
     8    1    9 1  
     9    1   10 1  
    10    3   11 1  
    11    4   12 1  
    12    8   13 1  
# Name:          frag3-185-7/31924 -- energy: -1.001731
# Creation time: Sat Jun  5 12:52:09 2010


@<TRIPOS>MOLECULE
frag3-185-7/31924 -- energy: -1.001731
   13    12     1     1     1
SMALL
USER_CHARGES


@<TRIPOS>ATOM
      1 C10        -1.2346    1.1367   -0.5462 C.2        1 <1>        0.000
      2 C11        -0.2335    0.3524   -0.1543 C.2        1 <1>        0.000
      3 N2          1.0811    0.6960   -0.2202 N.am       1 <1>        0.000
      4 C12         2.2042    0.0654    0.2147 C.2        1 <1>        0.000
      5 O4          2.3850   -0.9850    0.8064 O.2        1 <1>        0.000
      6 C18        -0.7688   -0.9842    0.2076 C.2        1 <1>        0.000
      7 O5         -1.5868   -1.1543    1.0950 O.2        1 <1>        0.000
      8 O6         -0.3013   -1.9709   -0.5665 O.3        1 <1>        0.000
      9 H          -1.0249    2.1264   -0.9519 H.spc      1 <1>        0.000
     10 H          -2.2643    0.7894   -0.4615 H.spc      1 <1>        0.000
     11 H           1.2560    1.5897   -0.6797 H.spc      1 <1>        0.000
     12 H           3.1241    0.6052   -0.0099 H.spc      1 <1>        0.000
     13 H           0.3295   -1.6117   -1.1947 H.spc      1 <1>        0.000
@<TRIPOS>BOND
     1    1    2 2  
     2    2    6 1  
     3    2    3 1  
     4    3    4 am 
     5    4    5 2  
     6    6    7 2  
     7    6    8 1  
     8    1    9 1  
     9    1   10 1  
    10    3   11 1  
    11    4   12 1  
    12    8   13 1  
