#      Rotatable Fragment
#      Build by yxyuan
#
# Name:          frag5-680-61/138278
# Creation time: Sat Jun  5 12:51:55 2010


@<TRIPOS>MOLECULE
frag5-680-61/138278
   96   103     1     1     1
SMALL
USER_CHARGES


@<TRIPOS>ATOM
      1 C1          0.9089    3.5060    0.1032 C.ar       1 <1>        0.000
      2 C2         -0.0546    2.7517    0.7974 C.ar       1 <1>        0.000
      3 C3          2.2440    3.0782    0.1708 C.ar       1 <1>        0.000
      4 O1          0.5185    4.6508   -0.5766 O.3        1 <1>        0.000
      5 C4          0.4114    1.5738    1.3768 C.ar       1 <1>        0.000
      6 O2         -1.3623    3.1992    0.9097 O.3        1 <1>        0.000
      7 C5          2.4646    1.6795    0.1861 C.ar       1 <1>        0.000
      8 O3          3.2664    4.0209    0.2417 O.3        1 <1>        0.000
      9 C15         4.4121    2.6439    1.8928 C.ar       1 <1>        0.000
     10 C7          1.3671    0.9133    0.5830 C.ar       1 <1>        0.000
     11 C8         -2.2675    2.9773   -0.1327 C.ar       1 <1>        0.000
     12 C9          4.4259    3.5273    0.8034 C.ar       1 <1>        0.000
     13 C11         1.1407   -0.4824    0.0580 C.3        1 <1>        0.000
     14 C12        -3.4115    3.7817   -0.2339 C.ar       1 <1>        0.000
     15 C13        -2.1315    1.9792   -1.1090 C.ar       1 <1>        0.000
     16 C14         5.6795    3.8690    0.2833 C.ar       1 <1>        0.000
     17 O11         3.6787   -1.6926   -2.1541 O.2        1 <1>        0.000
     18 C32        -5.7862    0.9382   -1.1846 C.3        1 <1>        0.000
     19 C33         6.5329    0.2963    0.0134 C.3        1 <1>        0.000
     20 C18        -0.0070   -1.2676    0.6936 C.2        1 <1>        0.000
     21 N1          1.9178   -0.9578   -1.1204 N.am       1 <1>        0.000
     22 C19        -4.5867    3.1873   -0.7022 C.ar       1 <1>        0.000
     23 Cl1        -3.3494    5.4491    0.2398 Cl         1 <1>        0.000
     24 C20        -3.3022    1.4201   -1.6457 C.ar       1 <1>        0.000
     25 C21         6.5837    2.8092    0.2419 C.ar       1 <1>        0.000
     26 Cl2         6.0506    5.4811   -0.2778 Cl         1 <1>        0.000
     27 C22         5.3453    1.6234    1.8728 C.ar       1 <1>        0.000
     28 N2         -1.2538   -0.6633    0.6896 N.am       1 <1>        0.000
     29 O7          0.1886   -2.3799    1.1318 O.2        1 <1>        0.000
     30 C26         3.0595   -1.6666   -1.1006 C.2        1 <1>        0.000
     31 C27        -4.5503    1.8601   -1.1653 C.ar       1 <1>        0.000
     32 C28         6.1634    1.5721    0.7441 C.ar       1 <1>        0.000
     33 C30        -2.5079   -1.3951    0.6329 C.3        1 <1>        0.000
     34 C31         3.6071   -2.4768    0.0277 C.3        1 <1>        0.000
     35 O21        -2.9700   -7.6014    0.0978 O.3        1 <1>        0.000
     36 C64        -6.4987   -6.8406    0.7316 C.ar       1 <1>        0.000
     37 O24        -7.7298   -7.4630    0.7089 O.3        1 <1>        0.000
     38 C36        -2.3896   -2.4133   -0.5155 C.ar       1 <1>        0.000
     39 C37        -3.6244   -0.3589    0.9314 C.2        1 <1>        0.000
     40 N3          4.9439   -2.8792   -0.4165 N.am       1 <1>        0.000
     41 C39        -5.4138   -0.5579   -0.7774 C.3        1 <1>        0.000
     42 C40         6.2209   -1.0357    0.7196 C.3        1 <1>        0.000
     43 C44        -3.3261   -3.3720   -0.9268 C.ar       1 <1>        0.000
     44 C45        -1.2071   -2.6662   -1.2241 C.ar       1 <1>        0.000
     45 N5         -4.9332   -0.4419    0.6065 N.am       1 <1>        0.000
     46 O14        -3.2843    0.6341    1.5637 O.2        1 <1>        0.000
     47 C46         6.0876   -2.1961   -0.2193 C.2        1 <1>        0.000
     48 C48        -6.5359   -1.5811   -0.8770 C.2        1 <1>        0.000
     49 C49        -2.9868   -4.5984   -0.3434 C.ar       1 <1>        0.000
     50 C50        -0.7480   -3.9629   -0.9581 C.ar       1 <1>        0.000
     51 O16         7.0875   -2.5223   -0.8388 O.2        1 <1>        0.000
     52 N7         -6.5380   -2.8138   -0.3004 N.am       1 <1>        0.000
     53 O17        -7.4934   -1.2172   -1.5475 O.2        1 <1>        0.000
     54 C53        -4.1430   -5.4242    0.1680 C.ar       1 <1>        0.000
     55 C54        -1.6039   -4.8858   -0.3026 C.ar       1 <1>        0.000
     56 C55        -5.6145   -3.2680    0.7457 C.3        1 <1>        0.000
     57 C57        -5.2988   -4.7659    0.6682 C.ar       1 <1>        0.000
     58 C58        -4.1170   -6.8341    0.1674 C.ar       1 <1>        0.000
     59 O20        -1.0888   -6.0037    0.3275 O.3        1 <1>        0.000
     60 C61        -6.3446   -5.5342    1.1792 C.ar       1 <1>        0.000
     61 C62        -5.3469   -7.5006    0.2899 C.ar       1 <1>        0.000
     62 H          -0.4321    4.7597   -0.4981 H.spc      1 <1>        0.000
     63 H           0.0714    1.2027    2.3436 H.spc      1 <1>        0.000
     64 H           3.4201    1.2343   -0.0913 H.spc      1 <1>        0.000
     65 H           3.7026    2.7559    2.7127 H.spc      1 <1>        0.000
     66 H           1.8297   -1.2924    0.2973 H.spc      1 <1>        0.000
     67 H          -1.1474    1.6480   -1.4407 H.spc      1 <1>        0.000
     68 H          -6.5100    1.3197   -0.4644 H.spc      1 <1>        0.000
     69 H          -6.1906    0.9277   -2.1968 H.spc      1 <1>        0.000
     70 H           5.9357    0.2944   -0.8985 H.spc      1 <1>        0.000
     71 H           7.6166    0.3239   -0.1001 H.spc      1 <1>        0.000
     72 H           1.5441   -0.7204   -2.0393 H.spc      1 <1>        0.000
     73 H          -5.5220    3.7470   -0.7083 H.spc      1 <1>        0.000
     74 H          -3.2457    0.6573   -2.4222 H.spc      1 <1>        0.000
     75 H           7.5852    2.9394   -0.1681 H.spc      1 <1>        0.000
     76 H           5.4358    0.9048    2.6873 H.spc      1 <1>        0.000
     77 H          -1.2937    0.3552    0.7288 H.spc      1 <1>        0.000
     78 H          -2.8255   -2.1288    1.3738 H.spc      1 <1>        0.000
     79 H           3.6418   -1.9080    0.9569 H.spc      1 <1>        0.000
     80 H           2.9775   -3.3377    0.2527 H.spc      1 <1>        0.000
     81 H          -3.2072   -8.5315    0.1130 H.spc      1 <1>        0.000
     82 H          -7.6298   -8.3554    0.3694 H.spc      1 <1>        0.000
     83 H           5.0152   -3.7613   -0.9237 H.spc      1 <1>        0.000
     84 H          -4.6817   -0.9500   -1.4834 H.spc      1 <1>        0.000
     85 H           5.2657   -0.9182    1.2314 H.spc      1 <1>        0.000
     86 H           7.0521   -1.2522    1.3906 H.spc      1 <1>        0.000
     87 H          -4.1739   -3.1930   -1.5881 H.spc      1 <1>        0.000
     88 H          -0.7147   -1.9553   -1.8876 H.spc      1 <1>        0.000
     89 H          -5.6217   -0.4231    1.3589 H.spc      1 <1>        0.000
     90 H           0.2585   -4.2605   -1.2523 H.spc      1 <1>        0.000
     91 H          -7.2413   -3.4785   -0.6228 H.spc      1 <1>        0.000
     92 H          -6.0902   -3.0813    1.7085 H.spc      1 <1>        0.000
     93 H          -4.6773   -2.7269    0.6151 H.spc      1 <1>        0.000
     94 H          -0.1330   -6.0083    0.2377 H.spc      1 <1>        0.000
     95 H          -7.0296   -5.1169    1.9173 H.spc      1 <1>        0.000
     96 H          -5.4057   -8.5586    0.0345 H.spc      1 <1>        0.000
@<TRIPOS>BOND
     1    6   11 1  
     2    2    5 ar 
     3    7   10 ar 
     4   12   16 ar 
     5    2    6 1  
     6    1    4 1  
     7   11   15 ar 
     8    1    3 ar 
     9    3    7 ar 
    10    8   12 1  
    11   13   21 1  
    12    5   10 ar 
    13   12    9 ar 
    14   11   14 ar 
    15   13   20 1  
    16   10   13 1  
    17    1    2 ar 
    18    3    8 1  
    19   18   41 1  
    20   19   42 1  
    21   38   43 ar 
    22   38   44 ar 
    23   39   45 am 
    24   39   46 2  
    25   40   47 am 
    26   41   48 1  
    27   33   39 1  
    28   34   40 1  
    29   33   38 1  
    30   32   19 1  
    31   31   18 1  
    32   30   34 1  
    33   30   17 2  
    34   28   33 1  
    35   27   32 ar 
    36   25   32 ar 
    37   24   31 ar 
    38   22   31 ar 
    39   21   30 am 
    40   20   29 2  
    41   20   28 am 
    42    9   27 ar 
    43   16   26 1  
    44   15   24 ar 
    45   16   25 ar 
    46   14   23 1  
    47   14   22 ar 
    48   41   45 1  
    49   42   47 1  
    50   43   49 ar 
    51   44   50 ar 
    52   47   51 2  
    53   48   52 am 
    54   48   53 2  
    55   49   54 1  
    56   49   55 ar 
    57   50   55 ar 
    58   52   56 1  
    59   54   57 ar 
    60   54   58 ar 
    61   55   59 1  
    62   56   57 1  
    63   57   60 ar 
    64   58   61 ar 
    65   58   35 1  
    66   60   36 ar 
    67   61   36 ar 
    68   36   37 1  
    69    4   62 1  
    70    5   63 1  
    71    7   64 1  
    72    9   65 1  
    73   13   66 1  
    74   15   67 1  
    75   18   68 1  
    76   18   69 1  
    77   19   70 1  
    78   19   71 1  
    79   21   72 1  
    80   22   73 1  
    81   24   74 1  
    82   25   75 1  
    83   27   76 1  
    84   28   77 1  
    85   33   78 1  
    86   34   79 1  
    87   34   80 1  
    88   35   81 1  
    89   37   82 1  
    90   40   83 1  
    91   41   84 1  
    92   42   85 1  
    93   42   86 1  
    94   43   87 1  
    95   44   88 1  
    96   45   89 1  
    97   50   90 1  
    98   52   91 1  
    99   56   92 1  
   100   56   93 1  
   101   59   94 1  
   102   60   95 1  
   103   61   96 1  
# Name:          frag5-680-61/138278 -- energy: -12.069246
# Creation time: Sat Jun  5 12:51:55 2010


@<TRIPOS>MOLECULE
frag5-680-61/138278 -- energy: -12.069246
   96   103     1     1     1
SMALL
USER_CHARGES


@<TRIPOS>ATOM
      1 C1          0.9089    3.5060    0.1032 C.ar       1 <1>        0.000
      2 C2         -0.0546    2.7517    0.7974 C.ar       1 <1>        0.000
      3 C3          2.2440    3.0782    0.1708 C.ar       1 <1>        0.000
      4 O1          0.5185    4.6508   -0.5766 O.3        1 <1>        0.000
      5 C4          0.4114    1.5738    1.3768 C.ar       1 <1>        0.000
      6 O2         -1.3623    3.1992    0.9097 O.3        1 <1>        0.000
      7 C5          2.4646    1.6795    0.1861 C.ar       1 <1>        0.000
      8 O3          3.2664    4.0209    0.2417 O.3        1 <1>        0.000
      9 C15         4.4121    2.6439    1.8928 C.ar       1 <1>        0.000
     10 C7          1.3671    0.9133    0.5830 C.ar       1 <1>        0.000
     11 C8         -2.2675    2.9773   -0.1327 C.ar       1 <1>        0.000
     12 C9          4.4259    3.5273    0.8034 C.ar       1 <1>        0.000
     13 C11         1.1407   -0.4824    0.0580 C.3        1 <1>        0.000
     14 C12        -3.4115    3.7817   -0.2339 C.ar       1 <1>        0.000
     15 C13        -2.1315    1.9792   -1.1090 C.ar       1 <1>        0.000
     16 C14         5.6795    3.8690    0.2833 C.ar       1 <1>        0.000
     17 O11         3.6787   -1.6926   -2.1541 O.2        1 <1>        0.000
     18 C32        -5.7862    0.9382   -1.1846 C.3        1 <1>        0.000
     19 C33         6.5329    0.2963    0.0134 C.3        1 <1>        0.000
     20 C18        -0.0070   -1.2676    0.6936 C.2        1 <1>        0.000
     21 N1          1.9178   -0.9578   -1.1204 N.am       1 <1>        0.000
     22 C19        -4.5867    3.1873   -0.7022 C.ar       1 <1>        0.000
     23 Cl1        -3.3494    5.4491    0.2398 Cl         1 <1>        0.000
     24 C20        -3.3022    1.4201   -1.6457 C.ar       1 <1>        0.000
     25 C21         6.5837    2.8092    0.2419 C.ar       1 <1>        0.000
     26 Cl2         6.0506    5.4811   -0.2778 Cl         1 <1>        0.000
     27 C22         5.3453    1.6234    1.8728 C.ar       1 <1>        0.000
     28 N2         -1.2538   -0.6633    0.6896 N.am       1 <1>        0.000
     29 O7          0.1886   -2.3799    1.1318 O.2        1 <1>        0.000
     30 C26         3.0595   -1.6666   -1.1006 C.2        1 <1>        0.000
     31 C27        -4.5503    1.8601   -1.1653 C.ar       1 <1>        0.000
     32 C28         6.1634    1.5721    0.7441 C.ar       1 <1>        0.000
     33 C30        -2.5079   -1.3951    0.6329 C.3        1 <1>        0.000
     34 C31         3.6071   -2.4768    0.0277 C.3        1 <1>        0.000
     35 O21        -2.9700   -7.6014    0.0978 O.3        1 <1>        0.000
     36 C64        -6.4987   -6.8406    0.7316 C.ar       1 <1>        0.000
     37 O24        -7.7298   -7.4630    0.7089 O.3        1 <1>        0.000
     38 C36        -2.3896   -2.4133   -0.5155 C.ar       1 <1>        0.000
     39 C37        -3.6244   -0.3589    0.9314 C.2        1 <1>        0.000
     40 N3          4.9439   -2.8792   -0.4165 N.am       1 <1>        0.000
     41 C39        -5.4138   -0.5579   -0.7774 C.3        1 <1>        0.000
     42 C40         6.2209   -1.0357    0.7196 C.3        1 <1>        0.000
     43 C44        -3.3261   -3.3720   -0.9268 C.ar       1 <1>        0.000
     44 C45        -1.2071   -2.6662   -1.2241 C.ar       1 <1>        0.000
     45 N5         -4.9332   -0.4419    0.6065 N.am       1 <1>        0.000
     46 O14        -3.2843    0.6341    1.5637 O.2        1 <1>        0.000
     47 C46         6.0876   -2.1961   -0.2193 C.2        1 <1>        0.000
     48 C48        -6.5359   -1.5811   -0.8770 C.2        1 <1>        0.000
     49 C49        -2.9868   -4.5984   -0.3434 C.ar       1 <1>        0.000
     50 C50        -0.7480   -3.9629   -0.9581 C.ar       1 <1>        0.000
     51 O16         7.0875   -2.5223   -0.8388 O.2        1 <1>        0.000
     52 N7         -6.5380   -2.8138   -0.3004 N.am       1 <1>        0.000
     53 O17        -7.4934   -1.2172   -1.5475 O.2        1 <1>        0.000
     54 C53        -4.1430   -5.4242    0.1680 C.ar       1 <1>        0.000
     55 C54        -1.6039   -4.8858   -0.3026 C.ar       1 <1>        0.000
     56 C55        -5.6145   -3.2680    0.7457 C.3        1 <1>        0.000
     57 C57        -5.2988   -4.7659    0.6682 C.ar       1 <1>        0.000
     58 C58        -4.1170   -6.8341    0.1674 C.ar       1 <1>        0.000
     59 O20        -1.0888   -6.0037    0.3275 O.3        1 <1>        0.000
     60 C61        -6.3446   -5.5342    1.1792 C.ar       1 <1>        0.000
     61 C62        -5.3469   -7.5006    0.2899 C.ar       1 <1>        0.000
     62 H          -0.4321    4.7597   -0.4981 H.spc      1 <1>        0.000
     63 H           0.0714    1.2027    2.3436 H.spc      1 <1>        0.000
     64 H           3.4201    1.2343   -0.0913 H.spc      1 <1>        0.000
     65 H           3.7026    2.7559    2.7127 H.spc      1 <1>        0.000
     66 H           1.8297   -1.2924    0.2973 H.spc      1 <1>        0.000
     67 H          -1.1474    1.6480   -1.4407 H.spc      1 <1>        0.000
     68 H          -6.5100    1.3197   -0.4644 H.spc      1 <1>        0.000
     69 H          -6.1906    0.9277   -2.1968 H.spc      1 <1>        0.000
     70 H           5.9357    0.2944   -0.8985 H.spc      1 <1>        0.000
     71 H           7.6166    0.3239   -0.1001 H.spc      1 <1>        0.000
     72 H           1.5441   -0.7204   -2.0393 H.spc      1 <1>        0.000
     73 H          -5.5220    3.7470   -0.7083 H.spc      1 <1>        0.000
     74 H          -3.2457    0.6573   -2.4222 H.spc      1 <1>        0.000
     75 H           7.5852    2.9394   -0.1681 H.spc      1 <1>        0.000
     76 H           5.4358    0.9048    2.6873 H.spc      1 <1>        0.000
     77 H          -1.2937    0.3552    0.7288 H.spc      1 <1>        0.000
     78 H          -2.8255   -2.1288    1.3738 H.spc      1 <1>        0.000
     79 H           3.6418   -1.9080    0.9569 H.spc      1 <1>        0.000
     80 H           2.9775   -3.3377    0.2527 H.spc      1 <1>        0.000
     81 H          -3.2072   -8.5315    0.1130 H.spc      1 <1>        0.000
     82 H          -7.6298   -8.3554    0.3694 H.spc      1 <1>        0.000
     83 H           5.0152   -3.7613   -0.9237 H.spc      1 <1>        0.000
     84 H          -4.6817   -0.9500   -1.4834 H.spc      1 <1>        0.000
     85 H           5.2657   -0.9182    1.2314 H.spc      1 <1>        0.000
     86 H           7.0521   -1.2522    1.3906 H.spc      1 <1>        0.000
     87 H          -4.1739   -3.1930   -1.5881 H.spc      1 <1>        0.000
     88 H          -0.7147   -1.9553   -1.8876 H.spc      1 <1>        0.000
     89 H          -5.6217   -0.4231    1.3589 H.spc      1 <1>        0.000
     90 H           0.2585   -4.2605   -1.2523 H.spc      1 <1>        0.000
     91 H          -7.2413   -3.4785   -0.6228 H.spc      1 <1>        0.000
     92 H          -6.0902   -3.0813    1.7085 H.spc      1 <1>        0.000
     93 H          -4.6773   -2.7269    0.6151 H.spc      1 <1>        0.000
     94 H          -0.1330   -6.0083    0.2377 H.spc      1 <1>        0.000
     95 H          -7.0296   -5.1169    1.9173 H.spc      1 <1>        0.000
     96 H          -5.4057   -8.5586    0.0345 H.spc      1 <1>        0.000
@<TRIPOS>BOND
     1    6   11 1  
     2    2    5 ar 
     3    7   10 ar 
     4   12   16 ar 
     5    2    6 1  
     6    1    4 1  
     7   11   15 ar 
     8    1    3 ar 
     9    3    7 ar 
    10    8   12 1  
    11   13   21 1  
    12    5   10 ar 
    13   12    9 ar 
    14   11   14 ar 
    15   13   20 1  
    16   10   13 1  
    17    1    2 ar 
    18    3    8 1  
    19   18   41 1  
    20   19   42 1  
    21   38   43 ar 
    22   38   44 ar 
    23   39   45 am 
    24   39   46 2  
    25   40   47 am 
    26   41   48 1  
    27   33   39 1  
    28   34   40 1  
    29   33   38 1  
    30   32   19 1  
    31   31   18 1  
    32   30   34 1  
    33   30   17 2  
    34   28   33 1  
    35   27   32 ar 
    36   25   32 ar 
    37   24   31 ar 
    38   22   31 ar 
    39   21   30 am 
    40   20   29 2  
    41   20   28 am 
    42    9   27 ar 
    43   16   26 1  
    44   15   24 ar 
    45   16   25 ar 
    46   14   23 1  
    47   14   22 ar 
    48   41   45 1  
    49   42   47 1  
    50   43   49 ar 
    51   44   50 ar 
    52   47   51 2  
    53   48   52 am 
    54   48   53 2  
    55   49   54 1  
    56   49   55 ar 
    57   50   55 ar 
    58   52   56 1  
    59   54   57 ar 
    60   54   58 ar 
    61   55   59 1  
    62   56   57 1  
    63   57   60 ar 
    64   58   61 ar 
    65   58   35 1  
    66   60   36 ar 
    67   61   36 ar 
    68   36   37 1  
    69    4   62 1  
    70    5   63 1  
    71    7   64 1  
    72    9   65 1  
    73   13   66 1  
    74   15   67 1  
    75   18   68 1  
    76   18   69 1  
    77   19   70 1  
    78   19   71 1  
    79   21   72 1  
    80   22   73 1  
    81   24   74 1  
    82   25   75 1  
    83   27   76 1  
    84   28   77 1  
    85   33   78 1  
    86   34   79 1  
    87   34   80 1  
    88   35   81 1  
    89   37   82 1  
    90   40   83 1  
    91   41   84 1  
    92   42   85 1  
    93   42   86 1  
    94   43   87 1  
    95   44   88 1  
    96   45   89 1  
    97   50   90 1  
    98   52   91 1  
    99   56   92 1  
   100   56   93 1  
   101   59   94 1  
   102   60   95 1  
   103   61   96 1  
