#      Rotatable Fragment
#      Build by yxyuan
#
# Name:          frag5-579-42/41815
# Creation time: Sat Jun  5 12:52:56 2010


@<TRIPOS>MOLECULE
frag5-579-42/41815
   19    19     1     1     1
SMALL
USER_CHARGES


@<TRIPOS>ATOM
      1 Cl1         1.0338    4.1742   -3.2157 Cl         1 <1>        0.000
      2 C1          2.1971    3.1279   -2.4329 C.ar       1 <1>        0.000
      3 C2          3.5838    3.2915   -2.6316 C.ar       1 <1>        0.000
      4 C3          4.4498    2.4058   -1.9853 C.ar       1 <1>        0.000
      5 C4          3.9902    1.3726   -1.1590 C.ar       1 <1>        0.000
      6 C5          2.6054    1.2265   -0.9702 C.ar       1 <1>        0.000
      7 C6          1.7315    2.1147   -1.5920 C.ar       1 <1>        0.000
      8 C7          2.1002    0.1035   -0.0808 C.2        1 <1>        0.000
      9 O1          2.7766   -0.9114   -0.0036 O.2        1 <1>        0.000
     10 N1          0.9387    0.2190    0.5967 N.am       1 <1>        0.000
     11 O2          4.8690    0.5011   -0.5370 O.3        1 <1>        0.000
     12 N3          4.0752    4.2739   -3.4220 N.pl3      1 <1>        0.000
     13 H           5.5238    2.5234   -2.1297 H.spc      1 <1>        0.000
     14 H           0.6599    2.0169   -1.4185 H.spc      1 <1>        0.000
     15 H           0.6128   -0.5481    1.1848 H.spc      1 <1>        0.000
     16 H           0.3867    1.0734    0.5207 H.spc      1 <1>        0.000
     17 H           5.7701    0.7376   -0.7687 H.spc      1 <1>        0.000
     18 H           3.4381    4.9179   -3.8908 H.spc      1 <1>        0.000
     19 H           5.0827    4.3704   -3.5489 H.spc      1 <1>        0.000
@<TRIPOS>BOND
     1    6    7 ar 
     2    8    9 2  
     3    6    8 1  
     4    5    6 ar 
     5    8   10 am 
     6    5   11 1  
     7    1    2 1  
     8    2    3 ar 
     9    2    7 ar 
    10    3   12 1  
    11    3    4 ar 
    12    4    5 ar 
    13    4   13 1  
    14    7   14 1  
    15   10   15 1  
    16   10   16 1  
    17   11   17 1  
    18   12   18 1  
    19   12   19 1  
# Name:          frag5-579-42/41815
# Creation time: Sat Jun  5 12:52:56 2010


@<TRIPOS>MOLECULE
frag5-579-42/41815
   19    19     1     1     1
SMALL
USER_CHARGES


@<TRIPOS>ATOM
      1 Cl1         1.0589    4.2714   -3.1229 Cl         1 <1>        0.000
      2 C1          2.2089    3.1682   -2.3952 C.ar       1 <1>        0.000
      3 C2          3.5874    3.2663   -2.6573 C.ar       1 <1>        0.000
      4 C3          4.4448    2.3401   -2.0547 C.ar       1 <1>        0.000
      5 C4          3.9686    1.3294   -1.2096 C.ar       1 <1>        0.000
      6 C5          2.5924    1.2447   -0.9543 C.ar       1 <1>        0.000
      7 C6          1.7307    2.1764   -1.5354 C.ar       1 <1>        0.000
      8 C7          2.0756    0.1455   -0.0444 C.2        1 <1>        0.000
      9 O1          1.3270    0.4643    0.8663 O.2        1 <1>        0.000
     10 N1          2.4334   -1.1444   -0.2293 N.am       1 <1>        0.000
     11 O2          4.8346    0.4089   -0.6266 O.3        1 <1>        0.000
     12 N3          4.0889    4.2283   -3.4699 N.pl3      1 <1>        0.000
     13 H           5.5154    2.4067   -2.2484 H.spc      1 <1>        0.000
     14 H           0.6644    2.1292   -1.3141 H.spc      1 <1>        0.000
     15 H           2.0774   -1.8671    0.3963 H.spc      1 <1>        0.000
     16 H           3.0595   -1.3953   -0.9944 H.spc      1 <1>        0.000
     17 H           5.7349    0.6016   -0.8985 H.spc      1 <1>        0.000
     18 H           3.4623    4.9034   -3.9081 H.spc      1 <1>        0.000
     19 H           5.0929    4.2771   -3.6432 H.spc      1 <1>        0.000
@<TRIPOS>BOND
     1    6    7 ar 
     2    8    9 2  
     3    6    8 1  
     4    5    6 ar 
     5    8   10 am 
     6    5   11 1  
     7    1    2 1  
     8    2    3 ar 
     9    2    7 ar 
    10    3   12 1  
    11    3    4 ar 
    12    4    5 ar 
    13    4   13 1  
    14    7   14 1  
    15   10   15 1  
    16   10   16 1  
    17   11   17 1  
    18   12   18 1  
    19   12   19 1  
# Name:          frag5-579-42/41815
# Creation time: Sat Jun  5 12:52:56 2010


@<TRIPOS>MOLECULE
frag5-579-42/41815
   19    19     1     1     1
SMALL
USER_CHARGES


@<TRIPOS>ATOM
      1 Cl1         1.0621    3.9808   -3.4851 Cl         1 <1>        0.000
      2 C1          2.2065    3.0494   -2.5442 C.ar       1 <1>        0.000
      3 C2          3.5886    3.3231   -2.5872 C.ar       1 <1>        0.000
      4 C3          4.4424    2.5250   -1.8208 C.ar       1 <1>        0.000
      5 C4          3.9724    1.4740   -1.0237 C.ar       1 <1>        0.000
      6 C5          2.5921    1.2167   -0.9902 C.ar       1 <1>        0.000
      7 C6          1.7276    2.0173   -1.7339 C.ar       1 <1>        0.000
      8 C7          2.0763    0.0736   -0.1333 C.2        1 <1>        0.000
      9 O1          1.3758   -0.7692   -0.6710 O.2        1 <1>        0.000
     10 N1          2.3787   -0.0073    1.1804 N.am       1 <1>        0.000
     11 O2          4.8396    0.6880   -0.2802 O.3        1 <1>        0.000
     12 N3          4.0891    4.3277   -3.3441 N.pl3      1 <1>        0.000
     13 H           5.5131    2.7280   -1.8444 H.spc      1 <1>        0.000
     14 H           0.6543    1.8342   -1.6823 H.spc      1 <1>        0.000
     15 H           2.0203   -0.7815    1.7395 H.spc      1 <1>        0.000
     16 H           2.9655    0.7058    1.6135 H.spc      1 <1>        0.000
     17 H           5.7400    0.9933   -0.4130 H.spc      1 <1>        0.000
     18 H           3.4617    4.9078   -3.9012 H.spc      1 <1>        0.000
     19 H           5.0936    4.5046   -3.3573 H.spc      1 <1>        0.000
@<TRIPOS>BOND
     1    6    7 ar 
     2    8    9 2  
     3    6    8 1  
     4    5    6 ar 
     5    8   10 am 
     6    5   11 1  
     7    1    2 1  
     8    2    3 ar 
     9    2    7 ar 
    10    3   12 1  
    11    3    4 ar 
    12    4    5 ar 
    13    4   13 1  
    14    7   14 1  
    15   10   15 1  
    16   10   16 1  
    17   11   17 1  
    18   12   18 1  
    19   12   19 1  
# Name:          frag5-579-42/41815
# Creation time: Sat Jun  5 12:52:56 2010


@<TRIPOS>MOLECULE
frag5-579-42/41815
   19    19     1     1     1
SMALL
USER_CHARGES


@<TRIPOS>ATOM
      1 Cl1         1.0684    4.3678   -2.9695 Cl         1 <1>        0.000
      2 C1          2.2142    3.2067   -2.3322 C.ar       1 <1>        0.000
      3 C2          3.5771    3.2524   -2.6807 C.ar       1 <1>        0.000
      4 C3          4.4300    2.2820   -2.1461 C.ar       1 <1>        0.000
      5 C4          3.9679    1.2773   -1.2861 C.ar       1 <1>        0.000
      6 C5          2.6071    1.2462   -0.9450 C.ar       1 <1>        0.000
      7 C6          1.7512    2.2212   -1.4569 C.ar       1 <1>        0.000
      8 C7          2.1041    0.1539   -0.0187 C.2        1 <1>        0.000
      9 O1          2.6708    0.0089    1.0536 O.2        1 <1>        0.000
     10 N1          1.0661   -0.6367   -0.3682 N.am       1 <1>        0.000
     11 O2          4.8286    0.3138   -0.7732 O.3        1 <1>        0.000
     12 N3          4.0659    4.2057   -3.5103 N.pl3      1 <1>        0.000
     13 H           5.4881    2.3080   -2.4067 H.spc      1 <1>        0.000
     14 H           0.7001    2.2141   -1.1683 H.spc      1 <1>        0.000
     15 H           0.7451   -1.3674    0.2670 H.spc      1 <1>        0.000
     16 H           0.6033   -0.5030   -1.2673 H.spc      1 <1>        0.000
     17 H           5.7172    0.4738   -1.0995 H.spc      1 <1>        0.000
     18 H           3.4417    4.9130   -3.8983 H.spc      1 <1>        0.000
     19 H           5.0581    4.2161   -3.7468 H.spc      1 <1>        0.000
@<TRIPOS>BOND
     1    6    7 ar 
     2    8    9 2  
     3    6    8 1  
     4    5    6 ar 
     5    8   10 am 
     6    5   11 1  
     7    1    2 1  
     8    2    3 ar 
     9    2    7 ar 
    10    3   12 1  
    11    3    4 ar 
    12    4    5 ar 
    13    4   13 1  
    14    7   14 1  
    15   10   15 1  
    16   10   16 1  
    17   11   17 1  
    18   12   18 1  
    19   12   19 1  
# Name:          frag5-579-42/41815 -- energy: -1.014203
# Creation time: Sat Jun  5 12:52:56 2010


@<TRIPOS>MOLECULE
frag5-579-42/41815 -- energy: -1.014203
   19    19     1     1     1
SMALL
USER_CHARGES


@<TRIPOS>ATOM
      1 Cl1         1.0338    4.1742   -3.2157 Cl         1 <1>        0.000
      2 C1          2.1971    3.1279   -2.4329 C.ar       1 <1>        0.000
      3 C2          3.5838    3.2915   -2.6316 C.ar       1 <1>        0.000
      4 C3          4.4498    2.4058   -1.9853 C.ar       1 <1>        0.000
      5 C4          3.9902    1.3726   -1.1590 C.ar       1 <1>        0.000
      6 C5          2.6054    1.2265   -0.9702 C.ar       1 <1>        0.000
      7 C6          1.7315    2.1147   -1.5920 C.ar       1 <1>        0.000
      8 C7          2.1002    0.1035   -0.0808 C.2        1 <1>        0.000
      9 O1          2.7766   -0.9114   -0.0036 O.2        1 <1>        0.000
     10 N1          0.9387    0.2190    0.5967 N.am       1 <1>        0.000
     11 O2          4.8690    0.5011   -0.5370 O.3        1 <1>        0.000
     12 N3          4.0752    4.2739   -3.4220 N.pl3      1 <1>        0.000
     13 H           5.5238    2.5234   -2.1297 H.spc      1 <1>        0.000
     14 H           0.6599    2.0169   -1.4185 H.spc      1 <1>        0.000
     15 H           0.6128   -0.5481    1.1848 H.spc      1 <1>        0.000
     16 H           0.3867    1.0734    0.5207 H.spc      1 <1>        0.000
     17 H           5.7701    0.7376   -0.7687 H.spc      1 <1>        0.000
     18 H           3.4381    4.9179   -3.8908 H.spc      1 <1>        0.000
     19 H           5.0827    4.3704   -3.5489 H.spc      1 <1>        0.000
@<TRIPOS>BOND
     1    6    7 ar 
     2    8    9 2  
     3    6    8 1  
     4    5    6 ar 
     5    8   10 am 
     6    5   11 1  
     7    1    2 1  
     8    2    3 ar 
     9    2    7 ar 
    10    3   12 1  
    11    3    4 ar 
    12    4    5 ar 
    13    4   13 1  
    14    7   14 1  
    15   10   15 1  
    16   10   16 1  
    17   11   17 1  
    18   12   18 1  
    19   12   19 1  
# Name:          frag5-579-42/41815 -- energy: -1.462698
# Creation time: Sat Jun  5 12:52:56 2010


@<TRIPOS>MOLECULE
frag5-579-42/41815 -- energy: -1.462698
   19    19     1     1     1
SMALL
USER_CHARGES


@<TRIPOS>ATOM
      1 Cl1         1.0589    4.2714   -3.1229 Cl         1 <1>        0.000
      2 C1          2.2089    3.1682   -2.3952 C.ar       1 <1>        0.000
      3 C2          3.5874    3.2663   -2.6573 C.ar       1 <1>        0.000
      4 C3          4.4448    2.3401   -2.0547 C.ar       1 <1>        0.000
      5 C4          3.9686    1.3294   -1.2096 C.ar       1 <1>        0.000
      6 C5          2.5924    1.2447   -0.9543 C.ar       1 <1>        0.000
      7 C6          1.7307    2.1764   -1.5354 C.ar       1 <1>        0.000
      8 C7          2.0756    0.1455   -0.0444 C.2        1 <1>        0.000
      9 O1          1.3270    0.4643    0.8663 O.2        1 <1>        0.000
     10 N1          2.4334   -1.1444   -0.2293 N.am       1 <1>        0.000
     11 O2          4.8346    0.4089   -0.6266 O.3        1 <1>        0.000
     12 N3          4.0889    4.2283   -3.4699 N.pl3      1 <1>        0.000
     13 H           5.5154    2.4067   -2.2484 H.spc      1 <1>        0.000
     14 H           0.6644    2.1292   -1.3141 H.spc      1 <1>        0.000
     15 H           2.0774   -1.8671    0.3963 H.spc      1 <1>        0.000
     16 H           3.0595   -1.3953   -0.9944 H.spc      1 <1>        0.000
     17 H           5.7349    0.6016   -0.8985 H.spc      1 <1>        0.000
     18 H           3.4623    4.9034   -3.9081 H.spc      1 <1>        0.000
     19 H           5.0929    4.2771   -3.6432 H.spc      1 <1>        0.000
@<TRIPOS>BOND
     1    6    7 ar 
     2    8    9 2  
     3    6    8 1  
     4    5    6 ar 
     5    8   10 am 
     6    5   11 1  
     7    1    2 1  
     8    2    3 ar 
     9    2    7 ar 
    10    3   12 1  
    11    3    4 ar 
    12    4    5 ar 
    13    4   13 1  
    14    7   14 1  
    15   10   15 1  
    16   10   16 1  
    17   11   17 1  
    18   12   18 1  
    19   12   19 1  
# Name:          frag5-579-42/41815 -- energy: -1.492858
# Creation time: Sat Jun  5 12:52:56 2010


@<TRIPOS>MOLECULE
frag5-579-42/41815 -- energy: -1.492858
   19    19     1     1     1
SMALL
USER_CHARGES


@<TRIPOS>ATOM
      1 Cl1         1.0621    3.9808   -3.4851 Cl         1 <1>        0.000
      2 C1          2.2065    3.0494   -2.5442 C.ar       1 <1>        0.000
      3 C2          3.5886    3.3231   -2.5872 C.ar       1 <1>        0.000
      4 C3          4.4424    2.5250   -1.8208 C.ar       1 <1>        0.000
      5 C4          3.9724    1.4740   -1.0237 C.ar       1 <1>        0.000
      6 C5          2.5921    1.2167   -0.9902 C.ar       1 <1>        0.000
      7 C6          1.7276    2.0173   -1.7339 C.ar       1 <1>        0.000
      8 C7          2.0763    0.0736   -0.1333 C.2        1 <1>        0.000
      9 O1          1.3758   -0.7692   -0.6710 O.2        1 <1>        0.000
     10 N1          2.3787   -0.0073    1.1804 N.am       1 <1>        0.000
     11 O2          4.8396    0.6880   -0.2802 O.3        1 <1>        0.000
     12 N3          4.0891    4.3277   -3.3441 N.pl3      1 <1>        0.000
     13 H           5.5131    2.7280   -1.8444 H.spc      1 <1>        0.000
     14 H           0.6543    1.8342   -1.6823 H.spc      1 <1>        0.000
     15 H           2.0203   -0.7815    1.7395 H.spc      1 <1>        0.000
     16 H           2.9655    0.7058    1.6135 H.spc      1 <1>        0.000
     17 H           5.7400    0.9933   -0.4130 H.spc      1 <1>        0.000
     18 H           3.4617    4.9078   -3.9012 H.spc      1 <1>        0.000
     19 H           5.0936    4.5046   -3.3573 H.spc      1 <1>        0.000
@<TRIPOS>BOND
     1    6    7 ar 
     2    8    9 2  
     3    6    8 1  
     4    5    6 ar 
     5    8   10 am 
     6    5   11 1  
     7    1    2 1  
     8    2    3 ar 
     9    2    7 ar 
    10    3   12 1  
    11    3    4 ar 
    12    4    5 ar 
    13    4   13 1  
    14    7   14 1  
    15   10   15 1  
    16   10   16 1  
    17   11   17 1  
    18   12   18 1  
    19   12   19 1  
# Name:          frag5-579-42/41815 -- energy: -1.414904
# Creation time: Sat Jun  5 12:52:56 2010


@<TRIPOS>MOLECULE
frag5-579-42/41815 -- energy: -1.414904
   19    19     1     1     1
SMALL
USER_CHARGES


@<TRIPOS>ATOM
      1 Cl1         1.0684    4.3678   -2.9695 Cl         1 <1>        0.000
      2 C1          2.2142    3.2067   -2.3322 C.ar       1 <1>        0.000
      3 C2          3.5771    3.2524   -2.6807 C.ar       1 <1>        0.000
      4 C3          4.4300    2.2820   -2.1461 C.ar       1 <1>        0.000
      5 C4          3.9679    1.2773   -1.2861 C.ar       1 <1>        0.000
      6 C5          2.6071    1.2462   -0.9450 C.ar       1 <1>        0.000
      7 C6          1.7512    2.2212   -1.4569 C.ar       1 <1>        0.000
      8 C7          2.1041    0.1539   -0.0187 C.2        1 <1>        0.000
      9 O1          2.6708    0.0089    1.0536 O.2        1 <1>        0.000
     10 N1          1.0661   -0.6367   -0.3682 N.am       1 <1>        0.000
     11 O2          4.8286    0.3138   -0.7732 O.3        1 <1>        0.000
     12 N3          4.0659    4.2057   -3.5103 N.pl3      1 <1>        0.000
     13 H           5.4881    2.3080   -2.4067 H.spc      1 <1>        0.000
     14 H           0.7001    2.2141   -1.1683 H.spc      1 <1>        0.000
     15 H           0.7451   -1.3674    0.2670 H.spc      1 <1>        0.000
     16 H           0.6033   -0.5030   -1.2673 H.spc      1 <1>        0.000
     17 H           5.7172    0.4738   -1.0995 H.spc      1 <1>        0.000
     18 H           3.4417    4.9130   -3.8983 H.spc      1 <1>        0.000
     19 H           5.0581    4.2161   -3.7468 H.spc      1 <1>        0.000
@<TRIPOS>BOND
     1    6    7 ar 
     2    8    9 2  
     3    6    8 1  
     4    5    6 ar 
     5    8   10 am 
     6    5   11 1  
     7    1    2 1  
     8    2    3 ar 
     9    2    7 ar 
    10    3   12 1  
    11    3    4 ar 
    12    4    5 ar 
    13    4   13 1  
    14    7   14 1  
    15   10   15 1  
    16   10   16 1  
    17   11   17 1  
    18   12   18 1  
    19   12   19 1  
