#      Rotatable Fragment
#      Build by yxyuan
#
# Name:          frag3-147-28/96164
# Creation time: Sat Jun  5 12:53:05 2010


@<TRIPOS>MOLECULE
frag3-147-28/96164
   10     9     1     1     1
SMALL
USER_CHARGES


@<TRIPOS>ATOM
      1 O5         -1.0114   -0.7200    0.2090 O.3        1 <1>        0.000
      2 S1         -2.1938    0.3177    0.3835 S.o2       1 <1>        0.000
      3 N5         -3.4945   -0.5742    0.4655 N.am       1 <1>        0.000
      4 O6         -2.2075    0.9901   -0.8828 O.2        1 <1>        0.000
      5 O7         -2.0158    0.9253    1.6790 O.2        1 <1>        0.000
      6 C21        -3.7042   -1.6792    1.2348 C.2        1 <1>        0.000
      7 O8         -4.5094   -2.5270    0.9044 O.2        1 <1>        0.000
      8 H          -0.9149   -1.2320    1.0153 H.spc      1 <1>        0.000
      9 H          -4.2720   -0.2884   -0.1296 H.spc      1 <1>        0.000
     10 H          -3.1415   -1.8043    2.1599 H.spc      1 <1>        0.000
@<TRIPOS>BOND
     1    1    2 1  
     2    2    3 1  
     3    2    4 2  
     4    2    5 2  
     5    3    6 am 
     6    6    7 2  
     7    1    8 1  
     8    3    9 1  
     9    6   10 1  
# Name:          frag3-147-28/96164
# Creation time: Sat Jun  5 12:53:05 2010


@<TRIPOS>MOLECULE
frag3-147-28/96164
   10     9     1     1     1
SMALL
USER_CHARGES


@<TRIPOS>ATOM
      1 O5         -0.5936   -0.2434    0.1437 O.3        1 <1>        0.000
      2 S1         -2.0983    0.1669    0.3716 S.o2       1 <1>        0.000
      3 N5         -2.9403   -1.1693    0.3784 N.am       1 <1>        0.000
      4 O6         -2.5457    0.9411   -0.7555 O.2        1 <1>        0.000
      5 O7         -2.1046    0.6219    1.7355 O.2        1 <1>        0.000
      6 C21        -4.2160   -1.2641    0.8545 C.2        1 <1>        0.000
      7 O8         -4.6380   -2.3203    1.2653 O.2        1 <1>        0.000
      8 H          -0.2873   -0.7608    0.8921 H.spc      1 <1>        0.000
      9 H          -2.5045   -2.0123    0.0044 H.spc      1 <1>        0.000
     10 H          -4.8578   -0.3831    0.8645 H.spc      1 <1>        0.000
@<TRIPOS>BOND
     1    1    2 1  
     2    2    3 1  
     3    2    4 2  
     4    2    5 2  
     5    3    6 am 
     6    6    7 2  
     7    1    8 1  
     8    3    9 1  
     9    6   10 1  
# Name:          frag3-147-28/96164
# Creation time: Sat Jun  5 12:53:05 2010


@<TRIPOS>MOLECULE
frag3-147-28/96164
   10     9     1     1     1
SMALL
USER_CHARGES


@<TRIPOS>ATOM
      1 O5         -1.2478   -0.9664    0.1221 O.3        1 <1>        0.000
      2 S1         -2.2564    0.2168    0.3994 S.o2       1 <1>        0.000
      3 N5         -3.6751   -0.4416    0.1463 N.am       1 <1>        0.000
      4 O6         -2.0359    1.0860   -0.7295 O.2        1 <1>        0.000
      5 O7         -2.2269    0.5755    1.7878 O.2        1 <1>        0.000
      6 C21        -4.1931   -1.5362    0.7525 C.2        1 <1>        0.000
      7 O8         -3.5013   -2.2011    1.5148 O.2        1 <1>        0.000
      8 H          -1.3143   -1.6140    0.8276 H.spc      1 <1>        0.000
      9 H          -4.2651    0.0102   -0.5524 H.spc      1 <1>        0.000
     10 H          -5.2265   -1.8261    0.5622 H.spc      1 <1>        0.000
@<TRIPOS>BOND
     1    1    2 1  
     2    2    3 1  
     3    2    4 2  
     4    2    5 2  
     5    3    6 am 
     6    6    7 2  
     7    1    8 1  
     8    3    9 1  
     9    6   10 1  
# Name:          frag3-147-28/96164
# Creation time: Sat Jun  5 12:53:05 2010


@<TRIPOS>MOLECULE
frag3-147-28/96164
   10     9     1     1     1
SMALL
USER_CHARGES


@<TRIPOS>ATOM
      1 O5         -0.6496    0.1072    0.1453 O.3        1 <1>        0.000
      2 S1         -2.1876    0.0310    0.4250 S.o2       1 <1>        0.000
      3 N5         -2.5843   -1.4799    0.6505 N.am       1 <1>        0.000
      4 O6         -2.8157    0.4701   -0.7981 O.2        1 <1>        0.000
      5 O7         -2.2993    0.6413    1.7197 O.2        1 <1>        0.000
      6 C21        -3.8275   -1.9013    1.0053 C.2        1 <1>        0.000
      7 O8         -4.7725   -1.1357    0.8458 O.2        1 <1>        0.000
      8 H          -0.1690   -0.1746    0.9271 H.spc      1 <1>        0.000
      9 H          -1.8604   -2.1868    0.5216 H.spc      1 <1>        0.000
     10 H          -3.9808   -2.8968    1.4220 H.spc      1 <1>        0.000
@<TRIPOS>BOND
     1    1    2 1  
     2    2    3 1  
     3    2    4 2  
     4    2    5 2  
     5    3    6 am 
     6    6    7 2  
     7    1    8 1  
     8    3    9 1  
     9    6   10 1  
# Name:          frag3-147-28/96164
# Creation time: Sat Jun  5 12:53:05 2010


@<TRIPOS>MOLECULE
frag3-147-28/96164
   10     9     1     1     1
SMALL
USER_CHARGES


@<TRIPOS>ATOM
      1 O5         -1.2189   -0.9500    0.4508 O.3        1 <1>        0.000
      2 S1         -2.2548    0.2306    0.5013 S.o2       1 <1>        0.000
      3 N5         -3.5164   -0.3388    1.2348 N.am       1 <1>        0.000
      4 O6         -2.6531    0.4720   -0.8552 O.2        1 <1>        0.000
      5 O7         -1.6411    1.1789    1.4009 O.2        1 <1>        0.000
      6 C21        -4.1240   -1.5465    1.0663 C.2        1 <1>        0.000
      7 O8         -3.7282   -2.3133    0.1945 O.2        1 <1>        0.000
      8 H          -0.9203   -1.1505    1.3409 H.spc      1 <1>        0.000
      9 H          -3.9388    0.2759    1.9306 H.spc      1 <1>        0.000
     10 H          -4.9603   -1.8308    1.7050 H.spc      1 <1>        0.000
@<TRIPOS>BOND
     1    1    2 1  
     2    2    3 1  
     3    2    4 2  
     4    2    5 2  
     5    3    6 am 
     6    6    7 2  
     7    1    8 1  
     8    3    9 1  
     9    6   10 1  
# Name:          frag3-147-28/96164
# Creation time: Sat Jun  5 12:53:05 2010


@<TRIPOS>MOLECULE
frag3-147-28/96164
   10     9     1     1     1
SMALL
USER_CHARGES


@<TRIPOS>ATOM
      1 O5         -0.7598   -0.3862    0.1809 O.3        1 <1>        0.000
      2 S1         -2.2297    0.1244    0.3749 S.o2       1 <1>        0.000
      3 N5         -3.1035   -1.1053   -0.1101 N.am       1 <1>        0.000
      4 O6         -2.3750    1.1097   -0.6672 O.2        1 <1>        0.000
      5 O7         -2.3803    0.3578    1.7918 O.2        1 <1>        0.000
      6 C21        -4.0646   -1.7758    0.6079 C.2        1 <1>        0.000
      7 O8         -4.2237   -1.5918    1.8153 O.2        1 <1>        0.000
      8 H          -0.5656   -1.0567    0.8399 H.spc      1 <1>        0.000
      9 H          -2.9339   -1.4357   -1.0601 H.spc      1 <1>        0.000
     10 H          -4.7053   -2.4919    0.0934 H.spc      1 <1>        0.000
@<TRIPOS>BOND
     1    1    2 1  
     2    2    3 1  
     3    2    4 2  
     4    2    5 2  
     5    3    6 am 
     6    6    7 2  
     7    1    8 1  
     8    3    9 1  
     9    6   10 1  
# Name:          frag3-147-28/96164 -- energy: -0.754652
# Creation time: Sat Jun  5 12:53:05 2010


@<TRIPOS>MOLECULE
frag3-147-28/96164 -- energy: -0.754652
   10     9     1     1     1
SMALL
USER_CHARGES


@<TRIPOS>ATOM
      1 O5         -1.0114   -0.7200    0.2090 O.3        1 <1>        0.000
      2 S1         -2.1938    0.3177    0.3835 S.o2       1 <1>        0.000
      3 N5         -3.4945   -0.5742    0.4655 N.am       1 <1>        0.000
      4 O6         -2.2075    0.9901   -0.8828 O.2        1 <1>        0.000
      5 O7         -2.0158    0.9253    1.6790 O.2        1 <1>        0.000
      6 C21        -3.7042   -1.6792    1.2348 C.2        1 <1>        0.000
      7 O8         -4.5094   -2.5270    0.9044 O.2        1 <1>        0.000
      8 H          -0.9149   -1.2320    1.0153 H.spc      1 <1>        0.000
      9 H          -4.2720   -0.2884   -0.1296 H.spc      1 <1>        0.000
     10 H          -3.1415   -1.8043    2.1599 H.spc      1 <1>        0.000
@<TRIPOS>BOND
     1    1    2 1  
     2    2    3 1  
     3    2    4 2  
     4    2    5 2  
     5    3    6 am 
     6    6    7 2  
     7    1    8 1  
     8    3    9 1  
     9    6   10 1  
# Name:          frag3-147-28/96164 -- energy: -0.662220
# Creation time: Sat Jun  5 12:53:05 2010


@<TRIPOS>MOLECULE
frag3-147-28/96164 -- energy: -0.662220
   10     9     1     1     1
SMALL
USER_CHARGES


@<TRIPOS>ATOM
      1 O5         -0.5936   -0.2434    0.1437 O.3        1 <1>        0.000
      2 S1         -2.0983    0.1669    0.3716 S.o2       1 <1>        0.000
      3 N5         -2.9403   -1.1693    0.3784 N.am       1 <1>        0.000
      4 O6         -2.5457    0.9411   -0.7555 O.2        1 <1>        0.000
      5 O7         -2.1046    0.6219    1.7355 O.2        1 <1>        0.000
      6 C21        -4.2160   -1.2641    0.8545 C.2        1 <1>        0.000
      7 O8         -4.6380   -2.3203    1.2653 O.2        1 <1>        0.000
      8 H          -0.2873   -0.7608    0.8921 H.spc      1 <1>        0.000
      9 H          -2.5045   -2.0123    0.0044 H.spc      1 <1>        0.000
     10 H          -4.8578   -0.3831    0.8645 H.spc      1 <1>        0.000
@<TRIPOS>BOND
     1    1    2 1  
     2    2    3 1  
     3    2    4 2  
     4    2    5 2  
     5    3    6 am 
     6    6    7 2  
     7    1    8 1  
     8    3    9 1  
     9    6   10 1  
# Name:          frag3-147-28/96164 -- energy: -0.703881
# Creation time: Sat Jun  5 12:53:05 2010


@<TRIPOS>MOLECULE
frag3-147-28/96164 -- energy: -0.703881
   10     9     1     1     1
SMALL
USER_CHARGES


@<TRIPOS>ATOM
      1 O5         -1.2478   -0.9664    0.1221 O.3        1 <1>        0.000
      2 S1         -2.2564    0.2168    0.3994 S.o2       1 <1>        0.000
      3 N5         -3.6751   -0.4416    0.1463 N.am       1 <1>        0.000
      4 O6         -2.0359    1.0860   -0.7295 O.2        1 <1>        0.000
      5 O7         -2.2269    0.5755    1.7878 O.2        1 <1>        0.000
      6 C21        -4.1931   -1.5362    0.7525 C.2        1 <1>        0.000
      7 O8         -3.5013   -2.2011    1.5148 O.2        1 <1>        0.000
      8 H          -1.3143   -1.6140    0.8276 H.spc      1 <1>        0.000
      9 H          -4.2651    0.0102   -0.5524 H.spc      1 <1>        0.000
     10 H          -5.2265   -1.8261    0.5622 H.spc      1 <1>        0.000
@<TRIPOS>BOND
     1    1    2 1  
     2    2    3 1  
     3    2    4 2  
     4    2    5 2  
     5    3    6 am 
     6    6    7 2  
     7    1    8 1  
     8    3    9 1  
     9    6   10 1  
# Name:          frag3-147-28/96164 -- energy: -0.673511
# Creation time: Sat Jun  5 12:53:05 2010


@<TRIPOS>MOLECULE
frag3-147-28/96164 -- energy: -0.673511
   10     9     1     1     1
SMALL
USER_CHARGES


@<TRIPOS>ATOM
      1 O5         -0.6496    0.1072    0.1453 O.3        1 <1>        0.000
      2 S1         -2.1876    0.0310    0.4250 S.o2       1 <1>        0.000
      3 N5         -2.5843   -1.4799    0.6505 N.am       1 <1>        0.000
      4 O6         -2.8157    0.4701   -0.7981 O.2        1 <1>        0.000
      5 O7         -2.2993    0.6413    1.7197 O.2        1 <1>        0.000
      6 C21        -3.8275   -1.9013    1.0053 C.2        1 <1>        0.000
      7 O8         -4.7725   -1.1357    0.8458 O.2        1 <1>        0.000
      8 H          -0.1690   -0.1746    0.9271 H.spc      1 <1>        0.000
      9 H          -1.8604   -2.1868    0.5216 H.spc      1 <1>        0.000
     10 H          -3.9808   -2.8968    1.4220 H.spc      1 <1>        0.000
@<TRIPOS>BOND
     1    1    2 1  
     2    2    3 1  
     3    2    4 2  
     4    2    5 2  
     5    3    6 am 
     6    6    7 2  
     7    1    8 1  
     8    3    9 1  
     9    6   10 1  
# Name:          frag3-147-28/96164 -- energy: -0.754048
# Creation time: Sat Jun  5 12:53:05 2010


@<TRIPOS>MOLECULE
frag3-147-28/96164 -- energy: -0.754048
   10     9     1     1     1
SMALL
USER_CHARGES


@<TRIPOS>ATOM
      1 O5         -1.2189   -0.9500    0.4508 O.3        1 <1>        0.000
      2 S1         -2.2548    0.2306    0.5013 S.o2       1 <1>        0.000
      3 N5         -3.5164   -0.3388    1.2348 N.am       1 <1>        0.000
      4 O6         -2.6531    0.4720   -0.8552 O.2        1 <1>        0.000
      5 O7         -1.6411    1.1789    1.4009 O.2        1 <1>        0.000
      6 C21        -4.1240   -1.5465    1.0663 C.2        1 <1>        0.000
      7 O8         -3.7282   -2.3133    0.1945 O.2        1 <1>        0.000
      8 H          -0.9203   -1.1505    1.3409 H.spc      1 <1>        0.000
      9 H          -3.9388    0.2759    1.9306 H.spc      1 <1>        0.000
     10 H          -4.9603   -1.8308    1.7050 H.spc      1 <1>        0.000
@<TRIPOS>BOND
     1    1    2 1  
     2    2    3 1  
     3    2    4 2  
     4    2    5 2  
     5    3    6 am 
     6    6    7 2  
     7    1    8 1  
     8    3    9 1  
     9    6   10 1  
# Name:          frag3-147-28/96164 -- energy: -0.553518
# Creation time: Sat Jun  5 12:53:05 2010


@<TRIPOS>MOLECULE
frag3-147-28/96164 -- energy: -0.553518
   10     9     1     1     1
SMALL
USER_CHARGES


@<TRIPOS>ATOM
      1 O5         -0.7598   -0.3862    0.1809 O.3        1 <1>        0.000
      2 S1         -2.2297    0.1244    0.3749 S.o2       1 <1>        0.000
      3 N5         -3.1035   -1.1053   -0.1101 N.am       1 <1>        0.000
      4 O6         -2.3750    1.1097   -0.6672 O.2        1 <1>        0.000
      5 O7         -2.3803    0.3578    1.7918 O.2        1 <1>        0.000
      6 C21        -4.0646   -1.7758    0.6079 C.2        1 <1>        0.000
      7 O8         -4.2237   -1.5918    1.8153 O.2        1 <1>        0.000
      8 H          -0.5656   -1.0567    0.8399 H.spc      1 <1>        0.000
      9 H          -2.9339   -1.4357   -1.0601 H.spc      1 <1>        0.000
     10 H          -4.7053   -2.4919    0.0934 H.spc      1 <1>        0.000
@<TRIPOS>BOND
     1    1    2 1  
     2    2    3 1  
     3    2    4 2  
     4    2    5 2  
     5    3    6 am 
     6    6    7 2  
     7    1    8 1  
     8    3    9 1  
     9    6   10 1  
