#      Rotatable Fragment
#      Build by yxyuan
#
# Name:          frag4-313-336/48856
# Creation time: Sat Jun  5 12:52:56 2010


@<TRIPOS>MOLECULE
frag4-313-336/48856
   45    48     1     1     1
SMALL
USER_CHARGES


@<TRIPOS>ATOM
      1 C1          3.6716    0.8665    1.6591 C.3        1 <1>        0.000
      2 C2          3.1838   -0.3406    0.8023 C.3        1 <1>        0.000
      3 C3          4.3288   -0.8133   -0.1333 C.3        1 <1>        0.000
      4 C4          5.6293   -1.1216    0.6382 C.3        1 <1>        0.000
      5 C5          6.0918    0.1006    1.4522 C.3        1 <1>        0.000
      6 C6          4.9773    0.5366    2.4203 C.3        1 <1>        0.000
      7 C17         0.7789    0.4957    1.0576 C.3        1 <1>        0.000
      8 C9          1.8698    0.0255    0.0462 C.3        1 <1>        0.000
      9 C10         1.3246   -1.1236   -0.8517 C.3        1 <1>        0.000
     10 C11        -0.0103   -0.7721   -1.5454 C.3        1 <1>        0.000
     11 C12        -1.0445   -0.3576   -0.4862 C.3        1 <1>        0.000
     12 C13        -2.4048    0.1522   -0.9893 C.3        1 <1>        0.000
     13 C14        -2.9429    1.0313    0.1666 C.3        1 <1>        0.000
     14 C15        -1.7620    1.2208    1.1544 C.3        1 <1>        0.000
     15 C16        -0.5265    0.8507    0.3113 C.3        1 <1>        0.000
     16 C18         1.2790    1.6895    1.9001 C.3        1 <1>        0.000
     17 C19         2.5744    1.3274    2.6441 C.3        1 <1>        0.000
     18 H           3.8842    1.6846    0.9709 H.spc      1 <1>        0.000
     19 H           2.9348   -1.1842    1.4460 H.spc      1 <1>        0.000
     20 H           4.5386   -0.0115   -0.8413 H.spc      1 <1>        0.000
     21 H           4.0044   -1.7292   -0.6272 H.spc      1 <1>        0.000
     22 H           5.4412   -1.9475    1.3242 H.spc      1 <1>        0.000
     23 H           6.4086   -1.3788   -0.0792 H.spc      1 <1>        0.000
     24 H           6.9817   -0.1635    2.0236 H.spc      1 <1>        0.000
     25 H           6.3186    0.9213    0.7716 H.spc      1 <1>        0.000
     26 H           4.7788   -0.2813    3.1129 H.spc      1 <1>        0.000
     27 H           5.3066    1.4308    2.9495 H.spc      1 <1>        0.000
     28 H           0.5703   -0.3255    1.7434 H.spc      1 <1>        0.000
     29 H           2.1214    0.8421   -0.6305 H.spc      1 <1>        0.000
     30 H           2.0626   -1.3122   -1.6314 H.spc      1 <1>        0.000
     31 H           1.1468   -1.9875   -0.2112 H.spc      1 <1>        0.000
     32 H           0.1477    0.0520   -2.2411 H.spc      1 <1>        0.000
     33 H          -0.3768   -1.6421   -2.0902 H.spc      1 <1>        0.000
     34 H          -1.1818   -1.2902    0.0611 H.spc      1 <1>        0.000
     35 H          -2.3117    0.7132   -1.9192 H.spc      1 <1>        0.000
     36 H          -3.0836   -0.6660   -1.2296 H.spc      1 <1>        0.000
     37 H          -3.3016    1.9912   -0.2048 H.spc      1 <1>        0.000
     38 H          -3.7927    0.5569    0.6574 H.spc      1 <1>        0.000
     39 H          -1.7083    2.2340    1.5526 H.spc      1 <1>        0.000
     40 H          -1.8599    0.6025    2.0467 H.spc      1 <1>        0.000
     41 H          -0.1978    1.7182   -0.2610 H.spc      1 <1>        0.000
     42 H           1.4785    2.5299    1.2353 H.spc      1 <1>        0.000
     43 H           0.5138    1.9484    2.6319 H.spc      1 <1>        0.000
     44 H           2.9305    2.2107    3.1743 H.spc      1 <1>        0.000
     45 H           2.3627    0.5126    3.3365 H.spc      1 <1>        0.000
@<TRIPOS>BOND
     1    1    6 1  
     2    2    8 1  
     3    2    3 1  
     4    1    2 1  
     5    1   17 1  
     6   16   17 1  
     7    7   16 1  
     8   15    7 1  
     9   14   15 1  
    10   13   14 1  
    11   12   13 1  
    12   11   15 1  
    13   11   12 1  
    14   10   11 1  
    15    8    7 1  
    16    9   10 1  
    17    8    9 1  
    18    5    6 1  
    19    4    5 1  
    20    3    4 1  
    21    1   18 1  
    22    2   19 1  
    23    3   20 1  
    24    3   21 1  
    25    4   22 1  
    26    4   23 1  
    27    5   24 1  
    28    5   25 1  
    29    6   26 1  
    30    6   27 1  
    31    7   28 1  
    32    8   29 1  
    33    9   30 1  
    34    9   31 1  
    35   10   32 1  
    36   10   33 1  
    37   11   34 1  
    38   12   35 1  
    39   12   36 1  
    40   13   37 1  
    41   13   38 1  
    42   14   39 1  
    43   14   40 1  
    44   15   41 1  
    45   16   42 1  
    46   16   43 1  
    47   17   44 1  
    48   17   45 1  
# Name:          frag4-313-336/48856 -- energy: -8.874394
# Creation time: Sat Jun  5 12:52:56 2010


@<TRIPOS>MOLECULE
frag4-313-336/48856 -- energy: -8.874394
   45    48     1     1     1
SMALL
USER_CHARGES


@<TRIPOS>ATOM
      1 C1          3.6716    0.8665    1.6591 C.3        1 <1>        0.000
      2 C2          3.1838   -0.3406    0.8023 C.3        1 <1>        0.000
      3 C3          4.3288   -0.8133   -0.1333 C.3        1 <1>        0.000
      4 C4          5.6293   -1.1216    0.6382 C.3        1 <1>        0.000
      5 C5          6.0918    0.1006    1.4522 C.3        1 <1>        0.000
      6 C6          4.9773    0.5366    2.4203 C.3        1 <1>        0.000
      7 C17         0.7789    0.4957    1.0576 C.3        1 <1>        0.000
      8 C9          1.8698    0.0255    0.0462 C.3        1 <1>        0.000
      9 C10         1.3246   -1.1236   -0.8517 C.3        1 <1>        0.000
     10 C11        -0.0103   -0.7721   -1.5454 C.3        1 <1>        0.000
     11 C12        -1.0445   -0.3576   -0.4862 C.3        1 <1>        0.000
     12 C13        -2.4048    0.1522   -0.9893 C.3        1 <1>        0.000
     13 C14        -2.9429    1.0313    0.1666 C.3        1 <1>        0.000
     14 C15        -1.7620    1.2208    1.1544 C.3        1 <1>        0.000
     15 C16        -0.5265    0.8507    0.3113 C.3        1 <1>        0.000
     16 C18         1.2790    1.6895    1.9001 C.3        1 <1>        0.000
     17 C19         2.5744    1.3274    2.6441 C.3        1 <1>        0.000
     18 H           3.8842    1.6846    0.9709 H.spc      1 <1>        0.000
     19 H           2.9348   -1.1842    1.4460 H.spc      1 <1>        0.000
     20 H           4.5386   -0.0115   -0.8413 H.spc      1 <1>        0.000
     21 H           4.0044   -1.7292   -0.6272 H.spc      1 <1>        0.000
     22 H           5.4412   -1.9475    1.3242 H.spc      1 <1>        0.000
     23 H           6.4086   -1.3788   -0.0792 H.spc      1 <1>        0.000
     24 H           6.9817   -0.1635    2.0236 H.spc      1 <1>        0.000
     25 H           6.3186    0.9213    0.7716 H.spc      1 <1>        0.000
     26 H           4.7788   -0.2813    3.1129 H.spc      1 <1>        0.000
     27 H           5.3066    1.4308    2.9495 H.spc      1 <1>        0.000
     28 H           0.5703   -0.3255    1.7434 H.spc      1 <1>        0.000
     29 H           2.1214    0.8421   -0.6305 H.spc      1 <1>        0.000
     30 H           2.0626   -1.3122   -1.6314 H.spc      1 <1>        0.000
     31 H           1.1468   -1.9875   -0.2112 H.spc      1 <1>        0.000
     32 H           0.1477    0.0520   -2.2411 H.spc      1 <1>        0.000
     33 H          -0.3768   -1.6421   -2.0902 H.spc      1 <1>        0.000
     34 H          -1.1818   -1.2902    0.0611 H.spc      1 <1>        0.000
     35 H          -2.3117    0.7132   -1.9192 H.spc      1 <1>        0.000
     36 H          -3.0836   -0.6660   -1.2296 H.spc      1 <1>        0.000
     37 H          -3.3016    1.9912   -0.2048 H.spc      1 <1>        0.000
     38 H          -3.7927    0.5569    0.6574 H.spc      1 <1>        0.000
     39 H          -1.7083    2.2340    1.5526 H.spc      1 <1>        0.000
     40 H          -1.8599    0.6025    2.0467 H.spc      1 <1>        0.000
     41 H          -0.1978    1.7182   -0.2610 H.spc      1 <1>        0.000
     42 H           1.4785    2.5299    1.2353 H.spc      1 <1>        0.000
     43 H           0.5138    1.9484    2.6319 H.spc      1 <1>        0.000
     44 H           2.9305    2.2107    3.1743 H.spc      1 <1>        0.000
     45 H           2.3627    0.5126    3.3365 H.spc      1 <1>        0.000
@<TRIPOS>BOND
     1    1    6 1  
     2    2    8 1  
     3    2    3 1  
     4    1    2 1  
     5    1   17 1  
     6   16   17 1  
     7    7   16 1  
     8   15    7 1  
     9   14   15 1  
    10   13   14 1  
    11   12   13 1  
    12   11   15 1  
    13   11   12 1  
    14   10   11 1  
    15    8    7 1  
    16    9   10 1  
    17    8    9 1  
    18    5    6 1  
    19    4    5 1  
    20    3    4 1  
    21    1   18 1  
    22    2   19 1  
    23    3   20 1  
    24    3   21 1  
    25    4   22 1  
    26    4   23 1  
    27    5   24 1  
    28    5   25 1  
    29    6   26 1  
    30    6   27 1  
    31    7   28 1  
    32    8   29 1  
    33    9   30 1  
    34    9   31 1  
    35   10   32 1  
    36   10   33 1  
    37   11   34 1  
    38   12   35 1  
    39   12   36 1  
    40   13   37 1  
    41   13   38 1  
    42   14   39 1  
    43   14   40 1  
    44   15   41 1  
    45   16   42 1  
    46   16   43 1  
    47   17   44 1  
    48   17   45 1  
