#      Rotatable Fragment
#      Build by yxyuan
#
# Name:          frag4-422-144/150395
# Creation time: Sat Jun  5 12:53:35 2010


@<TRIPOS>MOLECULE
frag4-422-144/150395
   66    70     1     1     1
SMALL
USER_CHARGES


@<TRIPOS>ATOM
      1 C1          2.2105    2.0076   -1.9062 C.3        1 <1>        0.000
      2 O1          1.1223    1.4002   -2.5410 O.3        1 <1>        0.000
      3 C2          2.8051    1.0859   -0.8604 C.3        1 <1>        0.000
      4 O2          1.8428    3.1222   -1.1680 O.3        1 <1>        0.000
      5 C3          3.1481    2.4758   -3.0095 C.3        1 <1>        0.000
      6 C4          0.3999    1.7729   -3.6538 C.3        1 <1>        0.000
      7 C5          1.7945    0.7227    0.2416 C.3        1 <1>        0.000
      8 C6          0.9680    3.2292   -0.1028 C.3        1 <1>        0.000
      9 C15         2.4250   -1.3004    1.3058 C.3        1 <1>        0.000
     10 C7          2.4166    3.2770   -4.0895 C.3        1 <1>        0.000
     11 C9          1.1869    2.5866   -4.6609 C.3        1 <1>        0.000
     12 C10         0.8885    1.9041    0.6803 C.3        1 <1>        0.000
     13 O3          2.3292    0.0021    1.3625 O.3        1 <1>        0.000
     14 C11        -0.2987    3.9394   -0.5989 C.3        1 <1>        0.000
     15 C30         2.0615   -5.1588   -0.7792 C.3        1 <1>        0.000
     16 C31        -1.2499   -3.3477   -0.7602 C.3        1 <1>        0.000
     17 C32        -0.9503   -1.6716    1.0961 C.2        1 <1>        0.000
     18 C16        -1.5994    3.5466   -0.0140 C.2        1 <1>        0.000
     19 C19         2.2197   -2.3366    0.2594 C.3        1 <1>        0.000
     20 C20        -2.4534    2.6279   -0.4880 C.2        1 <1>        0.000
     21 C22         0.9472   -3.1837    0.3243 C.3        1 <1>        0.000
     22 C23         3.4140   -3.2567    0.1907 C.2        1 <1>        0.000
     23 C24        -3.7506    2.1458    0.0478 C.3        1 <1>        0.000
     24 C26         0.9469   -4.1222   -0.8994 C.3        1 <1>        0.000
     25 C27        -0.4740   -2.6472    0.3155 C.2        1 <1>        0.000
     26 C28         3.3306   -4.5244   -0.2644 C.2        1 <1>        0.000
     27 C29        -3.9386    0.6368    0.0926 C.3        1 <1>        0.000
     28 O8         -0.3986   -4.3761   -1.1651 O.3        1 <1>        0.000
     29 C35        -2.7153   -0.2099    0.2357 C.2        1 <1>        0.000
     30 C37        -2.1962   -0.9697    1.2077 C.2        1 <1>        0.000
     31 H           3.6438    1.6018   -0.3930 H.spc      1 <1>        0.000
     32 H           3.1099    0.1644   -1.3563 H.spc      1 <1>        0.000
     33 H           3.9031    3.1217   -2.5613 H.spc      1 <1>        0.000
     34 H           3.5856    1.5948   -3.4790 H.spc      1 <1>        0.000
     35 H           0.0858    0.8573   -4.1550 H.spc      1 <1>        0.000
     36 H          -0.4236    2.3979   -3.3083 H.spc      1 <1>        0.000
     37 H           1.1481    0.0040   -0.2621 H.spc      1 <1>        0.000
     38 H           1.3040    3.8818    0.7030 H.spc      1 <1>        0.000
     39 H           1.5719   -1.5467    1.9380 H.spc      1 <1>        0.000
     40 H           3.5085   -1.3805    1.3935 H.spc      1 <1>        0.000
     41 H           2.0766    4.2028   -3.6254 H.spc      1 <1>        0.000
     42 H           3.1166    3.4163   -4.9133 H.spc      1 <1>        0.000
     43 H           1.5362    1.8949   -5.4275 H.spc      1 <1>        0.000
     44 H           0.5229    3.3691   -5.0281 H.spc      1 <1>        0.000
     45 H          -0.1313    1.5487    0.5325 H.spc      1 <1>        0.000
     46 H           1.2158    2.1520    1.6900 H.spc      1 <1>        0.000
     47 H          -0.3727    3.6868   -1.6566 H.spc      1 <1>        0.000
     48 H          -0.1660    4.9859   -0.3245 H.spc      1 <1>        0.000
     49 H           2.2551   -5.5824   -1.7647 H.spc      1 <1>        0.000
     50 H           1.7471   -5.9333   -0.0797 H.spc      1 <1>        0.000
     51 H          -2.2112   -3.7190   -0.4050 H.spc      1 <1>        0.000
     52 H          -1.5176   -2.6819   -1.5807 H.spc      1 <1>        0.000
     53 H          -0.2146   -1.3266    1.8226 H.spc      1 <1>        0.000
     54 H          -1.8956    4.0593    0.9011 H.spc      1 <1>        0.000
     55 H           2.0940   -1.7366   -0.6419 H.spc      1 <1>        0.000
     56 H          -2.1436    2.1574   -1.4211 H.spc      1 <1>        0.000
     57 H           1.0734   -3.5453    1.3448 H.spc      1 <1>        0.000
     58 H           4.3826   -2.8823    0.5219 H.spc      1 <1>        0.000
     59 H          -4.5189    2.5288   -0.6238 H.spc      1 <1>        0.000
     60 H          -3.8004    2.4899    1.0809 H.spc      1 <1>        0.000
     61 H           1.2815   -3.7621   -1.8722 H.spc      1 <1>        0.000
     62 H           4.2377   -5.1288   -0.2599 H.spc      1 <1>        0.000
     63 H          -4.5344    0.4428    0.9845 H.spc      1 <1>        0.000
     64 H          -4.3696    0.3671   -0.8716 H.spc      1 <1>        0.000
     65 H          -2.1005   -0.2083   -0.6644 H.spc      1 <1>        0.000
     66 H          -2.7537   -1.0605    2.1399 H.spc      1 <1>        0.000
@<TRIPOS>BOND
     1   29   30 2  
     2   27   29 1  
     3   17   30 1  
     4   28   16 1  
     5   10   11 1  
     6    8   14 1  
     7    8   12 1  
     8    7   13 1  
     9    7   12 1  
    10    6   11 1  
    11    4    8 1  
    12    5   10 1  
    13    1    3 1  
    14    2    6 1  
    15    1    5 1  
    16    3    7 1  
    17    1    2 1  
    18    1    4 1  
    19   13    9 1  
    20   18   20 2  
    21   14   18 1  
    22    9   19 1  
    23   19   22 1  
    24   19   21 1  
    25   20   23 1  
    26   21   24 1  
    27   21   25 1  
    28   22   26 2  
    29   23   27 1  
    30   24   28 1  
    31   24   15 1  
    32   25   16 1  
    33   25   17 2  
    34   26   15 1  
    35    3   31 1  
    36    3   32 1  
    37    5   33 1  
    38    5   34 1  
    39    6   35 1  
    40    6   36 1  
    41    7   37 1  
    42    8   38 1  
    43    9   39 1  
    44    9   40 1  
    45   10   41 1  
    46   10   42 1  
    47   11   43 1  
    48   11   44 1  
    49   12   45 1  
    50   12   46 1  
    51   14   47 1  
    52   14   48 1  
    53   15   49 1  
    54   15   50 1  
    55   16   51 1  
    56   16   52 1  
    57   17   53 1  
    58   18   54 1  
    59   19   55 1  
    60   20   56 1  
    61   21   57 1  
    62   22   58 1  
    63   23   59 1  
    64   23   60 1  
    65   24   61 1  
    66   26   62 1  
    67   27   63 1  
    68   27   64 1  
    69   29   65 1  
    70   30   66 1  
# Name:          frag4-422-144/150395
# Creation time: Sat Jun  5 12:53:35 2010


@<TRIPOS>MOLECULE
frag4-422-144/150395
   66    70     1     1     1
SMALL
USER_CHARGES


@<TRIPOS>ATOM
      1 C1          2.3186    2.1266   -2.3832 C.3        1 <1>        0.000
      2 O1          2.7799    1.9250   -3.6823 O.3        1 <1>        0.000
      3 C2          2.3656    0.8099   -1.6435 C.3        1 <1>        0.000
      4 O2          0.9840    2.5258   -2.3253 O.3        1 <1>        0.000
      5 C3          3.1304    3.3060   -1.8311 C.3        1 <1>        0.000
      6 C4          2.8710    2.8521   -4.6907 C.3        1 <1>        0.000
      7 C5          1.4927    0.5986   -0.4079 C.3        1 <1>        0.000
      8 C6          0.2495    2.8124   -1.1854 C.3        1 <1>        0.000
      9 C15         2.4491   -1.2344    0.7395 C.3        1 <1>        0.000
     10 C7          2.9923    4.5217   -2.7500 C.3        1 <1>        0.000
     11 C9          3.2522    4.2401   -4.2195 C.3        1 <1>        0.000
     12 C10         0.5181    1.7480   -0.1028 C.3        1 <1>        0.000
     13 O3          2.2222    0.0584    0.7021 O.3        1 <1>        0.000
     14 C11        -1.1751    3.2542   -1.5083 C.3        1 <1>        0.000
     15 C30         1.6855   -5.4158   -0.4927 C.3        1 <1>        0.000
     16 C31        -1.5277   -3.6111    0.2424 C.3        1 <1>        0.000
     17 C32        -0.7475   -1.6429    1.5891 C.2        1 <1>        0.000
     18 C16        -2.2291    2.4056   -0.9013 C.2        1 <1>        0.000
     19 C19         2.0345   -2.4344   -0.0509 C.3        1 <1>        0.000
     20 C20        -2.9325    2.6575    0.2096 C.2        1 <1>        0.000
     21 C22         0.8880   -3.2635    0.5324 C.3        1 <1>        0.000
     22 C23         3.1800   -3.3747   -0.3479 C.2        1 <1>        0.000
     23 C24        -3.9778    1.9456    1.0027 C.3        1 <1>        0.000
     24 C26         0.5442   -4.4141   -0.4342 C.3        1 <1>        0.000
     25 C27        -0.4860   -2.7361    0.8674 C.2        1 <1>        0.000
     26 C28         3.0138   -4.7032   -0.5333 C.2        1 <1>        0.000
     27 C29        -3.9959    0.4278    1.1886 C.3        1 <1>        0.000
     28 O8         -0.7968   -4.7116   -0.1963 O.3        1 <1>        0.000
     29 C35        -2.7223   -0.3219    1.0666 C.2        1 <1>        0.000
     30 C37        -1.9481   -0.9734    1.9446 C.2        1 <1>        0.000
     31 H           3.3876    0.7423   -1.2707 H.spc      1 <1>        0.000
     32 H           2.0003    0.0784   -2.3643 H.spc      1 <1>        0.000
     33 H           2.7551    3.5639   -0.8408 H.spc      1 <1>        0.000
     34 H           4.1807    3.0199   -1.7747 H.spc      1 <1>        0.000
     35 H           3.6541    2.5150   -5.3698 H.spc      1 <1>        0.000
     36 H           1.8859    2.9264   -5.1513 H.spc      1 <1>        0.000
     37 H           0.7943   -0.1981   -0.6640 H.spc      1 <1>        0.000
     38 H           0.5922    3.7205   -0.6895 H.spc      1 <1>        0.000
     39 H           1.8930   -1.4568    1.6502 H.spc      1 <1>        0.000
     40 H           3.4957   -1.2106    0.4359 H.spc      1 <1>        0.000
     41 H           1.9604    4.8636   -2.6704 H.spc      1 <1>        0.000
     42 H           3.7393    5.2479   -2.4294 H.spc      1 <1>        0.000
     43 H           4.3275    4.3361   -4.3699 H.spc      1 <1>        0.000
     44 H           2.6378    4.9409   -4.7847 H.spc      1 <1>        0.000
     45 H          -0.4448    1.2629    0.0572 H.spc      1 <1>        0.000
     46 H           0.9800    2.2954    0.7188 H.spc      1 <1>        0.000
     47 H          -1.2939    3.1890   -2.5898 H.spc      1 <1>        0.000
     48 H          -1.2991    4.2586   -1.1035 H.spc      1 <1>        0.000
     49 H           1.5803   -6.0195   -1.3941 H.spc      1 <1>        0.000
     50 H           1.6491   -6.0457    0.3961 H.spc      1 <1>        0.000
     51 H          -2.3210   -3.8835    0.9385 H.spc      1 <1>        0.000
     52 H          -2.0651   -3.1141   -0.5652 H.spc      1 <1>        0.000
     53 H           0.1473   -1.1653    1.9883 H.spc      1 <1>        0.000
     54 H          -2.4564    1.4727   -1.4172 H.spc      1 <1>        0.000
     55 H           1.6674   -1.9704   -0.9664 H.spc      1 <1>        0.000
     56 H          -2.6783    3.6245    0.6436 H.spc      1 <1>        0.000
     57 H           1.3601   -3.4414    1.4986 H.spc      1 <1>        0.000
     58 H           4.1867   -2.9624   -0.4157 H.spc      1 <1>        0.000
     59 H          -4.8899    2.1364    0.4373 H.spc      1 <1>        0.000
     60 H          -3.8160    2.3168    2.0147 H.spc      1 <1>        0.000
     61 H           0.5271   -4.2354   -1.5093 H.spc      1 <1>        0.000
     62 H           3.9037   -5.3024   -0.7260 H.spc      1 <1>        0.000
     63 H          -4.3172    0.2731    2.2186 H.spc      1 <1>        0.000
     64 H          -4.6236    0.0517    0.3808 H.spc      1 <1>        0.000
     65 H          -2.3344   -0.3485    0.0483 H.spc      1 <1>        0.000
     66 H          -2.2570   -0.9905    2.9898 H.spc      1 <1>        0.000
@<TRIPOS>BOND
     1   29   30 2  
     2   27   29 1  
     3   17   30 1  
     4   28   16 1  
     5   10   11 1  
     6    8   14 1  
     7    8   12 1  
     8    7   13 1  
     9    7   12 1  
    10    6   11 1  
    11    4    8 1  
    12    5   10 1  
    13    1    3 1  
    14    2    6 1  
    15    1    5 1  
    16    3    7 1  
    17    1    2 1  
    18    1    4 1  
    19   13    9 1  
    20   18   20 2  
    21   14   18 1  
    22    9   19 1  
    23   19   22 1  
    24   19   21 1  
    25   20   23 1  
    26   21   24 1  
    27   21   25 1  
    28   22   26 2  
    29   23   27 1  
    30   24   28 1  
    31   24   15 1  
    32   25   16 1  
    33   25   17 2  
    34   26   15 1  
    35    3   31 1  
    36    3   32 1  
    37    5   33 1  
    38    5   34 1  
    39    6   35 1  
    40    6   36 1  
    41    7   37 1  
    42    8   38 1  
    43    9   39 1  
    44    9   40 1  
    45   10   41 1  
    46   10   42 1  
    47   11   43 1  
    48   11   44 1  
    49   12   45 1  
    50   12   46 1  
    51   14   47 1  
    52   14   48 1  
    53   15   49 1  
    54   15   50 1  
    55   16   51 1  
    56   16   52 1  
    57   17   53 1  
    58   18   54 1  
    59   19   55 1  
    60   20   56 1  
    61   21   57 1  
    62   22   58 1  
    63   23   59 1  
    64   23   60 1  
    65   24   61 1  
    66   26   62 1  
    67   27   63 1  
    68   27   64 1  
    69   29   65 1  
    70   30   66 1  
# Name:          frag4-422-144/150395 -- energy: -13.665721
# Creation time: Sat Jun  5 12:53:35 2010


@<TRIPOS>MOLECULE
frag4-422-144/150395 -- energy: -13.665721
   66    70     1     1     1
SMALL
USER_CHARGES


@<TRIPOS>ATOM
      1 C1          2.2105    2.0076   -1.9062 C.3        1 <1>        0.000
      2 O1          1.1223    1.4002   -2.5410 O.3        1 <1>        0.000
      3 C2          2.8051    1.0859   -0.8604 C.3        1 <1>        0.000
      4 O2          1.8428    3.1222   -1.1680 O.3        1 <1>        0.000
      5 C3          3.1481    2.4758   -3.0095 C.3        1 <1>        0.000
      6 C4          0.3999    1.7729   -3.6538 C.3        1 <1>        0.000
      7 C5          1.7945    0.7227    0.2416 C.3        1 <1>        0.000
      8 C6          0.9680    3.2292   -0.1028 C.3        1 <1>        0.000
      9 C15         2.4250   -1.3004    1.3058 C.3        1 <1>        0.000
     10 C7          2.4166    3.2770   -4.0895 C.3        1 <1>        0.000
     11 C9          1.1869    2.5866   -4.6609 C.3        1 <1>        0.000
     12 C10         0.8885    1.9041    0.6803 C.3        1 <1>        0.000
     13 O3          2.3292    0.0021    1.3625 O.3        1 <1>        0.000
     14 C11        -0.2987    3.9394   -0.5989 C.3        1 <1>        0.000
     15 C30         2.0615   -5.1588   -0.7792 C.3        1 <1>        0.000
     16 C31        -1.2499   -3.3477   -0.7602 C.3        1 <1>        0.000
     17 C32        -0.9503   -1.6716    1.0961 C.2        1 <1>        0.000
     18 C16        -1.5994    3.5466   -0.0140 C.2        1 <1>        0.000
     19 C19         2.2197   -2.3366    0.2594 C.3        1 <1>        0.000
     20 C20        -2.4534    2.6279   -0.4880 C.2        1 <1>        0.000
     21 C22         0.9472   -3.1837    0.3243 C.3        1 <1>        0.000
     22 C23         3.4140   -3.2567    0.1907 C.2        1 <1>        0.000
     23 C24        -3.7506    2.1458    0.0478 C.3        1 <1>        0.000
     24 C26         0.9469   -4.1222   -0.8994 C.3        1 <1>        0.000
     25 C27        -0.4740   -2.6472    0.3155 C.2        1 <1>        0.000
     26 C28         3.3306   -4.5244   -0.2644 C.2        1 <1>        0.000
     27 C29        -3.9386    0.6368    0.0926 C.3        1 <1>        0.000
     28 O8         -0.3986   -4.3761   -1.1651 O.3        1 <1>        0.000
     29 C35        -2.7153   -0.2099    0.2357 C.2        1 <1>        0.000
     30 C37        -2.1962   -0.9697    1.2077 C.2        1 <1>        0.000
     31 H           3.6438    1.6018   -0.3930 H.spc      1 <1>        0.000
     32 H           3.1099    0.1644   -1.3563 H.spc      1 <1>        0.000
     33 H           3.9031    3.1217   -2.5613 H.spc      1 <1>        0.000
     34 H           3.5856    1.5948   -3.4790 H.spc      1 <1>        0.000
     35 H           0.0858    0.8573   -4.1550 H.spc      1 <1>        0.000
     36 H          -0.4236    2.3979   -3.3083 H.spc      1 <1>        0.000
     37 H           1.1481    0.0040   -0.2621 H.spc      1 <1>        0.000
     38 H           1.3040    3.8818    0.7030 H.spc      1 <1>        0.000
     39 H           1.5719   -1.5467    1.9380 H.spc      1 <1>        0.000
     40 H           3.5085   -1.3805    1.3935 H.spc      1 <1>        0.000
     41 H           2.0766    4.2028   -3.6254 H.spc      1 <1>        0.000
     42 H           3.1166    3.4163   -4.9133 H.spc      1 <1>        0.000
     43 H           1.5362    1.8949   -5.4275 H.spc      1 <1>        0.000
     44 H           0.5229    3.3691   -5.0281 H.spc      1 <1>        0.000
     45 H          -0.1313    1.5487    0.5325 H.spc      1 <1>        0.000
     46 H           1.2158    2.1520    1.6900 H.spc      1 <1>        0.000
     47 H          -0.3727    3.6868   -1.6566 H.spc      1 <1>        0.000
     48 H          -0.1660    4.9859   -0.3245 H.spc      1 <1>        0.000
     49 H           2.2551   -5.5824   -1.7647 H.spc      1 <1>        0.000
     50 H           1.7471   -5.9333   -0.0797 H.spc      1 <1>        0.000
     51 H          -2.2112   -3.7190   -0.4050 H.spc      1 <1>        0.000
     52 H          -1.5176   -2.6819   -1.5807 H.spc      1 <1>        0.000
     53 H          -0.2146   -1.3266    1.8226 H.spc      1 <1>        0.000
     54 H          -1.8956    4.0593    0.9011 H.spc      1 <1>        0.000
     55 H           2.0940   -1.7366   -0.6419 H.spc      1 <1>        0.000
     56 H          -2.1436    2.1574   -1.4211 H.spc      1 <1>        0.000
     57 H           1.0734   -3.5453    1.3448 H.spc      1 <1>        0.000
     58 H           4.3826   -2.8823    0.5219 H.spc      1 <1>        0.000
     59 H          -4.5189    2.5288   -0.6238 H.spc      1 <1>        0.000
     60 H          -3.8004    2.4899    1.0809 H.spc      1 <1>        0.000
     61 H           1.2815   -3.7621   -1.8722 H.spc      1 <1>        0.000
     62 H           4.2377   -5.1288   -0.2599 H.spc      1 <1>        0.000
     63 H          -4.5344    0.4428    0.9845 H.spc      1 <1>        0.000
     64 H          -4.3696    0.3671   -0.8716 H.spc      1 <1>        0.000
     65 H          -2.1005   -0.2083   -0.6644 H.spc      1 <1>        0.000
     66 H          -2.7537   -1.0605    2.1399 H.spc      1 <1>        0.000
@<TRIPOS>BOND
     1   29   30 2  
     2   27   29 1  
     3   17   30 1  
     4   28   16 1  
     5   10   11 1  
     6    8   14 1  
     7    8   12 1  
     8    7   13 1  
     9    7   12 1  
    10    6   11 1  
    11    4    8 1  
    12    5   10 1  
    13    1    3 1  
    14    2    6 1  
    15    1    5 1  
    16    3    7 1  
    17    1    2 1  
    18    1    4 1  
    19   13    9 1  
    20   18   20 2  
    21   14   18 1  
    22    9   19 1  
    23   19   22 1  
    24   19   21 1  
    25   20   23 1  
    26   21   24 1  
    27   21   25 1  
    28   22   26 2  
    29   23   27 1  
    30   24   28 1  
    31   24   15 1  
    32   25   16 1  
    33   25   17 2  
    34   26   15 1  
    35    3   31 1  
    36    3   32 1  
    37    5   33 1  
    38    5   34 1  
    39    6   35 1  
    40    6   36 1  
    41    7   37 1  
    42    8   38 1  
    43    9   39 1  
    44    9   40 1  
    45   10   41 1  
    46   10   42 1  
    47   11   43 1  
    48   11   44 1  
    49   12   45 1  
    50   12   46 1  
    51   14   47 1  
    52   14   48 1  
    53   15   49 1  
    54   15   50 1  
    55   16   51 1  
    56   16   52 1  
    57   17   53 1  
    58   18   54 1  
    59   19   55 1  
    60   20   56 1  
    61   21   57 1  
    62   22   58 1  
    63   23   59 1  
    64   23   60 1  
    65   24   61 1  
    66   26   62 1  
    67   27   63 1  
    68   27   64 1  
    69   29   65 1  
    70   30   66 1  
# Name:          frag4-422-144/150395 -- energy: -12.625566
# Creation time: Sat Jun  5 12:53:35 2010


@<TRIPOS>MOLECULE
frag4-422-144/150395 -- energy: -12.625566
   66    70     1     1     1
SMALL
USER_CHARGES


@<TRIPOS>ATOM
      1 C1          2.3186    2.1266   -2.3832 C.3        1 <1>        0.000
      2 O1          2.7799    1.9250   -3.6823 O.3        1 <1>        0.000
      3 C2          2.3656    0.8099   -1.6435 C.3        1 <1>        0.000
      4 O2          0.9840    2.5258   -2.3253 O.3        1 <1>        0.000
      5 C3          3.1304    3.3060   -1.8311 C.3        1 <1>        0.000
      6 C4          2.8710    2.8521   -4.6907 C.3        1 <1>        0.000
      7 C5          1.4927    0.5986   -0.4079 C.3        1 <1>        0.000
      8 C6          0.2495    2.8124   -1.1854 C.3        1 <1>        0.000
      9 C15         2.4491   -1.2344    0.7395 C.3        1 <1>        0.000
     10 C7          2.9923    4.5217   -2.7500 C.3        1 <1>        0.000
     11 C9          3.2522    4.2401   -4.2195 C.3        1 <1>        0.000
     12 C10         0.5181    1.7480   -0.1028 C.3        1 <1>        0.000
     13 O3          2.2222    0.0584    0.7021 O.3        1 <1>        0.000
     14 C11        -1.1751    3.2542   -1.5083 C.3        1 <1>        0.000
     15 C30         1.6855   -5.4158   -0.4927 C.3        1 <1>        0.000
     16 C31        -1.5277   -3.6111    0.2424 C.3        1 <1>        0.000
     17 C32        -0.7475   -1.6429    1.5891 C.2        1 <1>        0.000
     18 C16        -2.2291    2.4056   -0.9013 C.2        1 <1>        0.000
     19 C19         2.0345   -2.4344   -0.0509 C.3        1 <1>        0.000
     20 C20        -2.9325    2.6575    0.2096 C.2        1 <1>        0.000
     21 C22         0.8880   -3.2635    0.5324 C.3        1 <1>        0.000
     22 C23         3.1800   -3.3747   -0.3479 C.2        1 <1>        0.000
     23 C24        -3.9778    1.9456    1.0027 C.3        1 <1>        0.000
     24 C26         0.5442   -4.4141   -0.4342 C.3        1 <1>        0.000
     25 C27        -0.4860   -2.7361    0.8674 C.2        1 <1>        0.000
     26 C28         3.0138   -4.7032   -0.5333 C.2        1 <1>        0.000
     27 C29        -3.9959    0.4278    1.1886 C.3        1 <1>        0.000
     28 O8         -0.7968   -4.7116   -0.1963 O.3        1 <1>        0.000
     29 C35        -2.7223   -0.3219    1.0666 C.2        1 <1>        0.000
     30 C37        -1.9481   -0.9734    1.9446 C.2        1 <1>        0.000
     31 H           3.3876    0.7423   -1.2707 H.spc      1 <1>        0.000
     32 H           2.0003    0.0784   -2.3643 H.spc      1 <1>        0.000
     33 H           2.7551    3.5639   -0.8408 H.spc      1 <1>        0.000
     34 H           4.1807    3.0199   -1.7747 H.spc      1 <1>        0.000
     35 H           3.6541    2.5150   -5.3698 H.spc      1 <1>        0.000
     36 H           1.8859    2.9264   -5.1513 H.spc      1 <1>        0.000
     37 H           0.7943   -0.1981   -0.6640 H.spc      1 <1>        0.000
     38 H           0.5922    3.7205   -0.6895 H.spc      1 <1>        0.000
     39 H           1.8930   -1.4568    1.6502 H.spc      1 <1>        0.000
     40 H           3.4957   -1.2106    0.4359 H.spc      1 <1>        0.000
     41 H           1.9604    4.8636   -2.6704 H.spc      1 <1>        0.000
     42 H           3.7393    5.2479   -2.4294 H.spc      1 <1>        0.000
     43 H           4.3275    4.3361   -4.3699 H.spc      1 <1>        0.000
     44 H           2.6378    4.9409   -4.7847 H.spc      1 <1>        0.000
     45 H          -0.4448    1.2629    0.0572 H.spc      1 <1>        0.000
     46 H           0.9800    2.2954    0.7188 H.spc      1 <1>        0.000
     47 H          -1.2939    3.1890   -2.5898 H.spc      1 <1>        0.000
     48 H          -1.2991    4.2586   -1.1035 H.spc      1 <1>        0.000
     49 H           1.5803   -6.0195   -1.3941 H.spc      1 <1>        0.000
     50 H           1.6491   -6.0457    0.3961 H.spc      1 <1>        0.000
     51 H          -2.3210   -3.8835    0.9385 H.spc      1 <1>        0.000
     52 H          -2.0651   -3.1141   -0.5652 H.spc      1 <1>        0.000
     53 H           0.1473   -1.1653    1.9883 H.spc      1 <1>        0.000
     54 H          -2.4564    1.4727   -1.4172 H.spc      1 <1>        0.000
     55 H           1.6674   -1.9704   -0.9664 H.spc      1 <1>        0.000
     56 H          -2.6783    3.6245    0.6436 H.spc      1 <1>        0.000
     57 H           1.3601   -3.4414    1.4986 H.spc      1 <1>        0.000
     58 H           4.1867   -2.9624   -0.4157 H.spc      1 <1>        0.000
     59 H          -4.8899    2.1364    0.4373 H.spc      1 <1>        0.000
     60 H          -3.8160    2.3168    2.0147 H.spc      1 <1>        0.000
     61 H           0.5271   -4.2354   -1.5093 H.spc      1 <1>        0.000
     62 H           3.9037   -5.3024   -0.7260 H.spc      1 <1>        0.000
     63 H          -4.3172    0.2731    2.2186 H.spc      1 <1>        0.000
     64 H          -4.6236    0.0517    0.3808 H.spc      1 <1>        0.000
     65 H          -2.3344   -0.3485    0.0483 H.spc      1 <1>        0.000
     66 H          -2.2570   -0.9905    2.9898 H.spc      1 <1>        0.000
@<TRIPOS>BOND
     1   29   30 2  
     2   27   29 1  
     3   17   30 1  
     4   28   16 1  
     5   10   11 1  
     6    8   14 1  
     7    8   12 1  
     8    7   13 1  
     9    7   12 1  
    10    6   11 1  
    11    4    8 1  
    12    5   10 1  
    13    1    3 1  
    14    2    6 1  
    15    1    5 1  
    16    3    7 1  
    17    1    2 1  
    18    1    4 1  
    19   13    9 1  
    20   18   20 2  
    21   14   18 1  
    22    9   19 1  
    23   19   22 1  
    24   19   21 1  
    25   20   23 1  
    26   21   24 1  
    27   21   25 1  
    28   22   26 2  
    29   23   27 1  
    30   24   28 1  
    31   24   15 1  
    32   25   16 1  
    33   25   17 2  
    34   26   15 1  
    35    3   31 1  
    36    3   32 1  
    37    5   33 1  
    38    5   34 1  
    39    6   35 1  
    40    6   36 1  
    41    7   37 1  
    42    8   38 1  
    43    9   39 1  
    44    9   40 1  
    45   10   41 1  
    46   10   42 1  
    47   11   43 1  
    48   11   44 1  
    49   12   45 1  
    50   12   46 1  
    51   14   47 1  
    52   14   48 1  
    53   15   49 1  
    54   15   50 1  
    55   16   51 1  
    56   16   52 1  
    57   17   53 1  
    58   18   54 1  
    59   19   55 1  
    60   20   56 1  
    61   21   57 1  
    62   22   58 1  
    63   23   59 1  
    64   23   60 1  
    65   24   61 1  
    66   26   62 1  
    67   27   63 1  
    68   27   64 1  
    69   29   65 1  
    70   30   66 1  
