#      Rotatable Fragment
#      Build by yxyuan
#
# Name:          frag4-411-174/150395
# Creation time: Sat Jun  5 12:53:34 2010


@<TRIPOS>MOLECULE
frag4-411-174/150395
   16    17     1     1     1
SMALL
USER_CHARGES


@<TRIPOS>ATOM
      1 C1         -0.0167    0.8199   -0.1018 C.ar       1 <1>        0.000
      2 N1         -1.3261    1.3606   -0.1787 N.ar       1 <1>        0.000
      3 C2          0.1358   -0.5907    0.0808 C.ar       1 <1>        0.000
      4 N2          1.1090    1.5552   -0.2020 N.ar       1 <1>        0.000
      5 C4         -2.3992    0.6164   -0.0941 C.ar       1 <1>        0.000
      6 C5         -1.0913   -1.3653    0.1878 C.ar       1 <1>        0.000
      7 C6          1.4687   -1.0986    0.1391 C.ar       1 <1>        0.000
      8 C7          2.3849    1.1354   -0.1499 C.ar       1 <1>        0.000
      9 C10        -2.2863   -0.8339    0.1184 C.ar       1 <1>        0.000
     10 C11         2.5820   -0.2264    0.0251 C.ar       1 <1>        0.000
     11 H          -3.3840    1.0752   -0.1818 H.spc      1 <1>        0.000
     12 H          -1.0119   -2.4427    0.3331 H.spc      1 <1>        0.000
     13 H           1.6329   -2.1679    0.2726 H.spc      1 <1>        0.000
     14 H           3.2209    1.8289   -0.2404 H.spc      1 <1>        0.000
     15 H          -3.1778   -1.4535    0.2161 H.spc      1 <1>        0.000
     16 H           3.5943   -0.6274    0.0752 H.spc      1 <1>        0.000
@<TRIPOS>BOND
     1    6    9 ar 
     2    8   10 ar 
     3    7   10 ar 
     4    1    3 ar 
     5    1    2 ar 
     6    1    4 ar 
     7    2    5 ar 
     8    3    6 ar 
     9    3    7 ar 
    10    4    8 ar 
    11    5    9 ar 
    12    5   11 1  
    13    6   12 1  
    14    7   13 1  
    15    8   14 1  
    16    9   15 1  
    17   10   16 1  
# Name:          frag4-411-174/150395 -- energy: -0.165789
# Creation time: Sat Jun  5 12:53:34 2010


@<TRIPOS>MOLECULE
frag4-411-174/150395 -- energy: -0.165789
   16    17     1     1     1
SMALL
USER_CHARGES


@<TRIPOS>ATOM
      1 C1         -0.0167    0.8199   -0.1018 C.ar       1 <1>        0.000
      2 N1         -1.3261    1.3606   -0.1787 N.ar       1 <1>        0.000
      3 C2          0.1358   -0.5907    0.0808 C.ar       1 <1>        0.000
      4 N2          1.1090    1.5552   -0.2020 N.ar       1 <1>        0.000
      5 C4         -2.3992    0.6164   -0.0941 C.ar       1 <1>        0.000
      6 C5         -1.0913   -1.3653    0.1878 C.ar       1 <1>        0.000
      7 C6          1.4687   -1.0986    0.1391 C.ar       1 <1>        0.000
      8 C7          2.3849    1.1354   -0.1499 C.ar       1 <1>        0.000
      9 C10        -2.2863   -0.8339    0.1184 C.ar       1 <1>        0.000
     10 C11         2.5820   -0.2264    0.0251 C.ar       1 <1>        0.000
     11 H          -3.3840    1.0752   -0.1818 H.spc      1 <1>        0.000
     12 H          -1.0119   -2.4427    0.3331 H.spc      1 <1>        0.000
     13 H           1.6329   -2.1679    0.2726 H.spc      1 <1>        0.000
     14 H           3.2209    1.8289   -0.2404 H.spc      1 <1>        0.000
     15 H          -3.1778   -1.4535    0.2161 H.spc      1 <1>        0.000
     16 H           3.5943   -0.6274    0.0752 H.spc      1 <1>        0.000
@<TRIPOS>BOND
     1    6    9 ar 
     2    8   10 ar 
     3    7   10 ar 
     4    1    3 ar 
     5    1    2 ar 
     6    1    4 ar 
     7    2    5 ar 
     8    3    6 ar 
     9    3    7 ar 
    10    4    8 ar 
    11    5    9 ar 
    12    5   11 1  
    13    6   12 1  
    14    7   13 1  
    15    8   14 1  
    16    9   15 1  
    17   10   16 1  
