#      Rotatable Fragment
#      Build by yxyuan
#
# Name:          frag4-476-33/48856
# Creation time: Sat Jun  5 12:52:49 2010


@<TRIPOS>MOLECULE
frag4-476-33/48856
   14    14     1     1     1
SMALL
USER_CHARGES


@<TRIPOS>ATOM
      1 N1         -0.5738   -1.2516    0.0277 N.3        1 <1>        0.000
      2 C1         -1.2009   -0.0962   -0.5377 C.3        1 <1>        0.000
      3 N2         -0.5261    1.1695   -0.3953 N.pl3      1 <1>        0.000
      4 C2          0.8161    1.1804   -0.1809 C.2        1 <1>        0.000
      5 C3          1.5430    0.1018    0.2135 C.2        1 <1>        0.000
      6 C4          0.7868   -1.1579    0.3761 C.3        1 <1>        0.000
      7 H          -0.6197   -1.9676   -0.6973 H.spc      1 <1>        0.000
      8 H          -2.1444    0.0145   -0.0033 H.spc      1 <1>        0.000
      9 H          -1.2453   -0.2840   -1.6105 H.spc      1 <1>        0.000
     10 H          -1.0480    2.0439   -0.4545 H.spc      1 <1>        0.000
     11 H           1.3466    2.1199   -0.3361 H.spc      1 <1>        0.000
     12 H           2.6156    0.1619    0.3982 H.spc      1 <1>        0.000
     13 H           1.2786   -1.8463   -0.3112 H.spc      1 <1>        0.000
     14 H           0.7910   -1.3258    1.4531 H.spc      1 <1>        0.000
@<TRIPOS>BOND
     1    1    2 1  
     2    1    6 1  
     3    2    3 1  
     4    3    4 1  
     5    4    5 2  
     6    5    6 1  
     7    1    7 1  
     8    2    8 1  
     9    2    9 1  
    10    3   10 1  
    11    4   11 1  
    12    5   12 1  
    13    6   13 1  
    14    6   14 1  
# Name:          frag4-476-33/48856 -- energy: -0.430094
# Creation time: Sat Jun  5 12:52:49 2010


@<TRIPOS>MOLECULE
frag4-476-33/48856 -- energy: -0.430094
   14    14     1     1     1
SMALL
USER_CHARGES


@<TRIPOS>ATOM
      1 N1         -0.5738   -1.2516    0.0277 N.3        1 <1>        0.000
      2 C1         -1.2009   -0.0962   -0.5377 C.3        1 <1>        0.000
      3 N2         -0.5261    1.1695   -0.3953 N.pl3      1 <1>        0.000
      4 C2          0.8161    1.1804   -0.1809 C.2        1 <1>        0.000
      5 C3          1.5430    0.1018    0.2135 C.2        1 <1>        0.000
      6 C4          0.7868   -1.1579    0.3761 C.3        1 <1>        0.000
      7 H          -0.6197   -1.9676   -0.6973 H.spc      1 <1>        0.000
      8 H          -2.1444    0.0145   -0.0033 H.spc      1 <1>        0.000
      9 H          -1.2453   -0.2840   -1.6105 H.spc      1 <1>        0.000
     10 H          -1.0480    2.0439   -0.4545 H.spc      1 <1>        0.000
     11 H           1.3466    2.1199   -0.3361 H.spc      1 <1>        0.000
     12 H           2.6156    0.1619    0.3982 H.spc      1 <1>        0.000
     13 H           1.2786   -1.8463   -0.3112 H.spc      1 <1>        0.000
     14 H           0.7910   -1.3258    1.4531 H.spc      1 <1>        0.000
@<TRIPOS>BOND
     1    1    2 1  
     2    1    6 1  
     3    2    3 1  
     4    3    4 1  
     5    4    5 2  
     6    5    6 1  
     7    1    7 1  
     8    2    8 1  
     9    2    9 1  
    10    3   10 1  
    11    4   11 1  
    12    5   12 1  
    13    6   13 1  
    14    6   14 1  
