#      Rotatable Fragment
#      Build by yxyuan
#
# Name:          frag5-611-33/41815
# Creation time: Sat Jun  5 12:52:58 2010


@<TRIPOS>MOLECULE
frag5-611-33/41815
   12    12     1     1     1
SMALL
USER_CHARGES


@<TRIPOS>ATOM
      1 C9         -0.0403    1.0234    0.0005 C.ar       1 <1>        0.000
      2 C10        -0.6772   -0.2087    0.0035 C.ar       1 <1>        0.000
      3 N2          0.0766   -1.3318    0.0080 N.ar       1 <1>        0.000
      4 C11         1.4185   -1.2767    0.0000 C.ar       1 <1>        0.000
      5 N3          2.0333   -0.0746   -0.0041 N.ar       1 <1>        0.000
      6 C12         1.3354    1.0744   -0.0034 C.ar       1 <1>        0.000
      7 N4         -2.1171   -0.3089    0.0016 N.pl3      1 <1>        0.000
      8 H          -0.6243    1.9438    0.0012 H.spc      1 <1>        0.000
      9 H           2.0063   -2.1946   -0.0032 H.spc      1 <1>        0.000
     10 H           1.8522    2.0341   -0.0059 H.spc      1 <1>        0.000
     11 H          -2.6872    0.5369   -0.0020 H.spc      1 <1>        0.000
     12 H          -2.5646   -1.2255    0.0039 H.spc      1 <1>        0.000
@<TRIPOS>BOND
     1    1    2 ar 
     2    1    6 ar 
     3    2    3 ar 
     4    2    7 1  
     5    3    4 ar 
     6    4    5 ar 
     7    5    6 ar 
     8    1    8 1  
     9    4    9 1  
    10    6   10 1  
    11    7   11 1  
    12    7   12 1  
# Name:          frag5-611-33/41815 -- energy: 0.083383
# Creation time: Sat Jun  5 12:52:58 2010


@<TRIPOS>MOLECULE
frag5-611-33/41815 -- energy: 0.083383
   12    12     1     1     1
SMALL
USER_CHARGES


@<TRIPOS>ATOM
      1 C9         -0.0403    1.0234    0.0005 C.ar       1 <1>        0.000
      2 C10        -0.6772   -0.2087    0.0035 C.ar       1 <1>        0.000
      3 N2          0.0766   -1.3318    0.0080 N.ar       1 <1>        0.000
      4 C11         1.4185   -1.2767    0.0000 C.ar       1 <1>        0.000
      5 N3          2.0333   -0.0746   -0.0041 N.ar       1 <1>        0.000
      6 C12         1.3354    1.0744   -0.0034 C.ar       1 <1>        0.000
      7 N4         -2.1171   -0.3089    0.0016 N.pl3      1 <1>        0.000
      8 H          -0.6243    1.9438    0.0012 H.spc      1 <1>        0.000
      9 H           2.0063   -2.1946   -0.0032 H.spc      1 <1>        0.000
     10 H           1.8522    2.0341   -0.0059 H.spc      1 <1>        0.000
     11 H          -2.6872    0.5369   -0.0020 H.spc      1 <1>        0.000
     12 H          -2.5646   -1.2255    0.0039 H.spc      1 <1>        0.000
@<TRIPOS>BOND
     1    1    2 ar 
     2    1    6 ar 
     3    2    3 ar 
     4    2    7 1  
     5    3    4 ar 
     6    4    5 ar 
     7    5    6 ar 
     8    1    8 1  
     9    4    9 1  
    10    6   10 1  
    11    7   11 1  
    12    7   12 1  
