#      Rotatable Fragment
#      Build by yxyuan
#
# Name:          frag4-372-279/150395
# Creation time: Sat Jun  5 12:53:32 2010


@<TRIPOS>MOLECULE
frag4-372-279/150395
   11    11     1     1     1
SMALL
USER_CHARGES


@<TRIPOS>ATOM
      1 C1         -4.4328    1.3249    1.1306 C.3        1 <1>        0.000
      2 O1         -3.4964    0.3989    0.6911 O.3        1 <1>        0.000
      3 O2         -3.8577    2.5962    0.9684 O.3        1 <1>        0.000
      4 C6         -2.2477    1.0063    0.9656 C.3        1 <1>        0.000
      5 C7         -2.5219    2.4615    0.5988 C.3        1 <1>        0.000
      6 H          -4.6908    1.1478    2.1747 H.spc      1 <1>        0.000
      7 H          -5.3562    1.2425    0.5574 H.spc      1 <1>        0.000
      8 H          -1.4200    0.5672    0.4087 H.spc      1 <1>        0.000
      9 H          -1.9179    0.8734    1.9960 H.spc      1 <1>        0.000
     10 H          -1.8587    3.1686    1.0970 H.spc      1 <1>        0.000
     11 H          -2.3354    2.6887   -0.4508 H.spc      1 <1>        0.000
@<TRIPOS>BOND
     1    1    2 1  
     2    1    3 1  
     3    2    4 1  
     4    3    5 1  
     5    4    5 1  
     6    1    6 1  
     7    1    7 1  
     8    4    8 1  
     9    4    9 1  
    10    5   10 1  
    11    5   11 1  
# Name:          frag4-372-279/150395 -- energy: -0.468984
# Creation time: Sat Jun  5 12:53:32 2010


@<TRIPOS>MOLECULE
frag4-372-279/150395 -- energy: -0.468984
   11    11     1     1     1
SMALL
USER_CHARGES


@<TRIPOS>ATOM
      1 C1         -4.4328    1.3249    1.1306 C.3        1 <1>        0.000
      2 O1         -3.4964    0.3989    0.6911 O.3        1 <1>        0.000
      3 O2         -3.8577    2.5962    0.9684 O.3        1 <1>        0.000
      4 C6         -2.2477    1.0063    0.9656 C.3        1 <1>        0.000
      5 C7         -2.5219    2.4615    0.5988 C.3        1 <1>        0.000
      6 H          -4.6908    1.1478    2.1747 H.spc      1 <1>        0.000
      7 H          -5.3562    1.2425    0.5574 H.spc      1 <1>        0.000
      8 H          -1.4200    0.5672    0.4087 H.spc      1 <1>        0.000
      9 H          -1.9179    0.8734    1.9960 H.spc      1 <1>        0.000
     10 H          -1.8587    3.1686    1.0970 H.spc      1 <1>        0.000
     11 H          -2.3354    2.6887   -0.4508 H.spc      1 <1>        0.000
@<TRIPOS>BOND
     1    1    2 1  
     2    1    3 1  
     3    2    4 1  
     4    3    5 1  
     5    4    5 1  
     6    1    6 1  
     7    1    7 1  
     8    4    8 1  
     9    4    9 1  
    10    5   10 1  
    11    5   11 1  
