#      Rotatable Fragment
#      Build by yxyuan
#
# Name:          frag4-441-43/48856
# Creation time: Sat Jun  5 12:52:47 2010


@<TRIPOS>MOLECULE
frag4-441-43/48856
   18    19     1     1     1
SMALL
USER_CHARGES


@<TRIPOS>ATOM
      1 N1          0.4297   -0.3596    1.7068 N.pl3      1 <1>        0.000
      2 C1          0.7897    0.9319    1.5637 C.ar       1 <1>        0.000
      3 C2          1.1373    1.4955    2.8296 C.ar       1 <1>        0.000
      4 C3          1.5359    2.8117    2.9143 C.ar       1 <1>        0.000
      5 C4          1.5964    3.5805    1.7572 C.ar       1 <1>        0.000
      6 C5          1.2569    3.0289    0.5133 C.ar       1 <1>        0.000
      7 C6          0.8555    1.7093    0.4218 C.ar       1 <1>        0.000
      8 C7          0.9614    0.4025    3.8393 C.3        1 <1>        0.000
      9 C8          0.4924   -0.7741    2.9860 C.3        1 <1>        0.000
     10 H           0.1417   -0.9565    0.9315 H.spc      1 <1>        0.000
     11 H           1.8011    3.2458    3.8783 H.spc      1 <1>        0.000
     12 H           1.9109    4.6224    1.8176 H.spc      1 <1>        0.000
     13 H           1.3098    3.6435   -0.3854 H.spc      1 <1>        0.000
     14 H           0.5920    1.2833   -0.5463 H.spc      1 <1>        0.000
     15 H           1.8743    0.1867    4.3944 H.spc      1 <1>        0.000
     16 H           0.2552    0.6629    4.6277 H.spc      1 <1>        0.000
     17 H          -0.4873   -1.1155    3.3203 H.spc      1 <1>        0.000
     18 H           1.1881   -1.6081    3.0785 H.spc      1 <1>        0.000
@<TRIPOS>BOND
     1    8    9 1  
     2    6    7 ar 
     3    1    2 1  
     4    1    9 1  
     5    2    3 ar 
     6    2    7 ar 
     7    3    4 ar 
     8    3    8 1  
     9    4    5 ar 
    10    5    6 ar 
    11    1   10 1  
    12    4   11 1  
    13    5   12 1  
    14    6   13 1  
    15    7   14 1  
    16    8   15 1  
    17    8   16 1  
    18    9   17 1  
    19    9   18 1  
# Name:          frag4-441-43/48856 -- energy: -0.882360
# Creation time: Sat Jun  5 12:52:47 2010


@<TRIPOS>MOLECULE
frag4-441-43/48856 -- energy: -0.882360
   18    19     1     1     1
SMALL
USER_CHARGES


@<TRIPOS>ATOM
      1 N1          0.4297   -0.3596    1.7068 N.pl3      1 <1>        0.000
      2 C1          0.7897    0.9319    1.5637 C.ar       1 <1>        0.000
      3 C2          1.1373    1.4955    2.8296 C.ar       1 <1>        0.000
      4 C3          1.5359    2.8117    2.9143 C.ar       1 <1>        0.000
      5 C4          1.5964    3.5805    1.7572 C.ar       1 <1>        0.000
      6 C5          1.2569    3.0289    0.5133 C.ar       1 <1>        0.000
      7 C6          0.8555    1.7093    0.4218 C.ar       1 <1>        0.000
      8 C7          0.9614    0.4025    3.8393 C.3        1 <1>        0.000
      9 C8          0.4924   -0.7741    2.9860 C.3        1 <1>        0.000
     10 H           0.1417   -0.9565    0.9315 H.spc      1 <1>        0.000
     11 H           1.8011    3.2458    3.8783 H.spc      1 <1>        0.000
     12 H           1.9109    4.6224    1.8176 H.spc      1 <1>        0.000
     13 H           1.3098    3.6435   -0.3854 H.spc      1 <1>        0.000
     14 H           0.5920    1.2833   -0.5463 H.spc      1 <1>        0.000
     15 H           1.8743    0.1867    4.3944 H.spc      1 <1>        0.000
     16 H           0.2552    0.6629    4.6277 H.spc      1 <1>        0.000
     17 H          -0.4873   -1.1155    3.3203 H.spc      1 <1>        0.000
     18 H           1.1881   -1.6081    3.0785 H.spc      1 <1>        0.000
@<TRIPOS>BOND
     1    8    9 1  
     2    6    7 ar 
     3    1    2 1  
     4    1    9 1  
     5    2    3 ar 
     6    2    7 ar 
     7    3    4 ar 
     8    3    8 1  
     9    4    5 ar 
    10    5    6 ar 
    11    1   10 1  
    12    4   11 1  
    13    5   12 1  
    14    6   13 1  
    15    7   14 1  
    16    8   15 1  
    17    8   16 1  
    18    9   17 1  
    19    9   18 1  
