#      Rotatable Fragment
#      Build by yxyuan
#
# Name:          frag2-021-1612/92655
# Creation time: Sat Jun  5 12:51:56 2010


@<TRIPOS>MOLECULE
frag2-021-1612/92655
   11    11     1     1     1
SMALL
USER_CHARGES


@<TRIPOS>ATOM
      1 N1         -1.5547   -0.2832   -0.2231 N.ar       1 <1>        0.000
      2 C1         -0.6681   -1.3141   -0.2113 C.ar       1 <1>        0.000
      3 C2          0.6837   -1.0889   -0.0194 C.ar       1 <1>        0.000
      4 C3          1.1370    0.2078    0.1632 C.ar       1 <1>        0.000
      5 C4          0.2333    1.2545    0.1507 C.ar       1 <1>        0.000
      6 C5         -1.1091    0.9898   -0.0437 C.ar       1 <1>        0.000
      7 H          -1.0275   -2.3330   -0.3551 H.spc      1 <1>        0.000
      8 H           1.3850   -1.9233   -0.0119 H.spc      1 <1>        0.000
      9 H           2.1988    0.4015    0.3157 H.spc      1 <1>        0.000
     10 H           0.5767    2.2792    0.2929 H.spc      1 <1>        0.000
     11 H          -1.8223    1.8140   -0.0535 H.spc      1 <1>        0.000
@<TRIPOS>BOND
     1    1    2 ar 
     2    1    6 ar 
     3    2    3 ar 
     4    3    4 ar 
     5    4    5 ar 
     6    5    6 ar 
     7    2    7 1  
     8    3    8 1  
     9    4    9 1  
    10    5   10 1  
    11    6   11 1  
# Name:          frag2-021-1612/92655 -- energy: 0.300077
# Creation time: Sat Jun  5 12:51:56 2010


@<TRIPOS>MOLECULE
frag2-021-1612/92655 -- energy: 0.300077
   11    11     1     1     1
SMALL
USER_CHARGES


@<TRIPOS>ATOM
      1 N1         -1.5547   -0.2832   -0.2231 N.ar       1 <1>        0.000
      2 C1         -0.6681   -1.3141   -0.2113 C.ar       1 <1>        0.000
      3 C2          0.6837   -1.0889   -0.0194 C.ar       1 <1>        0.000
      4 C3          1.1370    0.2078    0.1632 C.ar       1 <1>        0.000
      5 C4          0.2333    1.2545    0.1507 C.ar       1 <1>        0.000
      6 C5         -1.1091    0.9898   -0.0437 C.ar       1 <1>        0.000
      7 H          -1.0275   -2.3330   -0.3551 H.spc      1 <1>        0.000
      8 H           1.3850   -1.9233   -0.0119 H.spc      1 <1>        0.000
      9 H           2.1988    0.4015    0.3157 H.spc      1 <1>        0.000
     10 H           0.5767    2.2792    0.2929 H.spc      1 <1>        0.000
     11 H          -1.8223    1.8140   -0.0535 H.spc      1 <1>        0.000
@<TRIPOS>BOND
     1    1    2 ar 
     2    1    6 ar 
     3    2    3 ar 
     4    3    4 ar 
     5    4    5 ar 
     6    5    6 ar 
     7    2    7 1  
     8    3    8 1  
     9    4    9 1  
    10    5   10 1  
    11    6   11 1  
