#      Rotatable Fragment
#      Build by yxyuan
#
# Name:          frag5-675-63/138278
# Creation time: Sat Jun  5 12:51:52 2010


@<TRIPOS>MOLECULE
frag5-675-63/138278
   13    13     1     1     1
SMALL
USER_CHARGES


@<TRIPOS>ATOM
      1 C2          0.9469    0.9512   -0.0372 C.2        1 <1>        0.000
      2 N2          1.9380    0.0856   -0.0331 N.am       1 <1>        0.000
      3 O1         -0.2101    0.7161   -0.3201 O.2        1 <1>        0.000
      4 C7          3.3395    0.2043   -0.1547 C.3        1 <1>        0.000
      5 C8          1.8753   -1.3353    0.0311 C.3        1 <1>        0.000
      6 C10         3.3873   -1.3138   -0.0858 C.3        1 <1>        0.000
      7 H           1.1878    1.9775    0.2399 H.spc      1 <1>        0.000
      8 H           3.9250    0.8301    0.5189 H.spc      1 <1>        0.000
      9 H           3.8018    0.7585   -0.9715 H.spc      1 <1>        0.000
     10 H           1.2509   -1.9180   -0.6461 H.spc      1 <1>        0.000
     11 H           1.3650   -1.8559    0.8415 H.spc      1 <1>        0.000
     12 H           4.0062   -1.8138    0.6592 H.spc      1 <1>        0.000
     13 H           3.8893   -1.8867   -0.8655 H.spc      1 <1>        0.000
@<TRIPOS>BOND
     1    1    2 am 
     2    1    3 2  
     3    2    4 1  
     4    2    5 1  
     5    4    6 1  
     6    5    6 1  
     7    1    7 1  
     8    4    8 1  
     9    4    9 1  
    10    5   10 1  
    11    5   11 1  
    12    6   12 1  
    13    6   13 1  
# Name:          frag5-675-63/138278 -- energy: -0.876538
# Creation time: Sat Jun  5 12:51:52 2010


@<TRIPOS>MOLECULE
frag5-675-63/138278 -- energy: -0.876538
   13    13     1     1     1
SMALL
USER_CHARGES


@<TRIPOS>ATOM
      1 C2          0.9469    0.9512   -0.0372 C.2        1 <1>        0.000
      2 N2          1.9380    0.0856   -0.0331 N.am       1 <1>        0.000
      3 O1         -0.2101    0.7161   -0.3201 O.2        1 <1>        0.000
      4 C7          3.3395    0.2043   -0.1547 C.3        1 <1>        0.000
      5 C8          1.8753   -1.3353    0.0311 C.3        1 <1>        0.000
      6 C10         3.3873   -1.3138   -0.0858 C.3        1 <1>        0.000
      7 H           1.1878    1.9775    0.2399 H.spc      1 <1>        0.000
      8 H           3.9250    0.8301    0.5189 H.spc      1 <1>        0.000
      9 H           3.8018    0.7585   -0.9715 H.spc      1 <1>        0.000
     10 H           1.2509   -1.9180   -0.6461 H.spc      1 <1>        0.000
     11 H           1.3650   -1.8559    0.8415 H.spc      1 <1>        0.000
     12 H           4.0062   -1.8138    0.6592 H.spc      1 <1>        0.000
     13 H           3.8893   -1.8867   -0.8655 H.spc      1 <1>        0.000
@<TRIPOS>BOND
     1    1    2 am 
     2    1    3 2  
     3    2    4 1  
     4    2    5 1  
     5    4    6 1  
     6    5    6 1  
     7    1    7 1  
     8    4    8 1  
     9    4    9 1  
    10    5   10 1  
    11    5   11 1  
    12    6   12 1  
    13    6   13 1  
