#      Rotatable Fragment
#      Build by yxyuan
#
# Name:          frag5-637-83/138278
# Creation time: Sat Jun  5 12:53:49 2010


@<TRIPOS>MOLECULE
frag5-637-83/138278
   17    17     1     1     1
SMALL
USER_CHARGES


@<TRIPOS>ATOM
      1 C1          1.9018    0.4180   -0.2207 C.ar       1 <1>        0.000
      2 C2          3.0747   -0.3221    0.0208 C.ar       1 <1>        0.000
      3 N1          0.6699   -0.2667   -0.3005 N.am       1 <1>        0.000
      4 C3          1.9728    1.8045   -0.3967 C.ar       1 <1>        0.000
      5 C4          4.2922    0.3706    0.1549 C.ar       1 <1>        0.000
      6 O1          2.9973   -1.6926    0.1245 O.3        1 <1>        0.000
      7 C5         -0.5245    0.3417   -0.4729 C.2        1 <1>        0.000
      8 C6          3.1864    2.4747   -0.2473 C.ar       1 <1>        0.000
      9 C7          4.3486    1.7559    0.0385 C.ar       1 <1>        0.000
     10 O2         -1.5099   -0.1494   -0.9914 O.2        1 <1>        0.000
     11 H           0.6820   -1.2837   -0.2233 H.spc      1 <1>        0.000
     12 H           1.0732    2.3644   -0.6523 H.spc      1 <1>        0.000
     13 H           5.2070   -0.1878    0.3534 H.spc      1 <1>        0.000
     14 H           3.8731   -2.0500    0.2884 H.spc      1 <1>        0.000
     15 H          -0.6135    1.3672   -0.1144 H.spc      1 <1>        0.000
     16 H           3.2276    3.5587   -0.3535 H.spc      1 <1>        0.000
     17 H           5.2964    2.2779    0.1699 H.spc      1 <1>        0.000
@<TRIPOS>BOND
     1    8    9 ar 
     2    7   10 2  
     3    1    3 1  
     4    1    2 ar 
     5    1    4 ar 
     6    2    5 ar 
     7    2    6 1  
     8    3    7 am 
     9    4    8 ar 
    10    5    9 ar 
    11    3   11 1  
    12    4   12 1  
    13    5   13 1  
    14    6   14 1  
    15    7   15 1  
    16    8   16 1  
    17    9   17 1  
# Name:          frag5-637-83/138278
# Creation time: Sat Jun  5 12:53:49 2010


@<TRIPOS>MOLECULE
frag5-637-83/138278
   17    17     1     1     1
SMALL
USER_CHARGES


@<TRIPOS>ATOM
      1 C1          1.8667    0.2230   -0.3611 C.ar       1 <1>        0.000
      2 C2          3.0806   -0.3607    0.0490 C.ar       1 <1>        0.000
      3 N1          0.7410   -0.6164   -0.5553 N.am       1 <1>        0.000
      4 C3          1.7948    1.6020   -0.5889 C.ar       1 <1>        0.000
      5 C4          4.1813    0.4819    0.2938 C.ar       1 <1>        0.000
      6 O1          3.1535   -1.7248    0.2057 O.3        1 <1>        0.000
      7 C5         -0.5190   -0.1473   -0.6929 C.2        1 <1>        0.000
      8 C6          2.8921    2.4204   -0.3295 C.ar       1 <1>        0.000
      9 C7          4.0876    1.8591    0.1222 C.ar       1 <1>        0.000
     10 O2         -0.8693    0.9977   -0.4336 O.2        1 <1>        0.000
     11 H           0.8894   -1.6248   -0.5931 H.spc      1 <1>        0.000
     12 H           0.8729    2.0393   -0.9723 H.spc      1 <1>        0.000
     13 H           5.1247    0.0471    0.6240 H.spc      1 <1>        0.000
     14 H           4.0391   -1.9666    0.4866 H.spc      1 <1>        0.000
     15 H          -1.2782   -0.8373   -1.0611 H.spc      1 <1>        0.000
     16 H           2.8171    3.4975   -0.4791 H.spc      1 <1>        0.000
     17 H           4.9441    2.4973    0.3395 H.spc      1 <1>        0.000
@<TRIPOS>BOND
     1    8    9 ar 
     2    7   10 2  
     3    1    3 1  
     4    1    2 ar 
     5    1    4 ar 
     6    2    5 ar 
     7    2    6 1  
     8    3    7 am 
     9    4    8 ar 
    10    5    9 ar 
    11    3   11 1  
    12    4   12 1  
    13    5   13 1  
    14    6   14 1  
    15    7   15 1  
    16    8   16 1  
    17    9   17 1  
# Name:          frag5-637-83/138278
# Creation time: Sat Jun  5 12:53:49 2010


@<TRIPOS>MOLECULE
frag5-637-83/138278
   17    17     1     1     1
SMALL
USER_CHARGES


@<TRIPOS>ATOM
      1 C1          1.8565    0.8555   -0.4915 C.ar       1 <1>        0.000
      2 C2          2.7338   -0.1587   -0.0607 C.ar       1 <1>        0.000
      3 N1          0.5300    0.4987   -0.8293 N.am       1 <1>        0.000
      4 C3          2.3095    2.1727   -0.5904 C.ar       1 <1>        0.000
      5 C4          4.0365    0.1912    0.3315 C.ar       1 <1>        0.000
      6 O1          2.2907   -1.4684   -0.0325 O.3        1 <1>        0.000
      7 C5         -0.1890   -0.4375   -0.1654 C.2        1 <1>        0.000
      8 C6          3.6026    2.5082   -0.1837 C.ar       1 <1>        0.000
      9 C7          4.4651    1.5157    0.2864 C.ar       1 <1>        0.000
     10 O2         -1.2265   -0.9426   -0.5550 O.2        1 <1>        0.000
     11 H           0.0901    0.9735   -1.6176 H.spc      1 <1>        0.000
     12 H           1.6495    2.9439   -0.9876 H.spc      1 <1>        0.000
     13 H           4.7210   -0.5841    0.6757 H.spc      1 <1>        0.000
     14 H           2.9974   -2.0374    0.2811 H.spc      1 <1>        0.000
     15 H           0.1937   -0.7672    0.8005 H.spc      1 <1>        0.000
     16 H           3.9384    3.5440   -0.2332 H.spc      1 <1>        0.000
     17 H           5.4705    1.7766    0.6170 H.spc      1 <1>        0.000
@<TRIPOS>BOND
     1    8    9 ar 
     2    7   10 2  
     3    1    3 1  
     4    1    2 ar 
     5    1    4 ar 
     6    2    5 ar 
     7    2    6 1  
     8    3    7 am 
     9    4    8 ar 
    10    5    9 ar 
    11    3   11 1  
    12    4   12 1  
    13    5   13 1  
    14    6   14 1  
    15    7   15 1  
    16    8   16 1  
    17    9   17 1  
# Name:          frag5-637-83/138278 -- energy: -0.467859
# Creation time: Sat Jun  5 12:53:49 2010


@<TRIPOS>MOLECULE
frag5-637-83/138278 -- energy: -0.467859
   17    17     1     1     1
SMALL
USER_CHARGES


@<TRIPOS>ATOM
      1 C1          1.9018    0.4180   -0.2207 C.ar       1 <1>        0.000
      2 C2          3.0747   -0.3221    0.0208 C.ar       1 <1>        0.000
      3 N1          0.6699   -0.2667   -0.3005 N.am       1 <1>        0.000
      4 C3          1.9728    1.8045   -0.3967 C.ar       1 <1>        0.000
      5 C4          4.2922    0.3706    0.1549 C.ar       1 <1>        0.000
      6 O1          2.9973   -1.6926    0.1245 O.3        1 <1>        0.000
      7 C5         -0.5245    0.3417   -0.4729 C.2        1 <1>        0.000
      8 C6          3.1864    2.4747   -0.2473 C.ar       1 <1>        0.000
      9 C7          4.3486    1.7559    0.0385 C.ar       1 <1>        0.000
     10 O2         -1.5099   -0.1494   -0.9914 O.2        1 <1>        0.000
     11 H           0.6820   -1.2837   -0.2233 H.spc      1 <1>        0.000
     12 H           1.0732    2.3644   -0.6523 H.spc      1 <1>        0.000
     13 H           5.2070   -0.1878    0.3534 H.spc      1 <1>        0.000
     14 H           3.8731   -2.0500    0.2884 H.spc      1 <1>        0.000
     15 H          -0.6135    1.3672   -0.1144 H.spc      1 <1>        0.000
     16 H           3.2276    3.5587   -0.3535 H.spc      1 <1>        0.000
     17 H           5.2964    2.2779    0.1699 H.spc      1 <1>        0.000
@<TRIPOS>BOND
     1    8    9 ar 
     2    7   10 2  
     3    1    3 1  
     4    1    2 ar 
     5    1    4 ar 
     6    2    5 ar 
     7    2    6 1  
     8    3    7 am 
     9    4    8 ar 
    10    5    9 ar 
    11    3   11 1  
    12    4   12 1  
    13    5   13 1  
    14    6   14 1  
    15    7   15 1  
    16    8   16 1  
    17    9   17 1  
# Name:          frag5-637-83/138278 -- energy: 0.571087
# Creation time: Sat Jun  5 12:53:49 2010


@<TRIPOS>MOLECULE
frag5-637-83/138278 -- energy: 0.571087
   17    17     1     1     1
SMALL
USER_CHARGES


@<TRIPOS>ATOM
      1 C1          1.8667    0.2230   -0.3611 C.ar       1 <1>        0.000
      2 C2          3.0806   -0.3607    0.0490 C.ar       1 <1>        0.000
      3 N1          0.7410   -0.6164   -0.5553 N.am       1 <1>        0.000
      4 C3          1.7948    1.6020   -0.5889 C.ar       1 <1>        0.000
      5 C4          4.1813    0.4819    0.2938 C.ar       1 <1>        0.000
      6 O1          3.1535   -1.7248    0.2057 O.3        1 <1>        0.000
      7 C5         -0.5190   -0.1473   -0.6929 C.2        1 <1>        0.000
      8 C6          2.8921    2.4204   -0.3295 C.ar       1 <1>        0.000
      9 C7          4.0876    1.8591    0.1222 C.ar       1 <1>        0.000
     10 O2         -0.8693    0.9977   -0.4336 O.2        1 <1>        0.000
     11 H           0.8894   -1.6248   -0.5931 H.spc      1 <1>        0.000
     12 H           0.8729    2.0393   -0.9723 H.spc      1 <1>        0.000
     13 H           5.1247    0.0471    0.6240 H.spc      1 <1>        0.000
     14 H           4.0391   -1.9666    0.4866 H.spc      1 <1>        0.000
     15 H          -1.2782   -0.8373   -1.0611 H.spc      1 <1>        0.000
     16 H           2.8171    3.4975   -0.4791 H.spc      1 <1>        0.000
     17 H           4.9441    2.4973    0.3395 H.spc      1 <1>        0.000
@<TRIPOS>BOND
     1    8    9 ar 
     2    7   10 2  
     3    1    3 1  
     4    1    2 ar 
     5    1    4 ar 
     6    2    5 ar 
     7    2    6 1  
     8    3    7 am 
     9    4    8 ar 
    10    5    9 ar 
    11    3   11 1  
    12    4   12 1  
    13    5   13 1  
    14    6   14 1  
    15    7   15 1  
    16    8   16 1  
    17    9   17 1  
# Name:          frag5-637-83/138278 -- energy: -0.406675
# Creation time: Sat Jun  5 12:53:49 2010


@<TRIPOS>MOLECULE
frag5-637-83/138278 -- energy: -0.406675
   17    17     1     1     1
SMALL
USER_CHARGES


@<TRIPOS>ATOM
      1 C1          1.8565    0.8555   -0.4915 C.ar       1 <1>        0.000
      2 C2          2.7338   -0.1587   -0.0607 C.ar       1 <1>        0.000
      3 N1          0.5300    0.4987   -0.8293 N.am       1 <1>        0.000
      4 C3          2.3095    2.1727   -0.5904 C.ar       1 <1>        0.000
      5 C4          4.0365    0.1912    0.3315 C.ar       1 <1>        0.000
      6 O1          2.2907   -1.4684   -0.0325 O.3        1 <1>        0.000
      7 C5         -0.1890   -0.4375   -0.1654 C.2        1 <1>        0.000
      8 C6          3.6026    2.5082   -0.1837 C.ar       1 <1>        0.000
      9 C7          4.4651    1.5157    0.2864 C.ar       1 <1>        0.000
     10 O2         -1.2265   -0.9426   -0.5550 O.2        1 <1>        0.000
     11 H           0.0901    0.9735   -1.6176 H.spc      1 <1>        0.000
     12 H           1.6495    2.9439   -0.9876 H.spc      1 <1>        0.000
     13 H           4.7210   -0.5841    0.6757 H.spc      1 <1>        0.000
     14 H           2.9974   -2.0374    0.2811 H.spc      1 <1>        0.000
     15 H           0.1937   -0.7672    0.8005 H.spc      1 <1>        0.000
     16 H           3.9384    3.5440   -0.2332 H.spc      1 <1>        0.000
     17 H           5.4705    1.7766    0.6170 H.spc      1 <1>        0.000
@<TRIPOS>BOND
     1    8    9 ar 
     2    7   10 2  
     3    1    3 1  
     4    1    2 ar 
     5    1    4 ar 
     6    2    5 ar 
     7    2    6 1  
     8    3    7 am 
     9    4    8 ar 
    10    5    9 ar 
    11    3   11 1  
    12    4   12 1  
    13    5   13 1  
    14    6   14 1  
    15    7   15 1  
    16    8   16 1  
    17    9   17 1  
