#      Rotatable Fragment
#      Build by yxyuan
#
# Name:          frag3-275-2/31924
# Creation time: Sat Jun  5 12:52:44 2010


@<TRIPOS>MOLECULE
frag3-275-2/31924
    8     7     1     1     1
SMALL
USER_CHARGES


@<TRIPOS>ATOM
      1 S2         -4.2316   -0.4714    1.8432 S.3        1 <1>        0.000
      2 C9         -5.4377   -1.3079    2.7354 C.2        1 <1>        0.000
      3 N3         -5.8893   -0.7932    3.8094 N.2        1 <1>        0.000
      4 N4         -5.9707   -2.4686    2.3242 N.pl3      1 <1>        0.000
      5 H          -3.9064   -1.1814    0.7666 H.spc      1 <1>        0.000
      6 H          -6.6324   -1.2627    4.3268 H.spc      1 <1>        0.000
      7 H          -6.7129   -2.9098    2.8673 H.spc      1 <1>        0.000
      8 H          -5.6337   -2.9098    1.4685 H.spc      1 <1>        0.000
@<TRIPOS>BOND
     1    1    2 1  
     2    2    3 2  
     3    2    4 1  
     4    1    5 1  
     5    3    6 1  
     6    4    7 1  
     7    4    8 1  
# Name:          frag3-275-2/31924 -- energy: -0.247459
# Creation time: Sat Jun  5 12:52:44 2010


@<TRIPOS>MOLECULE
frag3-275-2/31924 -- energy: -0.247459
    8     7     1     1     1
SMALL
USER_CHARGES


@<TRIPOS>ATOM
      1 S2         -4.2316   -0.4714    1.8432 S.3        1 <1>        0.000
      2 C9         -5.4377   -1.3079    2.7354 C.2        1 <1>        0.000
      3 N3         -5.8893   -0.7932    3.8094 N.2        1 <1>        0.000
      4 N4         -5.9707   -2.4686    2.3242 N.pl3      1 <1>        0.000
      5 H          -3.9064   -1.1814    0.7666 H.spc      1 <1>        0.000
      6 H          -6.6324   -1.2627    4.3268 H.spc      1 <1>        0.000
      7 H          -6.7129   -2.9098    2.8673 H.spc      1 <1>        0.000
      8 H          -5.6337   -2.9098    1.4685 H.spc      1 <1>        0.000
@<TRIPOS>BOND
     1    1    2 1  
     2    2    3 2  
     3    2    4 1  
     4    1    5 1  
     5    3    6 1  
     6    4    7 1  
     7    4    8 1  
