#      Rotatable Fragment
#      Build by yxyuan
#
# Name:          frag4-459-106/150395
# Creation time: Sat Jun  5 12:53:37 2010


@<TRIPOS>MOLECULE
frag4-459-106/150395
   10    10     1     1     1
SMALL
USER_CHARGES


@<TRIPOS>ATOM
      1 C8          2.7209    0.7726    0.0000 C.2        1 <1>        0.000
      2 N3          2.9599    2.0207   -0.0000 N.2        1 <1>        0.000
      3 O1          3.7739   -0.0416    0.0000 O.3        1 <1>        0.000
      4 C10         4.3862    2.2223   -0.0000 C.3        1 <1>        0.000
      5 C11         4.9444    0.7797   -0.0000 C.3        1 <1>        0.000
      6 H           1.7014    0.3869    0.0000 H.spc      1 <1>        0.000
      7 H           4.7292    2.8069    0.8537 H.spc      1 <1>        0.000
      8 H           4.7292    2.8069   -0.8537 H.spc      1 <1>        0.000
      9 H           5.5872    0.5845   -0.8584 H.spc      1 <1>        0.000
     10 H           5.5872    0.5845    0.8584 H.spc      1 <1>        0.000
@<TRIPOS>BOND
     1    3    5 1  
     2    1    2 2  
     3    1    3 1  
     4    2    4 1  
     5    4    5 1  
     6    1    6 1  
     7    4    7 1  
     8    4    8 1  
     9    5    9 1  
    10    5   10 1  
# Name:          frag4-459-106/150395 -- energy: -0.352695
# Creation time: Sat Jun  5 12:53:37 2010


@<TRIPOS>MOLECULE
frag4-459-106/150395 -- energy: -0.352695
   10    10     1     1     1
SMALL
USER_CHARGES


@<TRIPOS>ATOM
      1 C8          2.7209    0.7726    0.0000 C.2        1 <1>        0.000
      2 N3          2.9599    2.0207   -0.0000 N.2        1 <1>        0.000
      3 O1          3.7739   -0.0416    0.0000 O.3        1 <1>        0.000
      4 C10         4.3862    2.2223   -0.0000 C.3        1 <1>        0.000
      5 C11         4.9444    0.7797   -0.0000 C.3        1 <1>        0.000
      6 H           1.7014    0.3869    0.0000 H.spc      1 <1>        0.000
      7 H           4.7292    2.8069    0.8537 H.spc      1 <1>        0.000
      8 H           4.7292    2.8069   -0.8537 H.spc      1 <1>        0.000
      9 H           5.5872    0.5845   -0.8584 H.spc      1 <1>        0.000
     10 H           5.5872    0.5845    0.8584 H.spc      1 <1>        0.000
@<TRIPOS>BOND
     1    3    5 1  
     2    1    2 2  
     3    1    3 1  
     4    2    4 1  
     5    4    5 1  
     6    1    6 1  
     7    4    7 1  
     8    4    8 1  
     9    5    9 1  
    10    5   10 1  
