#      Rotatable Fragment
#      Build by yxyuan
#
# Name:          frag3-259-3/31924
# Creation time: Sat Jun  5 12:52:40 2010


@<TRIPOS>MOLECULE
frag3-259-3/31924
    9     8     1     1     1
SMALL
USER_CHARGES


@<TRIPOS>ATOM
      1 C15         1.7849   -0.1807   -0.0384 C.2        1 <1>        0.000
      2 O6          2.1609    0.9771   -0.1308 O.2        1 <1>        0.000
      3 O7          0.5424   -0.6603    0.0606 O.3        1 <1>        0.000
      4 C16        -0.4821    0.2492   -0.1004 C.2        1 <1>        0.000
      5 C17        -1.7430   -0.1233    0.1268 C.2        1 <1>        0.000
      6 H           2.5764   -0.9301   -0.0364 H.spc      1 <1>        0.000
      7 H          -0.2620    1.2701   -0.4126 H.spc      1 <1>        0.000
      8 H          -1.9618   -1.1445    0.4389 H.spc      1 <1>        0.000
      9 H          -2.5543    0.5936    0.0003 H.spc      1 <1>        0.000
@<TRIPOS>BOND
     1    1    2 2  
     2    1    3 1  
     3    3    4 1  
     4    4    5 2  
     5    1    6 1  
     6    4    7 1  
     7    5    8 1  
     8    5    9 1  
# Name:          frag3-259-3/31924
# Creation time: Sat Jun  5 12:52:40 2010


@<TRIPOS>MOLECULE
frag3-259-3/31924
    9     8     1     1     1
SMALL
USER_CHARGES


@<TRIPOS>ATOM
      1 C15         1.5556    0.5144    0.0378 C.2        1 <1>        0.000
      2 O6          2.7416    0.2959   -0.2042 O.2        1 <1>        0.000
      3 O7          0.5149   -0.3255   -0.0477 O.3        1 <1>        0.000
      4 C16        -0.7231    0.2644    0.0660 C.2        1 <1>        0.000
      5 C17        -1.8259   -0.4872    0.0658 C.2        1 <1>        0.000
      6 H           1.3195    1.5267    0.3657 H.spc      1 <1>        0.000
      7 H          -0.8032    1.3477    0.1564 H.spc      1 <1>        0.000
      8 H          -1.7471   -1.5706   -0.0245 H.spc      1 <1>        0.000
      9 H          -2.8055   -0.0177    0.1560 H.spc      1 <1>        0.000
@<TRIPOS>BOND
     1    1    2 2  
     2    1    3 1  
     3    3    4 1  
     4    4    5 2  
     5    1    6 1  
     6    4    7 1  
     7    5    8 1  
     8    5    9 1  
# Name:          frag3-259-3/31924
# Creation time: Sat Jun  5 12:52:40 2010


@<TRIPOS>MOLECULE
frag3-259-3/31924
    9     8     1     1     1
SMALL
USER_CHARGES


@<TRIPOS>ATOM
      1 C15         1.3457    0.4704    0.0955 C.2        1 <1>        0.000
      2 O6          2.4949    0.7301   -0.2480 O.2        1 <1>        0.000
      3 O7          0.6237   -0.6546   -0.1719 O.3        1 <1>        0.000
      4 C16        -0.6545   -0.5924    0.3254 C.2        1 <1>        0.000
      5 C17        -1.5466    0.3084   -0.0832 C.2        1 <1>        0.000
      6 H           0.8399    1.2333    0.6874 H.spc      1 <1>        0.000
      7 H          -0.9524   -1.3118    1.0882 H.spc      1 <1>        0.000
      8 H          -1.2739    1.0389   -0.8448 H.spc      1 <1>        0.000
      9 H          -2.5493    0.3150    0.3441 H.spc      1 <1>        0.000
@<TRIPOS>BOND
     1    1    2 2  
     2    1    3 1  
     3    3    4 1  
     4    4    5 2  
     5    1    6 1  
     6    4    7 1  
     7    5    8 1  
     8    5    9 1  
# Name:          frag3-259-3/31924
# Creation time: Sat Jun  5 12:52:41 2010


@<TRIPOS>MOLECULE
frag3-259-3/31924
    9     8     1     1     1
SMALL
USER_CHARGES


@<TRIPOS>ATOM
      1 C15         1.6389   -0.1055   -0.1756 C.2        1 <1>        0.000
      2 O6          1.6844    1.1198   -0.2054 O.2        1 <1>        0.000
      3 O7          0.6325   -0.9636    0.1437 O.3        1 <1>        0.000
      4 C16        -0.5334   -0.3159    0.4850 C.2        1 <1>        0.000
      5 C17        -1.1594    0.5272   -0.3299 C.2        1 <1>        0.000
      6 H           2.5720   -0.5947   -0.4550 H.spc      1 <1>        0.000
      7 H          -0.9631   -0.5031    1.4691 H.spc      1 <1>        0.000
      8 H          -0.7516    0.7326   -1.3197 H.spc      1 <1>        0.000
      9 H          -2.0806    1.0132   -0.0084 H.spc      1 <1>        0.000
@<TRIPOS>BOND
     1    1    2 2  
     2    1    3 1  
     3    3    4 1  
     4    4    5 2  
     5    1    6 1  
     6    4    7 1  
     7    5    8 1  
     8    5    9 1  
# Name:          frag3-259-3/31924 -- energy: -0.173595
# Creation time: Sat Jun  5 12:52:41 2010


@<TRIPOS>MOLECULE
frag3-259-3/31924 -- energy: -0.173595
    9     8     1     1     1
SMALL
USER_CHARGES


@<TRIPOS>ATOM
      1 C15         1.7849   -0.1807   -0.0384 C.2        1 <1>        0.000
      2 O6          2.1609    0.9771   -0.1308 O.2        1 <1>        0.000
      3 O7          0.5424   -0.6603    0.0606 O.3        1 <1>        0.000
      4 C16        -0.4821    0.2492   -0.1004 C.2        1 <1>        0.000
      5 C17        -1.7430   -0.1233    0.1268 C.2        1 <1>        0.000
      6 H           2.5764   -0.9301   -0.0364 H.spc      1 <1>        0.000
      7 H          -0.2620    1.2701   -0.4126 H.spc      1 <1>        0.000
      8 H          -1.9618   -1.1445    0.4389 H.spc      1 <1>        0.000
      9 H          -2.5543    0.5936    0.0003 H.spc      1 <1>        0.000
@<TRIPOS>BOND
     1    1    2 2  
     2    1    3 1  
     3    3    4 1  
     4    4    5 2  
     5    1    6 1  
     6    4    7 1  
     7    5    8 1  
     8    5    9 1  
# Name:          frag3-259-3/31924 -- energy: -0.159571
# Creation time: Sat Jun  5 12:52:41 2010


@<TRIPOS>MOLECULE
frag3-259-3/31924 -- energy: -0.159571
    9     8     1     1     1
SMALL
USER_CHARGES


@<TRIPOS>ATOM
      1 C15         1.5556    0.5144    0.0378 C.2        1 <1>        0.000
      2 O6          2.7416    0.2959   -0.2042 O.2        1 <1>        0.000
      3 O7          0.5149   -0.3255   -0.0477 O.3        1 <1>        0.000
      4 C16        -0.7231    0.2644    0.0660 C.2        1 <1>        0.000
      5 C17        -1.8259   -0.4872    0.0658 C.2        1 <1>        0.000
      6 H           1.3195    1.5267    0.3657 H.spc      1 <1>        0.000
      7 H          -0.8032    1.3477    0.1564 H.spc      1 <1>        0.000
      8 H          -1.7471   -1.5706   -0.0245 H.spc      1 <1>        0.000
      9 H          -2.8055   -0.0177    0.1560 H.spc      1 <1>        0.000
@<TRIPOS>BOND
     1    1    2 2  
     2    1    3 1  
     3    3    4 1  
     4    4    5 2  
     5    1    6 1  
     6    4    7 1  
     7    5    8 1  
     8    5    9 1  
# Name:          frag3-259-3/31924 -- energy: -0.209784
# Creation time: Sat Jun  5 12:52:41 2010


@<TRIPOS>MOLECULE
frag3-259-3/31924 -- energy: -0.209784
    9     8     1     1     1
SMALL
USER_CHARGES


@<TRIPOS>ATOM
      1 C15         1.3457    0.4704    0.0955 C.2        1 <1>        0.000
      2 O6          2.4949    0.7301   -0.2480 O.2        1 <1>        0.000
      3 O7          0.6237   -0.6546   -0.1719 O.3        1 <1>        0.000
      4 C16        -0.6545   -0.5924    0.3254 C.2        1 <1>        0.000
      5 C17        -1.5466    0.3084   -0.0832 C.2        1 <1>        0.000
      6 H           0.8399    1.2333    0.6874 H.spc      1 <1>        0.000
      7 H          -0.9524   -1.3118    1.0882 H.spc      1 <1>        0.000
      8 H          -1.2739    1.0389   -0.8448 H.spc      1 <1>        0.000
      9 H          -2.5493    0.3150    0.3441 H.spc      1 <1>        0.000
@<TRIPOS>BOND
     1    1    2 2  
     2    1    3 1  
     3    3    4 1  
     4    4    5 2  
     5    1    6 1  
     6    4    7 1  
     7    5    8 1  
     8    5    9 1  
# Name:          frag3-259-3/31924 -- energy: -0.182269
# Creation time: Sat Jun  5 12:52:41 2010


@<TRIPOS>MOLECULE
frag3-259-3/31924 -- energy: -0.182269
    9     8     1     1     1
SMALL
USER_CHARGES


@<TRIPOS>ATOM
      1 C15         1.6389   -0.1055   -0.1756 C.2        1 <1>        0.000
      2 O6          1.6844    1.1198   -0.2054 O.2        1 <1>        0.000
      3 O7          0.6325   -0.9636    0.1437 O.3        1 <1>        0.000
      4 C16        -0.5334   -0.3159    0.4850 C.2        1 <1>        0.000
      5 C17        -1.1594    0.5272   -0.3299 C.2        1 <1>        0.000
      6 H           2.5720   -0.5947   -0.4550 H.spc      1 <1>        0.000
      7 H          -0.9631   -0.5031    1.4691 H.spc      1 <1>        0.000
      8 H          -0.7516    0.7326   -1.3197 H.spc      1 <1>        0.000
      9 H          -2.0806    1.0132   -0.0084 H.spc      1 <1>        0.000
@<TRIPOS>BOND
     1    1    2 2  
     2    1    3 1  
     3    3    4 1  
     4    4    5 2  
     5    1    6 1  
     6    4    7 1  
     7    5    8 1  
     8    5    9 1  
