#      Rotatable Fragment
#      Build by yxyuan
#
# Name:          frag4-433-47/48856
# Creation time: Sat Jun  5 12:52:47 2010


@<TRIPOS>MOLECULE
frag4-433-47/48856
   40    44     1     1     1
SMALL
USER_CHARGES


@<TRIPOS>ATOM
      1 N1          1.1491    3.1889    1.0336 N.4        1 <1>        0.000
      2 C1          0.6133    3.0567    2.4199 C.3        1 <1>        0.000
      3 C2         -0.6218    2.1591    2.2410 C.3        1 <1>        0.000
      4 C3         -0.1089    1.0840    1.2534 C.3        1 <1>        0.000
      5 C4          0.8795    1.8826    0.3463 C.3        1 <1>        0.000
      6 C5          2.1884    1.0886    0.0599 C.3        1 <1>        0.000
      7 C6          1.8755   -0.3980   -0.2222 C.3        1 <1>        0.000
      8 C7          1.2490   -1.0998    1.0147 C.3        1 <1>        0.000
      9 C8          0.5472   -0.1205    2.0056 C.3        1 <1>        0.000
     10 N2         -0.6511   -0.8182    2.4498 N.pl3      1 <1>        0.000
     11 C9         -1.6561   -0.6441    1.5773 C.ar       1 <1>        0.000
     12 C10        -1.3560    0.3819    0.6949 C.ar       1 <1>        0.000
     13 C11        -2.1541    0.6004   -0.4290 C.ar       1 <1>        0.000
     14 C12        -3.2956   -0.2029   -0.5840 C.ar       1 <1>        0.000
     15 C13        -3.6542   -1.1528    0.3862 C.ar       1 <1>        0.000
     16 C14        -2.8364   -1.3777    1.4999 C.ar       1 <1>        0.000
     17 C23         3.2142    1.2765    1.1486 C.2        1 <1>        0.000
     18 C24         3.4194    2.5108    1.6160 C.2        1 <1>        0.000
     19 C25         2.5685    3.6258    1.0649 C.3        1 <1>        0.000
     20 H           0.6902    3.9212    0.4918 H.spc      1 <1>        0.000
     21 H           0.3693    4.0200    2.8679 H.spc      1 <1>        0.000
     22 H           1.3417    2.6333    3.1115 H.spc      1 <1>        0.000
     23 H          -0.9867    1.7403    3.1789 H.spc      1 <1>        0.000
     24 H          -1.4940    2.6988    1.8720 H.spc      1 <1>        0.000
     25 H           0.4358    2.0554   -0.6342 H.spc      1 <1>        0.000
     26 H           2.6410    1.4977   -0.8434 H.spc      1 <1>        0.000
     27 H           2.8091   -0.9044   -0.4675 H.spc      1 <1>        0.000
     28 H           1.1606   -0.4481   -1.0435 H.spc      1 <1>        0.000
     29 H           2.0594   -1.5863    1.5576 H.spc      1 <1>        0.000
     30 H           0.4896   -1.7898    0.6470 H.spc      1 <1>        0.000
     31 H           1.2775    0.1900    2.7529 H.spc      1 <1>        0.000
     32 H          -0.7178   -1.3653    3.3080 H.spc      1 <1>        0.000
     33 H          -1.9004    1.3675   -1.1607 H.spc      1 <1>        0.000
     34 H          -3.9146   -0.0870   -1.4737 H.spc      1 <1>        0.000
     35 H          -4.5777   -1.7202    0.2710 H.spc      1 <1>        0.000
     36 H          -3.1118   -2.0957    2.2724 H.spc      1 <1>        0.000
     37 H           3.7732    0.4282    1.5436 H.spc      1 <1>        0.000
     38 H           4.1791    2.7056    2.3729 H.spc      1 <1>        0.000
     39 H           2.6656    4.5071    1.6989 H.spc      1 <1>        0.000
     40 H           2.8975    3.8716    0.0552 H.spc      1 <1>        0.000
@<TRIPOS>BOND
     1    1   19 1  
     2    4   12 1  
     3    4    5 1  
     4    4    9 1  
     5    6    7 1  
     6    1    2 1  
     7    3    4 1  
     8    1    5 1  
     9    6   17 1  
    10    5    6 1  
    11    7    8 1  
    12    2    3 1  
    13   18   19 1  
    14   17   18 2  
    15   15   16 ar 
    16   14   15 ar 
    17   13   14 ar 
    18   12   13 ar 
    19   11   16 ar 
    20   11   12 ar 
    21   10   11 1  
    22    9   10 1  
    23    8    9 1  
    24    1   20 1  
    25    2   21 1  
    26    2   22 1  
    27    3   23 1  
    28    3   24 1  
    29    5   25 1  
    30    6   26 1  
    31    7   27 1  
    32    7   28 1  
    33    8   29 1  
    34    8   30 1  
    35    9   31 1  
    36   10   32 1  
    37   13   33 1  
    38   14   34 1  
    39   15   35 1  
    40   16   36 1  
    41   17   37 1  
    42   18   38 1  
    43   19   39 1  
    44   19   40 1  
# Name:          frag4-433-47/48856 -- energy: -7.581984
# Creation time: Sat Jun  5 12:52:47 2010


@<TRIPOS>MOLECULE
frag4-433-47/48856 -- energy: -7.581984
   40    44     1     1     1
SMALL
USER_CHARGES


@<TRIPOS>ATOM
      1 N1          1.1491    3.1889    1.0336 N.4        1 <1>        0.000
      2 C1          0.6133    3.0567    2.4199 C.3        1 <1>        0.000
      3 C2         -0.6218    2.1591    2.2410 C.3        1 <1>        0.000
      4 C3         -0.1089    1.0840    1.2534 C.3        1 <1>        0.000
      5 C4          0.8795    1.8826    0.3463 C.3        1 <1>        0.000
      6 C5          2.1884    1.0886    0.0599 C.3        1 <1>        0.000
      7 C6          1.8755   -0.3980   -0.2222 C.3        1 <1>        0.000
      8 C7          1.2490   -1.0998    1.0147 C.3        1 <1>        0.000
      9 C8          0.5472   -0.1205    2.0056 C.3        1 <1>        0.000
     10 N2         -0.6511   -0.8182    2.4498 N.pl3      1 <1>        0.000
     11 C9         -1.6561   -0.6441    1.5773 C.ar       1 <1>        0.000
     12 C10        -1.3560    0.3819    0.6949 C.ar       1 <1>        0.000
     13 C11        -2.1541    0.6004   -0.4290 C.ar       1 <1>        0.000
     14 C12        -3.2956   -0.2029   -0.5840 C.ar       1 <1>        0.000
     15 C13        -3.6542   -1.1528    0.3862 C.ar       1 <1>        0.000
     16 C14        -2.8364   -1.3777    1.4999 C.ar       1 <1>        0.000
     17 C23         3.2142    1.2765    1.1486 C.2        1 <1>        0.000
     18 C24         3.4194    2.5108    1.6160 C.2        1 <1>        0.000
     19 C25         2.5685    3.6258    1.0649 C.3        1 <1>        0.000
     20 H           0.6902    3.9212    0.4918 H.spc      1 <1>        0.000
     21 H           0.3693    4.0200    2.8679 H.spc      1 <1>        0.000
     22 H           1.3417    2.6333    3.1115 H.spc      1 <1>        0.000
     23 H          -0.9867    1.7403    3.1789 H.spc      1 <1>        0.000
     24 H          -1.4940    2.6988    1.8720 H.spc      1 <1>        0.000
     25 H           0.4358    2.0554   -0.6342 H.spc      1 <1>        0.000
     26 H           2.6410    1.4977   -0.8434 H.spc      1 <1>        0.000
     27 H           2.8091   -0.9044   -0.4675 H.spc      1 <1>        0.000
     28 H           1.1606   -0.4481   -1.0435 H.spc      1 <1>        0.000
     29 H           2.0594   -1.5863    1.5576 H.spc      1 <1>        0.000
     30 H           0.4896   -1.7898    0.6470 H.spc      1 <1>        0.000
     31 H           1.2775    0.1900    2.7529 H.spc      1 <1>        0.000
     32 H          -0.7178   -1.3653    3.3080 H.spc      1 <1>        0.000
     33 H          -1.9004    1.3675   -1.1607 H.spc      1 <1>        0.000
     34 H          -3.9146   -0.0870   -1.4737 H.spc      1 <1>        0.000
     35 H          -4.5777   -1.7202    0.2710 H.spc      1 <1>        0.000
     36 H          -3.1118   -2.0957    2.2724 H.spc      1 <1>        0.000
     37 H           3.7732    0.4282    1.5436 H.spc      1 <1>        0.000
     38 H           4.1791    2.7056    2.3729 H.spc      1 <1>        0.000
     39 H           2.6656    4.5071    1.6989 H.spc      1 <1>        0.000
     40 H           2.8975    3.8716    0.0552 H.spc      1 <1>        0.000
@<TRIPOS>BOND
     1    1   19 1  
     2    4   12 1  
     3    4    5 1  
     4    4    9 1  
     5    6    7 1  
     6    1    2 1  
     7    3    4 1  
     8    1    5 1  
     9    6   17 1  
    10    5    6 1  
    11    7    8 1  
    12    2    3 1  
    13   18   19 1  
    14   17   18 2  
    15   15   16 ar 
    16   14   15 ar 
    17   13   14 ar 
    18   12   13 ar 
    19   11   16 ar 
    20   11   12 ar 
    21   10   11 1  
    22    9   10 1  
    23    8    9 1  
    24    1   20 1  
    25    2   21 1  
    26    2   22 1  
    27    3   23 1  
    28    3   24 1  
    29    5   25 1  
    30    6   26 1  
    31    7   27 1  
    32    7   28 1  
    33    8   29 1  
    34    8   30 1  
    35    9   31 1  
    36   10   32 1  
    37   13   33 1  
    38   14   34 1  
    39   15   35 1  
    40   16   36 1  
    41   17   37 1  
    42   18   38 1  
    43   19   39 1  
    44   19   40 1  
