#      Rotatable Fragment
#      Build by yxyuan
#
# Name:          frag3-192-7/31924
# Creation time: Sat Jun  5 12:52:11 2010


@<TRIPOS>MOLECULE
frag3-192-7/31924
    5     4     1     1     1
SMALL
USER_CHARGES


@<TRIPOS>ATOM
      1 S1         -5.7776   -0.5326    0.3900 S.o        1 <1>        0.000
      2 O1         -6.1562    0.3843   -0.7435 O.2        1 <1>        0.000
      3 O2         -6.9905   -1.2064    1.0579 O.3        1 <1>        0.000
      4 H          -5.1655    0.2019    1.3146 H.spc      1 <1>        0.000
      5 H          -6.6875   -1.7756    1.7691 H.spc      1 <1>        0.000
@<TRIPOS>BOND
     1    1    2 2  
     2    1    3 1  
     3    1    4 1  
     4    3    5 1  
# Name:          frag3-192-7/31924 -- energy: -0.036315
# Creation time: Sat Jun  5 12:52:11 2010


@<TRIPOS>MOLECULE
frag3-192-7/31924 -- energy: -0.036315
    5     4     1     1     1
SMALL
USER_CHARGES


@<TRIPOS>ATOM
      1 S1         -5.7776   -0.5326    0.3900 S.o        1 <1>        0.000
      2 O1         -6.1562    0.3843   -0.7435 O.2        1 <1>        0.000
      3 O2         -6.9905   -1.2064    1.0579 O.3        1 <1>        0.000
      4 H          -5.1655    0.2019    1.3146 H.spc      1 <1>        0.000
      5 H          -6.6875   -1.7756    1.7691 H.spc      1 <1>        0.000
@<TRIPOS>BOND
     1    1    2 2  
     2    1    3 1  
     3    1    4 1  
     4    3    5 1  
