#      Rotatable Fragment
#      Build by yxyuan
#
# Name:          frag5-545-197/138278
# Creation time: Sat Jun  5 12:53:42 2010


@<TRIPOS>MOLECULE
frag5-545-197/138278
   41    44     1     1     1
SMALL
USER_CHARGES


@<TRIPOS>ATOM
      1 C1          1.5413    0.2267    0.5590 C.3        1 <1>        0.000
      2 C2          0.2201   -0.6023    0.5465 C.3        1 <1>        0.000
      3 C3          1.4961    1.4635   -0.3576 C.3        1 <1>        0.000
      4 C4          2.8536   -0.4347    0.0950 C.3        1 <1>        0.000
      5 C5         -0.9877    0.1850   -0.0626 C.3        1 <1>        0.000
      6 C6          0.2826   -2.0176   -0.0797 C.3        1 <1>        0.000
      7 C7          2.9225    2.0213   -0.1917 C.3        1 <1>        0.000
      8 C8          0.3306    2.4143    0.0035 C.3        1 <1>        0.000
      9 C10         3.8046    0.7482   -0.2070 C.3        1 <1>        0.000
     10 C11        -2.3024   -0.5691    0.2731 C.3        1 <1>        0.000
     11 C12        -0.9415    1.6467    0.4566 C.3        1 <1>        0.000
     12 C13        -1.0021   -2.7964    0.2591 C.3        1 <1>        0.000
     13 C15        -2.2715   -2.0508   -0.2011 C.3        1 <1>        0.000
     14 C16        -3.5776    0.0349   -0.2599 C.2        1 <1>        0.000
     15 N1         -3.4775   -2.7269    0.2494 N.am       1 <1>        0.000
     16 C18        -4.7036   -0.6934   -0.2742 C.2        1 <1>        0.000
     17 C20        -4.6707   -2.0918    0.1993 C.2        1 <1>        0.000
     18 O3         -5.7198   -2.6321    0.5184 O.2        1 <1>        0.000
     19 H           1.5708    0.4138    1.6324 H.spc      1 <1>        0.000
     20 H           0.0631   -0.7662    1.6126 H.spc      1 <1>        0.000
     21 H           1.2701    1.2690   -1.4060 H.spc      1 <1>        0.000
     22 H           3.2629   -1.1020    0.8535 H.spc      1 <1>        0.000
     23 H           2.7027   -1.0684   -0.7789 H.spc      1 <1>        0.000
     24 H          -0.9351    0.2393   -1.1500 H.spc      1 <1>        0.000
     25 H           0.3747   -1.9286   -1.1621 H.spc      1 <1>        0.000
     26 H           1.1437   -2.5514    0.3223 H.spc      1 <1>        0.000
     27 H           3.0422    2.6047    0.7212 H.spc      1 <1>        0.000
     28 H           3.1913    2.7284   -0.9764 H.spc      1 <1>        0.000
     29 H           0.0776    2.9906   -0.8864 H.spc      1 <1>        0.000
     30 H           0.6551    3.0466    0.8299 H.spc      1 <1>        0.000
     31 H           4.2977    0.6216   -1.1708 H.spc      1 <1>        0.000
     32 H           4.6021    0.8120    0.5333 H.spc      1 <1>        0.000
     33 H          -2.3289   -0.4871    1.3597 H.spc      1 <1>        0.000
     34 H          -0.9365    1.6112    1.5460 H.spc      1 <1>        0.000
     35 H          -1.8067    2.1702    0.0498 H.spc      1 <1>        0.000
     36 H          -1.0517   -2.9158    1.3414 H.spc      1 <1>        0.000
     37 H          -0.9647   -3.7551   -0.2582 H.spc      1 <1>        0.000
     38 H          -2.2402   -2.0554   -1.2906 H.spc      1 <1>        0.000
     39 H          -3.5839    1.0594   -0.6320 H.spc      1 <1>        0.000
     40 H          -3.4236   -3.6818    0.6038 H.spc      1 <1>        0.000
     41 H          -5.6358   -0.2566   -0.6325 H.spc      1 <1>        0.000
@<TRIPOS>BOND
     1    6   12 1  
     2    5   10 1  
     3    4    9 1  
     4    3    7 1  
     5    1    4 1  
     6    3    8 1  
     7    1    3 1  
     8    1    2 1  
     9    2    5 1  
    10    5   11 1  
    11    2    6 1  
    12   17   18 2  
    13   16   17 1  
    14   15   17 am 
    15   14   16 2  
    16   13   15 1  
    17   12   13 1  
    18   10   14 1  
    19   10   13 1  
    20    8   11 1  
    21    7    9 1  
    22    1   19 1  
    23    2   20 1  
    24    3   21 1  
    25    4   22 1  
    26    4   23 1  
    27    5   24 1  
    28    6   25 1  
    29    6   26 1  
    30    7   27 1  
    31    7   28 1  
    32    8   29 1  
    33    8   30 1  
    34    9   31 1  
    35    9   32 1  
    36   10   33 1  
    37   11   34 1  
    38   11   35 1  
    39   12   36 1  
    40   12   37 1  
    41   13   38 1  
    42   14   39 1  
    43   15   40 1  
    44   16   41 1  
# Name:          frag5-545-197/138278 -- energy: -7.060124
# Creation time: Sat Jun  5 12:53:42 2010


@<TRIPOS>MOLECULE
frag5-545-197/138278 -- energy: -7.060124
   41    44     1     1     1
SMALL
USER_CHARGES


@<TRIPOS>ATOM
      1 C1          1.5413    0.2267    0.5590 C.3        1 <1>        0.000
      2 C2          0.2201   -0.6023    0.5465 C.3        1 <1>        0.000
      3 C3          1.4961    1.4635   -0.3576 C.3        1 <1>        0.000
      4 C4          2.8536   -0.4347    0.0950 C.3        1 <1>        0.000
      5 C5         -0.9877    0.1850   -0.0626 C.3        1 <1>        0.000
      6 C6          0.2826   -2.0176   -0.0797 C.3        1 <1>        0.000
      7 C7          2.9225    2.0213   -0.1917 C.3        1 <1>        0.000
      8 C8          0.3306    2.4143    0.0035 C.3        1 <1>        0.000
      9 C10         3.8046    0.7482   -0.2070 C.3        1 <1>        0.000
     10 C11        -2.3024   -0.5691    0.2731 C.3        1 <1>        0.000
     11 C12        -0.9415    1.6467    0.4566 C.3        1 <1>        0.000
     12 C13        -1.0021   -2.7964    0.2591 C.3        1 <1>        0.000
     13 C15        -2.2715   -2.0508   -0.2011 C.3        1 <1>        0.000
     14 C16        -3.5776    0.0349   -0.2599 C.2        1 <1>        0.000
     15 N1         -3.4775   -2.7269    0.2494 N.am       1 <1>        0.000
     16 C18        -4.7036   -0.6934   -0.2742 C.2        1 <1>        0.000
     17 C20        -4.6707   -2.0918    0.1993 C.2        1 <1>        0.000
     18 O3         -5.7198   -2.6321    0.5184 O.2        1 <1>        0.000
     19 H           1.5708    0.4138    1.6324 H.spc      1 <1>        0.000
     20 H           0.0631   -0.7662    1.6126 H.spc      1 <1>        0.000
     21 H           1.2701    1.2690   -1.4060 H.spc      1 <1>        0.000
     22 H           3.2629   -1.1020    0.8535 H.spc      1 <1>        0.000
     23 H           2.7027   -1.0684   -0.7789 H.spc      1 <1>        0.000
     24 H          -0.9351    0.2393   -1.1500 H.spc      1 <1>        0.000
     25 H           0.3747   -1.9286   -1.1621 H.spc      1 <1>        0.000
     26 H           1.1437   -2.5514    0.3223 H.spc      1 <1>        0.000
     27 H           3.0422    2.6047    0.7212 H.spc      1 <1>        0.000
     28 H           3.1913    2.7284   -0.9764 H.spc      1 <1>        0.000
     29 H           0.0776    2.9906   -0.8864 H.spc      1 <1>        0.000
     30 H           0.6551    3.0466    0.8299 H.spc      1 <1>        0.000
     31 H           4.2977    0.6216   -1.1708 H.spc      1 <1>        0.000
     32 H           4.6021    0.8120    0.5333 H.spc      1 <1>        0.000
     33 H          -2.3289   -0.4871    1.3597 H.spc      1 <1>        0.000
     34 H          -0.9365    1.6112    1.5460 H.spc      1 <1>        0.000
     35 H          -1.8067    2.1702    0.0498 H.spc      1 <1>        0.000
     36 H          -1.0517   -2.9158    1.3414 H.spc      1 <1>        0.000
     37 H          -0.9647   -3.7551   -0.2582 H.spc      1 <1>        0.000
     38 H          -2.2402   -2.0554   -1.2906 H.spc      1 <1>        0.000
     39 H          -3.5839    1.0594   -0.6320 H.spc      1 <1>        0.000
     40 H          -3.4236   -3.6818    0.6038 H.spc      1 <1>        0.000
     41 H          -5.6358   -0.2566   -0.6325 H.spc      1 <1>        0.000
@<TRIPOS>BOND
     1    6   12 1  
     2    5   10 1  
     3    4    9 1  
     4    3    7 1  
     5    1    4 1  
     6    3    8 1  
     7    1    3 1  
     8    1    2 1  
     9    2    5 1  
    10    5   11 1  
    11    2    6 1  
    12   17   18 2  
    13   16   17 1  
    14   15   17 am 
    15   14   16 2  
    16   13   15 1  
    17   12   13 1  
    18   10   14 1  
    19   10   13 1  
    20    8   11 1  
    21    7    9 1  
    22    1   19 1  
    23    2   20 1  
    24    3   21 1  
    25    4   22 1  
    26    4   23 1  
    27    5   24 1  
    28    6   25 1  
    29    6   26 1  
    30    7   27 1  
    31    7   28 1  
    32    8   29 1  
    33    8   30 1  
    34    9   31 1  
    35    9   32 1  
    36   10   33 1  
    37   11   34 1  
    38   11   35 1  
    39   12   36 1  
    40   12   37 1  
    41   13   38 1  
    42   14   39 1  
    43   15   40 1  
    44   16   41 1  
