#      Rotatable Fragment
#      Build by yxyuan
#
# Name:          frag4-325-242/48856
# Creation time: Sat Jun  5 12:52:48 2010


@<TRIPOS>MOLECULE
frag4-325-242/48856
   56    60     1     1     1
SMALL
USER_CHARGES


@<TRIPOS>ATOM
      1 C1          2.0183   -1.8704    2.6665 C.3        1 <1>        0.000
      2 C2          3.1363   -0.8241    2.4724 C.3        1 <1>        0.000
      3 C3          2.9805   -0.1302    1.0907 C.3        1 <1>        0.000
      4 C4          4.1560    0.8547    0.8578 C.3        1 <1>        0.000
      5 C5          5.5284    0.1635    0.9983 C.3        1 <1>        0.000
      6 C6          5.6682   -0.4790    2.3920 C.3        1 <1>        0.000
      7 C7          4.5281   -1.4886    2.6229 C.3        1 <1>        0.000
      8 C15        -3.5095    0.6209   -0.5278 C.3        1 <1>        0.000
      9 C10         1.5775    0.4402    0.9385 C.2        1 <1>        0.000
     10 C11         1.3345    1.7223    0.6148 C.2        1 <1>        0.000
     11 C12        -0.0351    2.2786    0.3704 C.3        1 <1>        0.000
     12 C13        -1.0566    1.1904   -0.0411 C.3        1 <1>        0.000
     13 C14        -2.4981    1.7625   -0.2205 C.3        1 <1>        0.000
     14 C16        -3.4649   -0.4489    0.5819 C.3        1 <1>        0.000
     15 C17        -2.0502   -1.0357    0.7091 C.3        1 <1>        0.000
     16 C18        -0.9992    0.0620    1.0219 C.3        1 <1>        0.000
     17 C19         0.4342   -0.5393    1.1479 C.3        1 <1>        0.000
     18 C20         0.6297   -1.2245    2.5278 C.3        1 <1>        0.000
     19 C23        -4.9473    1.1619   -0.7069 C.3        1 <1>        0.000
     20 C24        -5.0055    2.2112   -1.8319 C.3        1 <1>        0.000
     21 C25        -4.0383    3.3681   -1.5192 C.3        1 <1>        0.000
     22 C26        -2.5974    2.8502   -1.3248 C.3        1 <1>        0.000
     23 H           2.1237   -2.6408    1.9027 H.spc      1 <1>        0.000
     24 H           2.1077   -2.2967    3.6657 H.spc      1 <1>        0.000
     25 H           3.0511   -0.0593    3.2443 H.spc      1 <1>        0.000
     26 H           3.0617   -0.8489    0.2752 H.spc      1 <1>        0.000
     27 H           4.0751    1.2473   -0.1558 H.spc      1 <1>        0.000
     28 H           4.0935    1.6425    1.6085 H.spc      1 <1>        0.000
     29 H           5.6127   -0.6144    0.2394 H.spc      1 <1>        0.000
     30 H           6.3146    0.9076    0.8706 H.spc      1 <1>        0.000
     31 H           6.6248   -0.9978    2.4535 H.spc      1 <1>        0.000
     32 H           5.6173    0.2999    3.1529 H.spc      1 <1>        0.000
     33 H           4.6148   -1.8791    3.6368 H.spc      1 <1>        0.000
     34 H           4.6136   -2.2800    1.8782 H.spc      1 <1>        0.000
     35 H          -3.2144    0.1619   -1.4714 H.spc      1 <1>        0.000
     36 H           2.1852    2.3978    0.5247 H.spc      1 <1>        0.000
     37 H          -0.3834    2.7310    1.2989 H.spc      1 <1>        0.000
     38 H           0.0361    2.9971   -0.4462 H.spc      1 <1>        0.000
     39 H          -0.7915    0.7902   -1.0197 H.spc      1 <1>        0.000
     40 H          -2.7480    2.2399    0.7270 H.spc      1 <1>        0.000
     41 H          -4.1588   -1.2504    0.3285 H.spc      1 <1>        0.000
     42 H          -3.7429    0.0126    1.5294 H.spc      1 <1>        0.000
     43 H          -1.7861   -1.5036   -0.2393 H.spc      1 <1>        0.000
     44 H          -2.0493   -1.7551    1.5279 H.spc      1 <1>        0.000
     45 H          -1.2449    0.5007    1.9890 H.spc      1 <1>        0.000
     46 H           0.4843   -1.2581    0.3300 H.spc      1 <1>        0.000
     47 H          -0.1200   -2.0098    2.6249 H.spc      1 <1>        0.000
     48 H           0.5323   -0.4623    3.3009 H.spc      1 <1>        0.000
     49 H          -5.2634    1.6304    0.2251 H.spc      1 <1>        0.000
     50 H          -5.6033    0.3317   -0.9686 H.spc      1 <1>        0.000
     51 H          -6.0204    2.6013   -1.9078 H.spc      1 <1>        0.000
     52 H          -4.7163    1.7451   -2.7739 H.spc      1 <1>        0.000
     53 H          -4.3616    3.8540   -0.5986 H.spc      1 <1>        0.000
     54 H          -4.0480    4.0668   -2.3558 H.spc      1 <1>        0.000
     55 H          -2.2711    2.4050   -2.2647 H.spc      1 <1>        0.000
     56 H          -1.9758    3.6930   -1.0226 H.spc      1 <1>        0.000
@<TRIPOS>BOND
     1   13    8 1  
     2   13   22 1  
     3    8   14 1  
     4   12   13 1  
     5    8   19 1  
     6   14   15 1  
     7   12   16 1  
     8   11   12 1  
     9   10   11 1  
    10    9   17 1  
    11   15   16 1  
    12    9   10 2  
    13    6    7 1  
    14   16   17 1  
    15    5    6 1  
    16   17   18 1  
    17    4    5 1  
    18    3    9 1  
    19    3    4 1  
    20    2    7 1  
    21    2    3 1  
    22   19   20 1  
    23    1   18 1  
    24    1    2 1  
    25   20   21 1  
    26   21   22 1  
    27    1   23 1  
    28    1   24 1  
    29    2   25 1  
    30    3   26 1  
    31    4   27 1  
    32    4   28 1  
    33    5   29 1  
    34    5   30 1  
    35    6   31 1  
    36    6   32 1  
    37    7   33 1  
    38    7   34 1  
    39    8   35 1  
    40   10   36 1  
    41   11   37 1  
    42   11   38 1  
    43   12   39 1  
    44   13   40 1  
    45   14   41 1  
    46   14   42 1  
    47   15   43 1  
    48   15   44 1  
    49   16   45 1  
    50   17   46 1  
    51   18   47 1  
    52   18   48 1  
    53   19   49 1  
    54   19   50 1  
    55   20   51 1  
    56   20   52 1  
    57   21   53 1  
    58   21   54 1  
    59   22   55 1  
    60   22   56 1  
# Name:          frag4-325-242/48856 -- energy: -11.340855
# Creation time: Sat Jun  5 12:52:48 2010


@<TRIPOS>MOLECULE
frag4-325-242/48856 -- energy: -11.340855
   56    60     1     1     1
SMALL
USER_CHARGES


@<TRIPOS>ATOM
      1 C1          2.0183   -1.8704    2.6665 C.3        1 <1>        0.000
      2 C2          3.1363   -0.8241    2.4724 C.3        1 <1>        0.000
      3 C3          2.9805   -0.1302    1.0907 C.3        1 <1>        0.000
      4 C4          4.1560    0.8547    0.8578 C.3        1 <1>        0.000
      5 C5          5.5284    0.1635    0.9983 C.3        1 <1>        0.000
      6 C6          5.6682   -0.4790    2.3920 C.3        1 <1>        0.000
      7 C7          4.5281   -1.4886    2.6229 C.3        1 <1>        0.000
      8 C15        -3.5095    0.6209   -0.5278 C.3        1 <1>        0.000
      9 C10         1.5775    0.4402    0.9385 C.2        1 <1>        0.000
     10 C11         1.3345    1.7223    0.6148 C.2        1 <1>        0.000
     11 C12        -0.0351    2.2786    0.3704 C.3        1 <1>        0.000
     12 C13        -1.0566    1.1904   -0.0411 C.3        1 <1>        0.000
     13 C14        -2.4981    1.7625   -0.2205 C.3        1 <1>        0.000
     14 C16        -3.4649   -0.4489    0.5819 C.3        1 <1>        0.000
     15 C17        -2.0502   -1.0357    0.7091 C.3        1 <1>        0.000
     16 C18        -0.9992    0.0620    1.0219 C.3        1 <1>        0.000
     17 C19         0.4342   -0.5393    1.1479 C.3        1 <1>        0.000
     18 C20         0.6297   -1.2245    2.5278 C.3        1 <1>        0.000
     19 C23        -4.9473    1.1619   -0.7069 C.3        1 <1>        0.000
     20 C24        -5.0055    2.2112   -1.8319 C.3        1 <1>        0.000
     21 C25        -4.0383    3.3681   -1.5192 C.3        1 <1>        0.000
     22 C26        -2.5974    2.8502   -1.3248 C.3        1 <1>        0.000
     23 H           2.1237   -2.6408    1.9027 H.spc      1 <1>        0.000
     24 H           2.1077   -2.2967    3.6657 H.spc      1 <1>        0.000
     25 H           3.0511   -0.0593    3.2443 H.spc      1 <1>        0.000
     26 H           3.0617   -0.8489    0.2752 H.spc      1 <1>        0.000
     27 H           4.0751    1.2473   -0.1558 H.spc      1 <1>        0.000
     28 H           4.0935    1.6425    1.6085 H.spc      1 <1>        0.000
     29 H           5.6127   -0.6144    0.2394 H.spc      1 <1>        0.000
     30 H           6.3146    0.9076    0.8706 H.spc      1 <1>        0.000
     31 H           6.6248   -0.9978    2.4535 H.spc      1 <1>        0.000
     32 H           5.6173    0.2999    3.1529 H.spc      1 <1>        0.000
     33 H           4.6148   -1.8791    3.6368 H.spc      1 <1>        0.000
     34 H           4.6136   -2.2800    1.8782 H.spc      1 <1>        0.000
     35 H          -3.2144    0.1619   -1.4714 H.spc      1 <1>        0.000
     36 H           2.1852    2.3978    0.5247 H.spc      1 <1>        0.000
     37 H          -0.3834    2.7310    1.2989 H.spc      1 <1>        0.000
     38 H           0.0361    2.9971   -0.4462 H.spc      1 <1>        0.000
     39 H          -0.7915    0.7902   -1.0197 H.spc      1 <1>        0.000
     40 H          -2.7480    2.2399    0.7270 H.spc      1 <1>        0.000
     41 H          -4.1588   -1.2504    0.3285 H.spc      1 <1>        0.000
     42 H          -3.7429    0.0126    1.5294 H.spc      1 <1>        0.000
     43 H          -1.7861   -1.5036   -0.2393 H.spc      1 <1>        0.000
     44 H          -2.0493   -1.7551    1.5279 H.spc      1 <1>        0.000
     45 H          -1.2449    0.5007    1.9890 H.spc      1 <1>        0.000
     46 H           0.4843   -1.2581    0.3300 H.spc      1 <1>        0.000
     47 H          -0.1200   -2.0098    2.6249 H.spc      1 <1>        0.000
     48 H           0.5323   -0.4623    3.3009 H.spc      1 <1>        0.000
     49 H          -5.2634    1.6304    0.2251 H.spc      1 <1>        0.000
     50 H          -5.6033    0.3317   -0.9686 H.spc      1 <1>        0.000
     51 H          -6.0204    2.6013   -1.9078 H.spc      1 <1>        0.000
     52 H          -4.7163    1.7451   -2.7739 H.spc      1 <1>        0.000
     53 H          -4.3616    3.8540   -0.5986 H.spc      1 <1>        0.000
     54 H          -4.0480    4.0668   -2.3558 H.spc      1 <1>        0.000
     55 H          -2.2711    2.4050   -2.2647 H.spc      1 <1>        0.000
     56 H          -1.9758    3.6930   -1.0226 H.spc      1 <1>        0.000
@<TRIPOS>BOND
     1   13    8 1  
     2   13   22 1  
     3    8   14 1  
     4   12   13 1  
     5    8   19 1  
     6   14   15 1  
     7   12   16 1  
     8   11   12 1  
     9   10   11 1  
    10    9   17 1  
    11   15   16 1  
    12    9   10 2  
    13    6    7 1  
    14   16   17 1  
    15    5    6 1  
    16   17   18 1  
    17    4    5 1  
    18    3    9 1  
    19    3    4 1  
    20    2    7 1  
    21    2    3 1  
    22   19   20 1  
    23    1   18 1  
    24    1    2 1  
    25   20   21 1  
    26   21   22 1  
    27    1   23 1  
    28    1   24 1  
    29    2   25 1  
    30    3   26 1  
    31    4   27 1  
    32    4   28 1  
    33    5   29 1  
    34    5   30 1  
    35    6   31 1  
    36    6   32 1  
    37    7   33 1  
    38    7   34 1  
    39    8   35 1  
    40   10   36 1  
    41   11   37 1  
    42   11   38 1  
    43   12   39 1  
    44   13   40 1  
    45   14   41 1  
    46   14   42 1  
    47   15   43 1  
    48   15   44 1  
    49   16   45 1  
    50   17   46 1  
    51   18   47 1  
    52   18   48 1  
    53   19   49 1  
    54   19   50 1  
    55   20   51 1  
    56   20   52 1  
    57   21   53 1  
    58   21   54 1  
    59   22   55 1  
    60   22   56 1  
