#      Rotatable Fragment
#      Build by yxyuan
#
# Name:          frag4-374-274/150395
# Creation time: Sat Jun  5 12:53:32 2010


@<TRIPOS>MOLECULE
frag4-374-274/150395
   11    11     1     1     1
SMALL
USER_CHARGES


@<TRIPOS>ATOM
      1 C10         2.2959    0.6430   -0.2981 C.3        1 <1>        0.000
      2 C11         2.1813    2.1097   -0.0835 C.3        1 <1>        0.000
      3 N2          3.7061    0.7425   -0.0992 N.3        1 <1>        0.000
      4 C12         3.6835    2.1424    0.1169 C.3        1 <1>        0.000
      5 H           1.8971    0.1848   -1.2032 H.spc      1 <1>        0.000
      6 H           1.7020   -0.0501    0.2978 H.spc      1 <1>        0.000
      7 H           1.5028    2.5196    0.6647 H.spc      1 <1>        0.000
      8 H           1.6956    2.7516   -0.8184 H.spc      1 <1>        0.000
      9 H           4.3132    0.3887   -0.8385 H.spc      1 <1>        0.000
     10 H           4.1180    2.5761    1.0176 H.spc      1 <1>        0.000
     11 H           4.3118    2.8094   -0.4734 H.spc      1 <1>        0.000
@<TRIPOS>BOND
     1    1    2 1  
     2    1    3 1  
     3    2    4 1  
     4    3    4 1  
     5    1    5 1  
     6    1    6 1  
     7    2    7 1  
     8    2    8 1  
     9    3    9 1  
    10    4   10 1  
    11    4   11 1  
# Name:          frag4-374-274/150395 -- energy: -0.427236
# Creation time: Sat Jun  5 12:53:32 2010


@<TRIPOS>MOLECULE
frag4-374-274/150395 -- energy: -0.427236
   11    11     1     1     1
SMALL
USER_CHARGES


@<TRIPOS>ATOM
      1 C10         2.2959    0.6430   -0.2981 C.3        1 <1>        0.000
      2 C11         2.1813    2.1097   -0.0835 C.3        1 <1>        0.000
      3 N2          3.7061    0.7425   -0.0992 N.3        1 <1>        0.000
      4 C12         3.6835    2.1424    0.1169 C.3        1 <1>        0.000
      5 H           1.8971    0.1848   -1.2032 H.spc      1 <1>        0.000
      6 H           1.7020   -0.0501    0.2978 H.spc      1 <1>        0.000
      7 H           1.5028    2.5196    0.6647 H.spc      1 <1>        0.000
      8 H           1.6956    2.7516   -0.8184 H.spc      1 <1>        0.000
      9 H           4.3132    0.3887   -0.8385 H.spc      1 <1>        0.000
     10 H           4.1180    2.5761    1.0176 H.spc      1 <1>        0.000
     11 H           4.3118    2.8094   -0.4734 H.spc      1 <1>        0.000
@<TRIPOS>BOND
     1    1    2 1  
     2    1    3 1  
     3    2    4 1  
     4    3    4 1  
     5    1    5 1  
     6    1    6 1  
     7    2    7 1  
     8    2    8 1  
     9    3    9 1  
    10    4   10 1  
    11    4   11 1  
