#      Rotatable Fragment
#      Build by yxyuan
#
# Name:          frag5-683-23/41815
# Creation time: Sat Jun  5 12:53:04 2010


@<TRIPOS>MOLECULE
frag5-683-23/41815
   55    55     1     1     1
SMALL
USER_CHARGES


@<TRIPOS>ATOM
      1 N1          0.2424    4.9324   -4.6049 N.am       1 <1>        0.000
      2 C1         -0.5920    4.2789   -3.6119 C.3        1 <1>        0.000
      3 C2         -0.3517    2.7847   -3.3905 C.2        1 <1>        0.000
      4 N2         -0.4776    2.2093   -2.1729 N.am       1 <1>        0.000
      5 C3         -0.7909    2.7414   -0.8683 C.3        1 <1>        0.000
      6 C4          0.3132    3.2862    0.0067 C.3        1 <1>        0.000
      7 C5          1.6736    2.6249    0.0095 C.3        1 <1>        0.000
      8 C6          1.7220    1.1259    0.2108 C.2        1 <1>        0.000
      9 C12         7.5706    4.4301   -1.4960 C.2        1 <1>        0.000
     10 N3          2.8937    0.4705    0.3453 N.am       1 <1>        0.000
     11 C7          4.2677    0.9239    0.3320 C.3        1 <1>        0.000
     12 C8          5.0721    0.3254    1.4863 C.2        1 <1>        0.000
     13 N4          6.4221    0.2859    1.5027 N.am       1 <1>        0.000
     14 C9          7.4146    0.7704    0.5759 C.3        1 <1>        0.000
     15 C10         7.8550    2.2037    0.9443 C.2        1 <1>        0.000
     16 N5          8.5364    2.9000   -0.0094 N.am       1 <1>        0.000
     17 C11         8.4178    4.3202   -0.2248 C.3        1 <1>        0.000
     18 O6          0.6713    0.4756    0.2385 O.2        1 <1>        0.000
     19 N6          6.6987    5.4548   -1.6667 N.am       1 <1>        0.000
     20 C13         5.8676    5.6199   -2.8318 C.3        1 <1>        0.000
     21 C14         4.4818    4.9787   -2.6776 C.2        1 <1>        0.000
     22 N7          3.8295    4.6059   -3.8158 N.am       1 <1>        0.000
     23 C15         2.5042    4.0526   -3.9050 C.3        1 <1>        0.000
     24 C16         1.5857    4.9425   -4.7597 C.2        1 <1>        0.000
     25 O1          2.0899    5.6762   -5.6242 O.2        1 <1>        0.000
     26 O2          3.9817    4.8496   -1.5533 O.2        1 <1>        0.000
     27 O3          7.6867    3.5529   -2.3633 O.2        1 <1>        0.000
     28 O4          7.5683    2.7131    2.0302 O.2        1 <1>        0.000
     29 O5          4.4731   -0.1432    2.4624 O.2        1 <1>        0.000
     30 O12        -0.0365    2.0816   -4.3499 O.2        1 <1>        0.000
     31 H          -0.2700    5.4737   -5.3012 H.spc      1 <1>        0.000
     32 H          -0.3652    4.7638   -2.6624 H.spc      1 <1>        0.000
     33 H          -1.6162    4.3683   -3.9739 H.spc      1 <1>        0.000
     34 H          -0.3202    1.2015   -2.1776 H.spc      1 <1>        0.000
     35 H          -1.4299    3.6012   -1.0697 H.spc      1 <1>        0.000
     36 H          -1.1853    1.8903   -0.3131 H.spc      1 <1>        0.000
     37 H           0.4984    4.2879   -0.3811 H.spc      1 <1>        0.000
     38 H          -0.0556    3.1542    1.0239 H.spc      1 <1>        0.000
     39 H           2.0871    2.8008   -0.9835 H.spc      1 <1>        0.000
     40 H           2.2055    3.0522    0.8596 H.spc      1 <1>        0.000
     41 H           2.7915   -0.5351    0.4823 H.spc      1 <1>        0.000
     42 H           4.7247    0.6072   -0.6055 H.spc      1 <1>        0.000
     43 H           4.2723    2.0089    0.4366 H.spc      1 <1>        0.000
     44 H           6.8130   -0.1730    2.3255 H.spc      1 <1>        0.000
     45 H           8.2839    0.1141    0.6168 H.spc      1 <1>        0.000
     46 H           6.9848    0.7812   -0.4257 H.spc      1 <1>        0.000
     47 H           9.1742    2.3800   -0.6121 H.spc      1 <1>        0.000
     48 H           9.3881    4.8054   -0.3306 H.spc      1 <1>        0.000
     49 H           7.9607    4.8308    0.6228 H.spc      1 <1>        0.000
     50 H           6.6270    6.1511   -0.9248 H.spc      1 <1>        0.000
     51 H           6.3679    5.1311   -3.6678 H.spc      1 <1>        0.000
     52 H           5.7228    6.6890   -2.9868 H.spc      1 <1>        0.000
     53 H           4.3327    4.7323   -4.6940 H.spc      1 <1>        0.000
     54 H           2.0869    3.9858   -2.9003 H.spc      1 <1>        0.000
     55 H           2.5684    3.0696   -4.3717 H.spc      1 <1>        0.000
@<TRIPOS>BOND
     1   16   17 1  
     2   15   28 2  
     3   15   16 am 
     4   14   15 1  
     5   12   13 am 
     6   17    9 1  
     7    9   19 am 
     8   12   29 2  
     9   13   14 1  
    10    9   27 2  
    11   19   20 1  
    12   11   12 1  
    13   10   11 1  
    14    8   18 2  
    15    8   10 am 
    16    7    8 1  
    17   20   21 1  
    18   21   22 am 
    19    6    7 1  
    20   21   26 2  
    21    5    6 1  
    22   22   23 1  
    23    4    5 1  
    24    3   30 2  
    25    3    4 am 
    26    2    3 1  
    27   23   24 1  
    28    1   24 am 
    29   24   25 2  
    30    1    2 1  
    31    1   31 1  
    32    2   32 1  
    33    2   33 1  
    34    4   34 1  
    35    5   35 1  
    36    5   36 1  
    37    6   37 1  
    38    6   38 1  
    39    7   39 1  
    40    7   40 1  
    41   10   41 1  
    42   11   42 1  
    43   11   43 1  
    44   13   44 1  
    45   14   45 1  
    46   14   46 1  
    47   16   47 1  
    48   17   48 1  
    49   17   49 1  
    50   19   50 1  
    51   20   51 1  
    52   20   52 1  
    53   22   53 1  
    54   23   54 1  
    55   23   55 1  
# Name:          frag5-683-23/41815
# Creation time: Sat Jun  5 12:53:04 2010


@<TRIPOS>MOLECULE
frag5-683-23/41815
   55    55     1     1     1
SMALL
USER_CHARGES


@<TRIPOS>ATOM
      1 N1          2.0776    4.1942   -3.9367 N.am       1 <1>        0.000
      2 C1          1.4496    2.9573   -4.3194 C.3        1 <1>        0.000
      3 C2          0.1555    2.7847   -3.5347 C.2        1 <1>        0.000
      4 N2          0.0273    1.9140   -2.5046 N.am       1 <1>        0.000
      5 C3          0.9829    1.0081   -1.9258 C.3        1 <1>        0.000
      6 C4          0.5607   -0.0306   -0.9196 C.3        1 <1>        0.000
      7 C5          0.3692    0.3608    0.5160 C.3        1 <1>        0.000
      8 C6          1.6027    0.8962    1.2182 C.2        1 <1>        0.000
      9 C12         7.6232    4.5028   -1.8719 C.2        1 <1>        0.000
     10 N3          2.3339    0.0520    2.0089 N.am       1 <1>        0.000
     11 C7          3.2835    0.5002    3.0119 C.3        1 <1>        0.000
     12 C8          4.5229    1.2735    2.5493 C.2        1 <1>        0.000
     13 N4          5.1574    0.9834    1.3752 N.am       1 <1>        0.000
     14 C9          6.2817    1.7604    0.9277 C.3        1 <1>        0.000
     15 C10         6.9642    1.3418   -0.3569 C.2        1 <1>        0.000
     16 N5          7.7801    2.2009   -1.0197 N.am       1 <1>        0.000
     17 C11         8.1178    3.5839   -0.7478 C.3        1 <1>        0.000
     18 O6          1.9006    2.0778    1.0466 O.2        1 <1>        0.000
     19 N6          6.7248    5.4737   -1.5676 N.am       1 <1>        0.000
     20 C13         6.1169    6.3753   -2.5088 C.3        1 <1>        0.000
     21 C14         4.6998    5.9097   -2.8792 C.2        1 <1>        0.000
     22 N7          3.9228    6.7260   -3.6526 N.am       1 <1>        0.000
     23 C15         2.4813    6.6547   -3.8261 C.3        1 <1>        0.000
     24 C16         1.9111    5.4081   -4.5334 C.2        1 <1>        0.000
     25 O1          1.3012    5.5663   -5.5832 O.2        1 <1>        0.000
     26 O2          4.2553    4.8342   -2.4626 O.2        1 <1>        0.000
     27 O3          8.0381    4.3321   -3.0256 O.2        1 <1>        0.000
     28 O4          6.7977    0.1933   -0.7807 O.2        1 <1>        0.000
     29 O5          4.9823    2.1362    3.3119 O.2        1 <1>        0.000
     30 O12        -0.8309    3.5031   -3.7903 O.2        1 <1>        0.000
     31 H           2.7113    4.1588   -3.1382 H.spc      1 <1>        0.000
     32 H           1.2291    2.9754   -5.3867 H.spc      1 <1>        0.000
     33 H           2.1205    2.1258   -4.1035 H.spc      1 <1>        0.000
     34 H          -0.8952    1.8984   -2.0696 H.spc      1 <1>        0.000
     35 H           1.3389    0.4235   -2.7741 H.spc      1 <1>        0.000
     36 H           1.6565    1.6577   -1.3669 H.spc      1 <1>        0.000
     37 H          -0.4270   -0.3502   -1.2519 H.spc      1 <1>        0.000
     38 H           1.3821   -0.7469   -0.9024 H.spc      1 <1>        0.000
     39 H          -0.3652    1.1662    0.5224 H.spc      1 <1>        0.000
     40 H           0.0782   -0.5449    1.0481 H.spc      1 <1>        0.000
     41 H           2.2041   -0.9523    1.8864 H.spc      1 <1>        0.000
     42 H           2.7287    1.1985    3.6385 H.spc      1 <1>        0.000
     43 H           3.6695   -0.4118    3.4673 H.spc      1 <1>        0.000
     44 H           4.8285    0.2031    0.8066 H.spc      1 <1>        0.000
     45 H           5.8870    2.7580    0.7351 H.spc      1 <1>        0.000
     46 H           7.0371    1.6532    1.7062 H.spc      1 <1>        0.000
     47 H           8.2302    1.8078   -1.8463 H.spc      1 <1>        0.000
     48 H           9.2020    3.6713   -0.6767 H.spc      1 <1>        0.000
     49 H           7.6391    3.8836    0.1845 H.spc      1 <1>        0.000
     50 H           6.4581    5.5722   -0.5880 H.spc      1 <1>        0.000
     51 H           6.7250    6.3998   -3.4131 H.spc      1 <1>        0.000
     52 H           6.0531    7.3644   -2.0552 H.spc      1 <1>        0.000
     53 H           4.4066    7.4648   -4.1630 H.spc      1 <1>        0.000
     54 H           2.2200    7.4994   -4.4635 H.spc      1 <1>        0.000
     55 H           2.0647    6.6374   -2.8190 H.spc      1 <1>        0.000
@<TRIPOS>BOND
     1   16   17 1  
     2   15   28 2  
     3   15   16 am 
     4   14   15 1  
     5   12   13 am 
     6   17    9 1  
     7    9   19 am 
     8   12   29 2  
     9   13   14 1  
    10    9   27 2  
    11   19   20 1  
    12   11   12 1  
    13   10   11 1  
    14    8   18 2  
    15    8   10 am 
    16    7    8 1  
    17   20   21 1  
    18   21   22 am 
    19    6    7 1  
    20   21   26 2  
    21    5    6 1  
    22   22   23 1  
    23    4    5 1  
    24    3   30 2  
    25    3    4 am 
    26    2    3 1  
    27   23   24 1  
    28    1   24 am 
    29   24   25 2  
    30    1    2 1  
    31    1   31 1  
    32    2   32 1  
    33    2   33 1  
    34    4   34 1  
    35    5   35 1  
    36    5   36 1  
    37    6   37 1  
    38    6   38 1  
    39    7   39 1  
    40    7   40 1  
    41   10   41 1  
    42   11   42 1  
    43   11   43 1  
    44   13   44 1  
    45   14   45 1  
    46   14   46 1  
    47   16   47 1  
    48   17   48 1  
    49   17   49 1  
    50   19   50 1  
    51   20   51 1  
    52   20   52 1  
    53   22   53 1  
    54   23   54 1  
    55   23   55 1  
# Name:          frag5-683-23/41815
# Creation time: Sat Jun  5 12:53:04 2010


@<TRIPOS>MOLECULE
frag5-683-23/41815
   55    55     1     1     1
SMALL
USER_CHARGES


@<TRIPOS>ATOM
      1 N1          0.8104    5.2333   -3.0507 N.am       1 <1>        0.000
      2 C1          0.0367    4.5176   -2.0604 C.3        1 <1>        0.000
      3 C2         -0.0085    3.0790   -2.5964 C.2        1 <1>        0.000
      4 N2         -0.6358    2.0958   -1.8918 N.am       1 <1>        0.000
      5 C3         -0.6410    0.7239   -2.3115 C.3        1 <1>        0.000
      6 C4          0.3467   -0.2465   -1.7186 C.3        1 <1>        0.000
      7 C5          0.1387   -0.6407   -0.2797 C.3        1 <1>        0.000
      8 C6          0.7950    0.1428    0.8379 C.2        1 <1>        0.000
      9 C12         8.3953    4.3992   -2.0679 C.2        1 <1>        0.000
     10 N3          1.9547    0.8126    0.6450 N.am       1 <1>        0.000
     11 C7          2.7425    1.4079    1.6930 C.3        1 <1>        0.000
     12 C8          4.0452    1.9943    1.1752 C.2        1 <1>        0.000
     13 N4          5.1066    2.1376    2.0040 N.am       1 <1>        0.000
     14 C9          6.2533    2.9569    1.7235 C.3        1 <1>        0.000
     15 C10         7.3100    2.3913    0.7674 C.2        1 <1>        0.000
     16 N5          7.4215    3.0141   -0.4340 N.am       1 <1>        0.000
     17 C11         8.5983    3.1141   -1.2822 C.3        1 <1>        0.000
     18 O6          0.2532    0.1054    1.9480 O.2        1 <1>        0.000
     19 N6          7.3749    4.3737   -2.9853 N.am       1 <1>        0.000
     20 C13         6.7410    5.4836   -3.6404 C.3        1 <1>        0.000
     21 C14         5.3749    4.9638   -4.0808 C.2        1 <1>        0.000
     22 N7          4.3030    5.8051   -4.1241 N.am       1 <1>        0.000
     23 C15         2.9457    5.3480   -4.3256 C.3        1 <1>        0.000
     24 C16         2.1775    5.2754   -2.9956 C.2        1 <1>        0.000
     25 O1          2.7838    5.1948   -1.9190 O.2        1 <1>        0.000
     26 O2          5.2757    3.7678   -4.3868 O.2        1 <1>        0.000
     27 O3          9.0558    5.3958   -1.8441 O.2        1 <1>        0.000
     28 O4          8.0156    1.4461    1.1137 O.2        1 <1>        0.000
     29 O5          4.0976    2.3601   -0.0019 O.2        1 <1>        0.000
     30 O12         0.5227    2.8211   -3.6922 O.2        1 <1>        0.000
     31 H           0.3267    5.7175   -3.8070 H.spc      1 <1>        0.000
     32 H           0.4811    4.5755   -1.0668 H.spc      1 <1>        0.000
     33 H          -0.9587    4.9413   -1.9272 H.spc      1 <1>        0.000
     34 H          -1.1217    2.3455   -1.0304 H.spc      1 <1>        0.000
     35 H          -1.6152    0.3466   -2.0004 H.spc      1 <1>        0.000
     36 H          -0.3855    0.7611   -3.3705 H.spc      1 <1>        0.000
     37 H           0.2448   -1.1651   -2.2965 H.spc      1 <1>        0.000
     38 H           1.3138    0.2551   -1.7529 H.spc      1 <1>        0.000
     39 H          -0.9292   -0.4975   -0.1151 H.spc      1 <1>        0.000
     40 H           0.5838   -1.6331   -0.2075 H.spc      1 <1>        0.000
     41 H           2.2956    0.9023   -0.3122 H.spc      1 <1>        0.000
     42 H           2.1604    2.2165    2.1350 H.spc      1 <1>        0.000
     43 H           2.9865    0.6293    2.4157 H.spc      1 <1>        0.000
     44 H           5.0910    1.6290    2.8880 H.spc      1 <1>        0.000
     45 H           5.8636    3.8500    1.2351 H.spc      1 <1>        0.000
     46 H           6.7616    3.0874    2.6788 H.spc      1 <1>        0.000
     47 H           6.5772    3.4668   -0.7840 H.spc      1 <1>        0.000
     48 H           8.7044    2.2486   -1.9362 H.spc      1 <1>        0.000
     49 H           9.5199    3.1329   -0.7005 H.spc      1 <1>        0.000
     50 H           7.0220    3.4494   -3.2333 H.spc      1 <1>        0.000
     51 H           7.3279    5.8381   -4.4878 H.spc      1 <1>        0.000
     52 H           6.6485    6.3425   -2.9758 H.spc      1 <1>        0.000
     53 H           4.4662    6.8053   -4.0088 H.spc      1 <1>        0.000
     54 H           2.9769    4.3502   -4.7632 H.spc      1 <1>        0.000
     55 H           2.4361    6.0528   -4.9827 H.spc      1 <1>        0.000
@<TRIPOS>BOND
     1   16   17 1  
     2   15   28 2  
     3   15   16 am 
     4   14   15 1  
     5   12   13 am 
     6   17    9 1  
     7    9   19 am 
     8   12   29 2  
     9   13   14 1  
    10    9   27 2  
    11   19   20 1  
    12   11   12 1  
    13   10   11 1  
    14    8   18 2  
    15    8   10 am 
    16    7    8 1  
    17   20   21 1  
    18   21   22 am 
    19    6    7 1  
    20   21   26 2  
    21    5    6 1  
    22   22   23 1  
    23    4    5 1  
    24    3   30 2  
    25    3    4 am 
    26    2    3 1  
    27   23   24 1  
    28    1   24 am 
    29   24   25 2  
    30    1    2 1  
    31    1   31 1  
    32    2   32 1  
    33    2   33 1  
    34    4   34 1  
    35    5   35 1  
    36    5   36 1  
    37    6   37 1  
    38    6   38 1  
    39    7   39 1  
    40    7   40 1  
    41   10   41 1  
    42   11   42 1  
    43   11   43 1  
    44   13   44 1  
    45   14   45 1  
    46   14   46 1  
    47   16   47 1  
    48   17   48 1  
    49   17   49 1  
    50   19   50 1  
    51   20   51 1  
    52   20   52 1  
    53   22   53 1  
    54   23   54 1  
    55   23   55 1  
# Name:          frag5-683-23/41815
# Creation time: Sat Jun  5 12:53:04 2010


@<TRIPOS>MOLECULE
frag5-683-23/41815
   55    55     1     1     1
SMALL
USER_CHARGES


@<TRIPOS>ATOM
      1 N1          2.5139    3.2148   -1.7191 N.am       1 <1>        0.000
      2 C1          1.8187    2.5302   -2.7853 C.3        1 <1>        0.000
      3 C2          0.3796    3.0288   -2.8549 C.2        1 <1>        0.000
      4 N2         -0.6765    2.2277   -2.5746 N.am       1 <1>        0.000
      5 C3         -0.7107    0.8660   -2.1458 C.3        1 <1>        0.000
      6 C4         -0.7258    0.5153   -0.6858 C.3        1 <1>        0.000
      7 C5          0.3562    1.0120    0.2313 C.3        1 <1>        0.000
      8 C6          1.7581    0.4738   -0.0042 C.2        1 <1>        0.000
      9 C12         7.1619    4.3786   -2.8261 C.2        1 <1>        0.000
     10 N3          2.8431    0.9346    0.6525 N.am       1 <1>        0.000
     11 C7          2.9679    1.8992    1.7213 C.3        1 <1>        0.000
     12 C8          4.1973    1.6183    2.5855 C.2        1 <1>        0.000
     13 N4          5.4656    1.7828    2.1348 N.am       1 <1>        0.000
     14 C9          5.9750    2.4769    0.9757 C.3        1 <1>        0.000
     15 C10         6.0356    1.7496   -0.3741 C.2        1 <1>        0.000
     16 N5          6.6042    2.3606   -1.4452 N.am       1 <1>        0.000
     17 C11         7.1900    3.6797   -1.4840 C.3        1 <1>        0.000
     18 O6          1.9229   -0.4066   -0.8569 O.2        1 <1>        0.000
     19 N6          7.3422    5.7409   -2.8169 N.am       1 <1>        0.000
     20 C13         6.8621    6.6044   -3.8658 C.3        1 <1>        0.000
     21 C14         5.3738    6.3802   -4.0949 C.2        1 <1>        0.000
     22 N7          4.6422    5.9646   -3.0161 N.am       1 <1>        0.000
     23 C15         3.5473    5.0372   -3.0974 C.3        1 <1>        0.000
     24 C16         3.3059    4.3085   -1.7711 C.2        1 <1>        0.000
     25 O1          3.8438    4.7121   -0.7301 O.2        1 <1>        0.000
     26 O2          4.8897    6.5834   -5.2086 O.2        1 <1>        0.000
     27 O3          6.9245    3.7372   -3.8468 O.2        1 <1>        0.000
     28 O4          5.5687    0.6128   -0.4970 O.2        1 <1>        0.000
     29 O5          4.0328    1.2346    3.7511 O.2        1 <1>        0.000
     30 O12         0.1811    4.2157   -3.1330 O.2        1 <1>        0.000
     31 H           2.3882    2.8130   -0.7900 H.spc      1 <1>        0.000
     32 H           2.3190    2.7302   -3.7328 H.spc      1 <1>        0.000
     33 H           1.8229    1.4575   -2.5921 H.spc      1 <1>        0.000
     34 H          -1.5906    2.6660   -2.6876 H.spc      1 <1>        0.000
     35 H          -1.6666    0.4960   -2.5165 H.spc      1 <1>        0.000
     36 H           0.2301    0.4512   -2.5076 H.spc      1 <1>        0.000
     37 H          -1.6339    0.9846   -0.3072 H.spc      1 <1>        0.000
     38 H          -0.6135   -0.5688   -0.6698 H.spc      1 <1>        0.000
     39 H           0.4177    2.0875    0.0653 H.spc      1 <1>        0.000
     40 H           0.0742    0.6827    1.2314 H.spc      1 <1>        0.000
     41 H           3.7274    0.5329    0.3409 H.spc      1 <1>        0.000
     42 H           3.0730    2.8911    1.2818 H.spc      1 <1>        0.000
     43 H           2.0803    1.8351    2.3508 H.spc      1 <1>        0.000
     44 H           6.1810    1.3414    2.7125 H.spc      1 <1>        0.000
     45 H           5.2768    3.2986    0.8162 H.spc      1 <1>        0.000
     46 H           7.0147    2.6958    1.2190 H.spc      1 <1>        0.000
     47 H           6.6191    1.8304   -2.3165 H.spc      1 <1>        0.000
     48 H           8.2416    3.5554   -1.2255 H.spc      1 <1>        0.000
     49 H           6.6009    4.2964   -0.8052 H.spc      1 <1>        0.000
     50 H           7.8390    6.1603   -2.0310 H.spc      1 <1>        0.000
     51 H           7.4016    6.3803   -4.7861 H.spc      1 <1>        0.000
     52 H           7.0250    7.6422   -3.5749 H.spc      1 <1>        0.000
     53 H           4.8888    6.3354   -2.0985 H.spc      1 <1>        0.000
     54 H           3.7900    4.2916   -3.8546 H.spc      1 <1>        0.000
     55 H           2.6459    5.5977   -3.3452 H.spc      1 <1>        0.000
@<TRIPOS>BOND
     1   16   17 1  
     2   15   28 2  
     3   15   16 am 
     4   14   15 1  
     5   12   13 am 
     6   17    9 1  
     7    9   19 am 
     8   12   29 2  
     9   13   14 1  
    10    9   27 2  
    11   19   20 1  
    12   11   12 1  
    13   10   11 1  
    14    8   18 2  
    15    8   10 am 
    16    7    8 1  
    17   20   21 1  
    18   21   22 am 
    19    6    7 1  
    20   21   26 2  
    21    5    6 1  
    22   22   23 1  
    23    4    5 1  
    24    3   30 2  
    25    3    4 am 
    26    2    3 1  
    27   23   24 1  
    28    1   24 am 
    29   24   25 2  
    30    1    2 1  
    31    1   31 1  
    32    2   32 1  
    33    2   33 1  
    34    4   34 1  
    35    5   35 1  
    36    5   36 1  
    37    6   37 1  
    38    6   38 1  
    39    7   39 1  
    40    7   40 1  
    41   10   41 1  
    42   11   42 1  
    43   11   43 1  
    44   13   44 1  
    45   14   45 1  
    46   14   46 1  
    47   16   47 1  
    48   17   48 1  
    49   17   49 1  
    50   19   50 1  
    51   20   51 1  
    52   20   52 1  
    53   22   53 1  
    54   23   54 1  
    55   23   55 1  
# Name:          frag5-683-23/41815
# Creation time: Sat Jun  5 12:53:04 2010


@<TRIPOS>MOLECULE
frag5-683-23/41815
   55    55     1     1     1
SMALL
USER_CHARGES


@<TRIPOS>ATOM
      1 N1          1.0361    4.9708   -3.0092 N.am       1 <1>        0.000
      2 C1          1.4968    5.1441   -1.6397 C.3        1 <1>        0.000
      3 C2          2.1443    4.0459   -0.7542 C.2        1 <1>        0.000
      4 N2          2.4582    2.7717   -1.0467 N.am       1 <1>        0.000
      5 C3          2.3589    1.9319   -2.2007 C.3        1 <1>        0.000
      6 C4          1.0526    1.2368   -2.4960 C.3        1 <1>        0.000
      7 C5          0.5941    0.1085   -1.6008 C.3        1 <1>        0.000
      8 C6          1.0255    0.1962   -0.1577 C.2        1 <1>        0.000
      9 C12         6.0407    4.6913   -1.7191 C.2        1 <1>        0.000
     10 N3          2.2900   -0.1741    0.1925 N.am       1 <1>        0.000
     11 C7          2.9041    0.1311    1.4551 C.3        1 <1>        0.000
     12 C8          4.3826    0.4794    1.2906 C.2        1 <1>        0.000
     13 N4          4.9238    1.4084    2.1236 N.am       1 <1>        0.000
     14 C9          6.3289    1.6483    2.3312 C.3        1 <1>        0.000
     15 C10         6.9452    2.6884    1.4039 C.2        1 <1>        0.000
     16 N5          6.2599    3.2127    0.3398 N.am       1 <1>        0.000
     17 C11         6.8591    4.2000   -0.5246 C.3        1 <1>        0.000
     18 O6          0.2215    0.6480    0.6524 O.2        1 <1>        0.000
     19 N6          6.5389    4.4749   -2.9682 N.am       1 <1>        0.000
     20 C13         6.0228    4.9660   -4.2157 C.3        1 <1>        0.000
     21 C14         4.9260    4.0454   -4.7097 C.2        1 <1>        0.000
     22 N7          3.6434    4.4422   -4.7713 N.am       1 <1>        0.000
     23 C15         3.0371    5.6832   -4.3751 C.3        1 <1>        0.000
     24 C16         1.5652    5.4300   -4.1629 C.2        1 <1>        0.000
     25 O1          0.8083    5.6310   -5.1236 O.2        1 <1>        0.000
     26 O2          5.2042    2.8845   -5.0348 O.2        1 <1>        0.000
     27 O3          4.9683    5.2729   -1.5444 O.2        1 <1>        0.000
     28 O4          8.1040    3.0307    1.6481 O.2        1 <1>        0.000
     29 O5          5.0417   -0.0994    0.4196 O.2        1 <1>        0.000
     30 O12         2.4087    4.3731    0.4162 O.2        1 <1>        0.000
     31 H           0.1846    4.4189   -3.1129 H.spc      1 <1>        0.000
     32 H           2.3195    5.8481   -1.7650 H.spc      1 <1>        0.000
     33 H           0.5645    5.3411   -1.1105 H.spc      1 <1>        0.000
     34 H           2.8678    2.2839   -0.2501 H.spc      1 <1>        0.000
     35 H           2.5163    2.6009   -3.0468 H.spc      1 <1>        0.000
     36 H           3.0695    1.1252   -2.0205 H.spc      1 <1>        0.000
     37 H           0.2937    2.0104   -2.3785 H.spc      1 <1>        0.000
     38 H           1.1985    0.7748   -3.4724 H.spc      1 <1>        0.000
     39 H          -0.4954    0.1417   -1.5983 H.spc      1 <1>        0.000
     40 H           1.0413   -0.8017   -2.0003 H.spc      1 <1>        0.000
     41 H           2.8365   -0.7031   -0.4871 H.spc      1 <1>        0.000
     42 H           2.3933    0.9913    1.8879 H.spc      1 <1>        0.000
     43 H           2.8259   -0.7460    2.0975 H.spc      1 <1>        0.000
     44 H           4.2731    1.9903    2.6513 H.spc      1 <1>        0.000
     45 H           6.4378    2.0271    3.3474 H.spc      1 <1>        0.000
     46 H           6.8423    0.7069    2.1354 H.spc      1 <1>        0.000
     47 H           5.3072    2.8988    0.1551 H.spc      1 <1>        0.000
     48 H           7.7379    3.7176   -0.9524 H.spc      1 <1>        0.000
     49 H           7.0164    5.0782    0.1016 H.spc      1 <1>        0.000
     50 H           7.3769    3.8961   -3.0245 H.spc      1 <1>        0.000
     51 H           6.8261    4.9998   -4.9517 H.spc      1 <1>        0.000
     52 H           5.6172    5.9673   -4.0707 H.spc      1 <1>        0.000
     53 H           2.9989    3.7541   -5.1606 H.spc      1 <1>        0.000
     54 H           3.1837    6.4393   -5.1464 H.spc      1 <1>        0.000
     55 H           3.4941    6.0514   -3.4566 H.spc      1 <1>        0.000
@<TRIPOS>BOND
     1   16   17 1  
     2   15   28 2  
     3   15   16 am 
     4   14   15 1  
     5   12   13 am 
     6   17    9 1  
     7    9   19 am 
     8   12   29 2  
     9   13   14 1  
    10    9   27 2  
    11   19   20 1  
    12   11   12 1  
    13   10   11 1  
    14    8   18 2  
    15    8   10 am 
    16    7    8 1  
    17   20   21 1  
    18   21   22 am 
    19    6    7 1  
    20   21   26 2  
    21    5    6 1  
    22   22   23 1  
    23    4    5 1  
    24    3   30 2  
    25    3    4 am 
    26    2    3 1  
    27   23   24 1  
    28    1   24 am 
    29   24   25 2  
    30    1    2 1  
    31    1   31 1  
    32    2   32 1  
    33    2   33 1  
    34    4   34 1  
    35    5   35 1  
    36    5   36 1  
    37    6   37 1  
    38    6   38 1  
    39    7   39 1  
    40    7   40 1  
    41   10   41 1  
    42   11   42 1  
    43   11   43 1  
    44   13   44 1  
    45   14   45 1  
    46   14   46 1  
    47   16   47 1  
    48   17   48 1  
    49   17   49 1  
    50   19   50 1  
    51   20   51 1  
    52   20   52 1  
    53   22   53 1  
    54   23   54 1  
    55   23   55 1  
# Name:          frag5-683-23/41815
# Creation time: Sat Jun  5 12:53:04 2010


@<TRIPOS>MOLECULE
frag5-683-23/41815
   55    55     1     1     1
SMALL
USER_CHARGES


@<TRIPOS>ATOM
      1 N1          1.4357    3.5801   -4.5339 N.am       1 <1>        0.000
      2 C1          1.6078    2.5330   -3.5756 C.3        1 <1>        0.000
      3 C2          0.3763    1.6904   -3.2009 C.2        1 <1>        0.000
      4 N2         -0.3867    1.9374   -2.1100 N.am       1 <1>        0.000
      5 C3         -0.5261    3.0834   -1.2571 C.3        1 <1>        0.000
      6 C4          0.3351    3.3826   -0.0677 C.3        1 <1>        0.000
      7 C5          0.4918    2.3495    1.0107 C.3        1 <1>        0.000
      8 C6          1.8561    2.3547    1.6317 C.2        1 <1>        0.000
      9 C12         6.6855    4.8721   -0.3235 C.2        1 <1>        0.000
     10 N3          2.9450    1.8970    0.9839 N.am       1 <1>        0.000
     11 C7          3.0628    1.2899   -0.3201 C.3        1 <1>        0.000
     12 C8          4.3448    0.4765   -0.3810 C.2        1 <1>        0.000
     13 N4          5.4834    1.1830   -0.6357 N.am       1 <1>        0.000
     14 C9          6.8372    0.7515   -0.4326 C.3        1 <1>        0.000
     15 C10         7.6481    1.9209    0.0901 C.2        1 <1>        0.000
     16 N5          6.9303    2.8764    0.7618 N.am       1 <1>        0.000
     17 C11         7.3459    4.2345    0.8860 C.3        1 <1>        0.000
     18 O6          1.9756    2.8077    2.7713 O.2        1 <1>        0.000
     19 N6          7.1219    4.5280   -1.5768 N.am       1 <1>        0.000
     20 C13         6.5363    4.9814   -2.8105 C.3        1 <1>        0.000
     21 C14         5.0595    4.5517   -2.9232 C.2        1 <1>        0.000
     22 N7          4.1545    5.4194   -3.4669 N.am       1 <1>        0.000
     23 C15         2.7249    5.3772   -3.3403 C.3        1 <1>        0.000
     24 C16         1.9857    4.8169   -4.5516 C.2        1 <1>        0.000
     25 O1          1.8981    5.5020   -5.5749 O.2        1 <1>        0.000
     26 O2          4.7172    3.4398   -2.4918 O.2        1 <1>        0.000
     27 O3          5.7182    5.6178   -0.1445 O.2        1 <1>        0.000
     28 O4          8.8573    1.9934   -0.1387 O.2        1 <1>        0.000
     29 O5          4.3351   -0.7229   -0.1325 O.2        1 <1>        0.000
     30 O12         0.0336    0.7487   -3.9269 O.2        1 <1>        0.000
     31 H           0.8121    3.3654   -5.3120 H.spc      1 <1>        0.000
     32 H           2.3091    1.8345   -4.0321 H.spc      1 <1>        0.000
     33 H           1.9102    3.0302   -2.6540 H.spc      1 <1>        0.000
     34 H          -0.9806    1.1531   -1.8407 H.spc      1 <1>        0.000
     35 H          -0.2832    3.9047   -1.9313 H.spc      1 <1>        0.000
     36 H          -1.5013    2.9148   -0.8003 H.spc      1 <1>        0.000
     37 H           1.3374    3.5094   -0.4769 H.spc      1 <1>        0.000
     38 H          -0.1546    4.2233    0.4238 H.spc      1 <1>        0.000
     39 H          -0.2311    2.5751    1.7947 H.spc      1 <1>        0.000
     40 H           0.3364    1.3702    0.5580 H.spc      1 <1>        0.000
     41 H           3.8226    1.9947    1.4944 H.spc      1 <1>        0.000
     42 H           2.2078    0.6375   -0.4976 H.spc      1 <1>        0.000
     43 H           3.0871    2.0673   -1.0838 H.spc      1 <1>        0.000
     44 H           5.3589    2.1227   -1.0125 H.spc      1 <1>        0.000
     45 H           6.8606   -0.0662    0.2878 H.spc      1 <1>        0.000
     46 H           7.2588    0.4007   -1.3746 H.spc      1 <1>        0.000
     47 H           6.0500    2.6003    1.1969 H.spc      1 <1>        0.000
     48 H           8.4288    4.3570    0.9040 H.spc      1 <1>        0.000
     49 H           7.0548    4.6927    1.8312 H.spc      1 <1>        0.000
     50 H           7.9244    3.9016   -1.6396 H.spc      1 <1>        0.000
     51 H           7.0897    4.5399   -3.6393 H.spc      1 <1>        0.000
     52 H           6.5832    6.0701   -2.8365 H.spc      1 <1>        0.000
     53 H           4.5375    6.1824   -4.0251 H.spc      1 <1>        0.000
     54 H           2.3898    6.4070   -3.2162 H.spc      1 <1>        0.000
     55 H           2.5029    4.7157   -2.5029 H.spc      1 <1>        0.000
@<TRIPOS>BOND
     1   16   17 1  
     2   15   28 2  
     3   15   16 am 
     4   14   15 1  
     5   12   13 am 
     6   17    9 1  
     7    9   19 am 
     8   12   29 2  
     9   13   14 1  
    10    9   27 2  
    11   19   20 1  
    12   11   12 1  
    13   10   11 1  
    14    8   18 2  
    15    8   10 am 
    16    7    8 1  
    17   20   21 1  
    18   21   22 am 
    19    6    7 1  
    20   21   26 2  
    21    5    6 1  
    22   22   23 1  
    23    4    5 1  
    24    3   30 2  
    25    3    4 am 
    26    2    3 1  
    27   23   24 1  
    28    1   24 am 
    29   24   25 2  
    30    1    2 1  
    31    1   31 1  
    32    2   32 1  
    33    2   33 1  
    34    4   34 1  
    35    5   35 1  
    36    5   36 1  
    37    6   37 1  
    38    6   38 1  
    39    7   39 1  
    40    7   40 1  
    41   10   41 1  
    42   11   42 1  
    43   11   43 1  
    44   13   44 1  
    45   14   45 1  
    46   14   46 1  
    47   16   47 1  
    48   17   48 1  
    49   17   49 1  
    50   19   50 1  
    51   20   51 1  
    52   20   52 1  
    53   22   53 1  
    54   23   54 1  
    55   23   55 1  
# Name:          frag5-683-23/41815 -- energy: -11.377866
# Creation time: Sat Jun  5 12:53:04 2010


@<TRIPOS>MOLECULE
frag5-683-23/41815 -- energy: -11.377866
   55    55     1     1     1
SMALL
USER_CHARGES


@<TRIPOS>ATOM
      1 N1          0.2424    4.9324   -4.6049 N.am       1 <1>        0.000
      2 C1         -0.5920    4.2789   -3.6119 C.3        1 <1>        0.000
      3 C2         -0.3517    2.7847   -3.3905 C.2        1 <1>        0.000
      4 N2         -0.4776    2.2093   -2.1729 N.am       1 <1>        0.000
      5 C3         -0.7909    2.7414   -0.8683 C.3        1 <1>        0.000
      6 C4          0.3132    3.2862    0.0067 C.3        1 <1>        0.000
      7 C5          1.6736    2.6249    0.0095 C.3        1 <1>        0.000
      8 C6          1.7220    1.1259    0.2108 C.2        1 <1>        0.000
      9 C12         7.5706    4.4301   -1.4960 C.2        1 <1>        0.000
     10 N3          2.8937    0.4705    0.3453 N.am       1 <1>        0.000
     11 C7          4.2677    0.9239    0.3320 C.3        1 <1>        0.000
     12 C8          5.0721    0.3254    1.4863 C.2        1 <1>        0.000
     13 N4          6.4221    0.2859    1.5027 N.am       1 <1>        0.000
     14 C9          7.4146    0.7704    0.5759 C.3        1 <1>        0.000
     15 C10         7.8550    2.2037    0.9443 C.2        1 <1>        0.000
     16 N5          8.5364    2.9000   -0.0094 N.am       1 <1>        0.000
     17 C11         8.4178    4.3202   -0.2248 C.3        1 <1>        0.000
     18 O6          0.6713    0.4756    0.2385 O.2        1 <1>        0.000
     19 N6          6.6987    5.4548   -1.6667 N.am       1 <1>        0.000
     20 C13         5.8676    5.6199   -2.8318 C.3        1 <1>        0.000
     21 C14         4.4818    4.9787   -2.6776 C.2        1 <1>        0.000
     22 N7          3.8295    4.6059   -3.8158 N.am       1 <1>        0.000
     23 C15         2.5042    4.0526   -3.9050 C.3        1 <1>        0.000
     24 C16         1.5857    4.9425   -4.7597 C.2        1 <1>        0.000
     25 O1          2.0899    5.6762   -5.6242 O.2        1 <1>        0.000
     26 O2          3.9817    4.8496   -1.5533 O.2        1 <1>        0.000
     27 O3          7.6867    3.5529   -2.3633 O.2        1 <1>        0.000
     28 O4          7.5683    2.7131    2.0302 O.2        1 <1>        0.000
     29 O5          4.4731   -0.1432    2.4624 O.2        1 <1>        0.000
     30 O12        -0.0365    2.0816   -4.3499 O.2        1 <1>        0.000
     31 H          -0.2700    5.4737   -5.3012 H.spc      1 <1>        0.000
     32 H          -0.3652    4.7638   -2.6624 H.spc      1 <1>        0.000
     33 H          -1.6162    4.3683   -3.9739 H.spc      1 <1>        0.000
     34 H          -0.3202    1.2015   -2.1776 H.spc      1 <1>        0.000
     35 H          -1.4299    3.6012   -1.0697 H.spc      1 <1>        0.000
     36 H          -1.1853    1.8903   -0.3131 H.spc      1 <1>        0.000
     37 H           0.4984    4.2879   -0.3811 H.spc      1 <1>        0.000
     38 H          -0.0556    3.1542    1.0239 H.spc      1 <1>        0.000
     39 H           2.0871    2.8008   -0.9835 H.spc      1 <1>        0.000
     40 H           2.2055    3.0522    0.8596 H.spc      1 <1>        0.000
     41 H           2.7915   -0.5351    0.4823 H.spc      1 <1>        0.000
     42 H           4.7247    0.6072   -0.6055 H.spc      1 <1>        0.000
     43 H           4.2723    2.0089    0.4366 H.spc      1 <1>        0.000
     44 H           6.8130   -0.1730    2.3255 H.spc      1 <1>        0.000
     45 H           8.2839    0.1141    0.6168 H.spc      1 <1>        0.000
     46 H           6.9848    0.7812   -0.4257 H.spc      1 <1>        0.000
     47 H           9.1742    2.3800   -0.6121 H.spc      1 <1>        0.000
     48 H           9.3881    4.8054   -0.3306 H.spc      1 <1>        0.000
     49 H           7.9607    4.8308    0.6228 H.spc      1 <1>        0.000
     50 H           6.6270    6.1511   -0.9248 H.spc      1 <1>        0.000
     51 H           6.3679    5.1311   -3.6678 H.spc      1 <1>        0.000
     52 H           5.7228    6.6890   -2.9868 H.spc      1 <1>        0.000
     53 H           4.3327    4.7323   -4.6940 H.spc      1 <1>        0.000
     54 H           2.0869    3.9858   -2.9003 H.spc      1 <1>        0.000
     55 H           2.5684    3.0696   -4.3717 H.spc      1 <1>        0.000
@<TRIPOS>BOND
     1   16   17 1  
     2   15   28 2  
     3   15   16 am 
     4   14   15 1  
     5   12   13 am 
     6   17    9 1  
     7    9   19 am 
     8   12   29 2  
     9   13   14 1  
    10    9   27 2  
    11   19   20 1  
    12   11   12 1  
    13   10   11 1  
    14    8   18 2  
    15    8   10 am 
    16    7    8 1  
    17   20   21 1  
    18   21   22 am 
    19    6    7 1  
    20   21   26 2  
    21    5    6 1  
    22   22   23 1  
    23    4    5 1  
    24    3   30 2  
    25    3    4 am 
    26    2    3 1  
    27   23   24 1  
    28    1   24 am 
    29   24   25 2  
    30    1    2 1  
    31    1   31 1  
    32    2   32 1  
    33    2   33 1  
    34    4   34 1  
    35    5   35 1  
    36    5   36 1  
    37    6   37 1  
    38    6   38 1  
    39    7   39 1  
    40    7   40 1  
    41   10   41 1  
    42   11   42 1  
    43   11   43 1  
    44   13   44 1  
    45   14   45 1  
    46   14   46 1  
    47   16   47 1  
    48   17   48 1  
    49   17   49 1  
    50   19   50 1  
    51   20   51 1  
    52   20   52 1  
    53   22   53 1  
    54   23   54 1  
    55   23   55 1  
# Name:          frag5-683-23/41815 -- energy: -2.569603
# Creation time: Sat Jun  5 12:53:04 2010


@<TRIPOS>MOLECULE
frag5-683-23/41815 -- energy: -2.569603
   55    55     1     1     1
SMALL
USER_CHARGES


@<TRIPOS>ATOM
      1 N1          2.0776    4.1942   -3.9367 N.am       1 <1>        0.000
      2 C1          1.4496    2.9573   -4.3194 C.3        1 <1>        0.000
      3 C2          0.1555    2.7847   -3.5347 C.2        1 <1>        0.000
      4 N2          0.0273    1.9140   -2.5046 N.am       1 <1>        0.000
      5 C3          0.9829    1.0081   -1.9258 C.3        1 <1>        0.000
      6 C4          0.5607   -0.0306   -0.9196 C.3        1 <1>        0.000
      7 C5          0.3692    0.3608    0.5160 C.3        1 <1>        0.000
      8 C6          1.6027    0.8962    1.2182 C.2        1 <1>        0.000
      9 C12         7.6232    4.5028   -1.8719 C.2        1 <1>        0.000
     10 N3          2.3339    0.0520    2.0089 N.am       1 <1>        0.000
     11 C7          3.2835    0.5002    3.0119 C.3        1 <1>        0.000
     12 C8          4.5229    1.2735    2.5493 C.2        1 <1>        0.000
     13 N4          5.1574    0.9834    1.3752 N.am       1 <1>        0.000
     14 C9          6.2817    1.7604    0.9277 C.3        1 <1>        0.000
     15 C10         6.9642    1.3418   -0.3569 C.2        1 <1>        0.000
     16 N5          7.7801    2.2009   -1.0197 N.am       1 <1>        0.000
     17 C11         8.1178    3.5839   -0.7478 C.3        1 <1>        0.000
     18 O6          1.9006    2.0778    1.0466 O.2        1 <1>        0.000
     19 N6          6.7248    5.4737   -1.5676 N.am       1 <1>        0.000
     20 C13         6.1169    6.3753   -2.5088 C.3        1 <1>        0.000
     21 C14         4.6998    5.9097   -2.8792 C.2        1 <1>        0.000
     22 N7          3.9228    6.7260   -3.6526 N.am       1 <1>        0.000
     23 C15         2.4813    6.6547   -3.8261 C.3        1 <1>        0.000
     24 C16         1.9111    5.4081   -4.5334 C.2        1 <1>        0.000
     25 O1          1.3012    5.5663   -5.5832 O.2        1 <1>        0.000
     26 O2          4.2553    4.8342   -2.4626 O.2        1 <1>        0.000
     27 O3          8.0381    4.3321   -3.0256 O.2        1 <1>        0.000
     28 O4          6.7977    0.1933   -0.7807 O.2        1 <1>        0.000
     29 O5          4.9823    2.1362    3.3119 O.2        1 <1>        0.000
     30 O12        -0.8309    3.5031   -3.7903 O.2        1 <1>        0.000
     31 H           2.7113    4.1588   -3.1382 H.spc      1 <1>        0.000
     32 H           1.2291    2.9754   -5.3867 H.spc      1 <1>        0.000
     33 H           2.1205    2.1258   -4.1035 H.spc      1 <1>        0.000
     34 H          -0.8952    1.8984   -2.0696 H.spc      1 <1>        0.000
     35 H           1.3389    0.4235   -2.7741 H.spc      1 <1>        0.000
     36 H           1.6565    1.6577   -1.3669 H.spc      1 <1>        0.000
     37 H          -0.4270   -0.3502   -1.2519 H.spc      1 <1>        0.000
     38 H           1.3821   -0.7469   -0.9024 H.spc      1 <1>        0.000
     39 H          -0.3652    1.1662    0.5224 H.spc      1 <1>        0.000
     40 H           0.0782   -0.5449    1.0481 H.spc      1 <1>        0.000
     41 H           2.2041   -0.9523    1.8864 H.spc      1 <1>        0.000
     42 H           2.7287    1.1985    3.6385 H.spc      1 <1>        0.000
     43 H           3.6695   -0.4118    3.4673 H.spc      1 <1>        0.000
     44 H           4.8285    0.2031    0.8066 H.spc      1 <1>        0.000
     45 H           5.8870    2.7580    0.7351 H.spc      1 <1>        0.000
     46 H           7.0371    1.6532    1.7062 H.spc      1 <1>        0.000
     47 H           8.2302    1.8078   -1.8463 H.spc      1 <1>        0.000
     48 H           9.2020    3.6713   -0.6767 H.spc      1 <1>        0.000
     49 H           7.6391    3.8836    0.1845 H.spc      1 <1>        0.000
     50 H           6.4581    5.5722   -0.5880 H.spc      1 <1>        0.000
     51 H           6.7250    6.3998   -3.4131 H.spc      1 <1>        0.000
     52 H           6.0531    7.3644   -2.0552 H.spc      1 <1>        0.000
     53 H           4.4066    7.4648   -4.1630 H.spc      1 <1>        0.000
     54 H           2.2200    7.4994   -4.4635 H.spc      1 <1>        0.000
     55 H           2.0647    6.6374   -2.8190 H.spc      1 <1>        0.000
@<TRIPOS>BOND
     1   16   17 1  
     2   15   28 2  
     3   15   16 am 
     4   14   15 1  
     5   12   13 am 
     6   17    9 1  
     7    9   19 am 
     8   12   29 2  
     9   13   14 1  
    10    9   27 2  
    11   19   20 1  
    12   11   12 1  
    13   10   11 1  
    14    8   18 2  
    15    8   10 am 
    16    7    8 1  
    17   20   21 1  
    18   21   22 am 
    19    6    7 1  
    20   21   26 2  
    21    5    6 1  
    22   22   23 1  
    23    4    5 1  
    24    3   30 2  
    25    3    4 am 
    26    2    3 1  
    27   23   24 1  
    28    1   24 am 
    29   24   25 2  
    30    1    2 1  
    31    1   31 1  
    32    2   32 1  
    33    2   33 1  
    34    4   34 1  
    35    5   35 1  
    36    5   36 1  
    37    6   37 1  
    38    6   38 1  
    39    7   39 1  
    40    7   40 1  
    41   10   41 1  
    42   11   42 1  
    43   11   43 1  
    44   13   44 1  
    45   14   45 1  
    46   14   46 1  
    47   16   47 1  
    48   17   48 1  
    49   17   49 1  
    50   19   50 1  
    51   20   51 1  
    52   20   52 1  
    53   22   53 1  
    54   23   54 1  
    55   23   55 1  
# Name:          frag5-683-23/41815 -- energy: -7.395189
# Creation time: Sat Jun  5 12:53:04 2010


@<TRIPOS>MOLECULE
frag5-683-23/41815 -- energy: -7.395189
   55    55     1     1     1
SMALL
USER_CHARGES


@<TRIPOS>ATOM
      1 N1          0.8104    5.2333   -3.0507 N.am       1 <1>        0.000
      2 C1          0.0367    4.5176   -2.0604 C.3        1 <1>        0.000
      3 C2         -0.0085    3.0790   -2.5964 C.2        1 <1>        0.000
      4 N2         -0.6358    2.0958   -1.8918 N.am       1 <1>        0.000
      5 C3         -0.6410    0.7239   -2.3115 C.3        1 <1>        0.000
      6 C4          0.3467   -0.2465   -1.7186 C.3        1 <1>        0.000
      7 C5          0.1387   -0.6407   -0.2797 C.3        1 <1>        0.000
      8 C6          0.7950    0.1428    0.8379 C.2        1 <1>        0.000
      9 C12         8.3953    4.3992   -2.0679 C.2        1 <1>        0.000
     10 N3          1.9547    0.8126    0.6450 N.am       1 <1>        0.000
     11 C7          2.7425    1.4079    1.6930 C.3        1 <1>        0.000
     12 C8          4.0452    1.9943    1.1752 C.2        1 <1>        0.000
     13 N4          5.1066    2.1376    2.0040 N.am       1 <1>        0.000
     14 C9          6.2533    2.9569    1.7235 C.3        1 <1>        0.000
     15 C10         7.3100    2.3913    0.7674 C.2        1 <1>        0.000
     16 N5          7.4215    3.0141   -0.4340 N.am       1 <1>        0.000
     17 C11         8.5983    3.1141   -1.2822 C.3        1 <1>        0.000
     18 O6          0.2532    0.1054    1.9480 O.2        1 <1>        0.000
     19 N6          7.3749    4.3737   -2.9853 N.am       1 <1>        0.000
     20 C13         6.7410    5.4836   -3.6404 C.3        1 <1>        0.000
     21 C14         5.3749    4.9638   -4.0808 C.2        1 <1>        0.000
     22 N7          4.3030    5.8051   -4.1241 N.am       1 <1>        0.000
     23 C15         2.9457    5.3480   -4.3256 C.3        1 <1>        0.000
     24 C16         2.1775    5.2754   -2.9956 C.2        1 <1>        0.000
     25 O1          2.7838    5.1948   -1.9190 O.2        1 <1>        0.000
     26 O2          5.2757    3.7678   -4.3868 O.2        1 <1>        0.000
     27 O3          9.0558    5.3958   -1.8441 O.2        1 <1>        0.000
     28 O4          8.0156    1.4461    1.1137 O.2        1 <1>        0.000
     29 O5          4.0976    2.3601   -0.0019 O.2        1 <1>        0.000
     30 O12         0.5227    2.8211   -3.6922 O.2        1 <1>        0.000
     31 H           0.3267    5.7175   -3.8070 H.spc      1 <1>        0.000
     32 H           0.4811    4.5755   -1.0668 H.spc      1 <1>        0.000
     33 H          -0.9587    4.9413   -1.9272 H.spc      1 <1>        0.000
     34 H          -1.1217    2.3455   -1.0304 H.spc      1 <1>        0.000
     35 H          -1.6152    0.3466   -2.0004 H.spc      1 <1>        0.000
     36 H          -0.3855    0.7611   -3.3705 H.spc      1 <1>        0.000
     37 H           0.2448   -1.1651   -2.2965 H.spc      1 <1>        0.000
     38 H           1.3138    0.2551   -1.7529 H.spc      1 <1>        0.000
     39 H          -0.9292   -0.4975   -0.1151 H.spc      1 <1>        0.000
     40 H           0.5838   -1.6331   -0.2075 H.spc      1 <1>        0.000
     41 H           2.2956    0.9023   -0.3122 H.spc      1 <1>        0.000
     42 H           2.1604    2.2165    2.1350 H.spc      1 <1>        0.000
     43 H           2.9865    0.6293    2.4157 H.spc      1 <1>        0.000
     44 H           5.0910    1.6290    2.8880 H.spc      1 <1>        0.000
     45 H           5.8636    3.8500    1.2351 H.spc      1 <1>        0.000
     46 H           6.7616    3.0874    2.6788 H.spc      1 <1>        0.000
     47 H           6.5772    3.4668   -0.7840 H.spc      1 <1>        0.000
     48 H           8.7044    2.2486   -1.9362 H.spc      1 <1>        0.000
     49 H           9.5199    3.1329   -0.7005 H.spc      1 <1>        0.000
     50 H           7.0220    3.4494   -3.2333 H.spc      1 <1>        0.000
     51 H           7.3279    5.8381   -4.4878 H.spc      1 <1>        0.000
     52 H           6.6485    6.3425   -2.9758 H.spc      1 <1>        0.000
     53 H           4.4662    6.8053   -4.0088 H.spc      1 <1>        0.000
     54 H           2.9769    4.3502   -4.7632 H.spc      1 <1>        0.000
     55 H           2.4361    6.0528   -4.9827 H.spc      1 <1>        0.000
@<TRIPOS>BOND
     1   16   17 1  
     2   15   28 2  
     3   15   16 am 
     4   14   15 1  
     5   12   13 am 
     6   17    9 1  
     7    9   19 am 
     8   12   29 2  
     9   13   14 1  
    10    9   27 2  
    11   19   20 1  
    12   11   12 1  
    13   10   11 1  
    14    8   18 2  
    15    8   10 am 
    16    7    8 1  
    17   20   21 1  
    18   21   22 am 
    19    6    7 1  
    20   21   26 2  
    21    5    6 1  
    22   22   23 1  
    23    4    5 1  
    24    3   30 2  
    25    3    4 am 
    26    2    3 1  
    27   23   24 1  
    28    1   24 am 
    29   24   25 2  
    30    1    2 1  
    31    1   31 1  
    32    2   32 1  
    33    2   33 1  
    34    4   34 1  
    35    5   35 1  
    36    5   36 1  
    37    6   37 1  
    38    6   38 1  
    39    7   39 1  
    40    7   40 1  
    41   10   41 1  
    42   11   42 1  
    43   11   43 1  
    44   13   44 1  
    45   14   45 1  
    46   14   46 1  
    47   16   47 1  
    48   17   48 1  
    49   17   49 1  
    50   19   50 1  
    51   20   51 1  
    52   20   52 1  
    53   22   53 1  
    54   23   54 1  
    55   23   55 1  
# Name:          frag5-683-23/41815 -- energy: -12.706016
# Creation time: Sat Jun  5 12:53:04 2010


@<TRIPOS>MOLECULE
frag5-683-23/41815 -- energy: -12.706016
   55    55     1     1     1
SMALL
USER_CHARGES


@<TRIPOS>ATOM
      1 N1          2.5139    3.2148   -1.7191 N.am       1 <1>        0.000
      2 C1          1.8187    2.5302   -2.7853 C.3        1 <1>        0.000
      3 C2          0.3796    3.0288   -2.8549 C.2        1 <1>        0.000
      4 N2         -0.6765    2.2277   -2.5746 N.am       1 <1>        0.000
      5 C3         -0.7107    0.8660   -2.1458 C.3        1 <1>        0.000
      6 C4         -0.7258    0.5153   -0.6858 C.3        1 <1>        0.000
      7 C5          0.3562    1.0120    0.2313 C.3        1 <1>        0.000
      8 C6          1.7581    0.4738   -0.0042 C.2        1 <1>        0.000
      9 C12         7.1619    4.3786   -2.8261 C.2        1 <1>        0.000
     10 N3          2.8431    0.9346    0.6525 N.am       1 <1>        0.000
     11 C7          2.9679    1.8992    1.7213 C.3        1 <1>        0.000
     12 C8          4.1973    1.6183    2.5855 C.2        1 <1>        0.000
     13 N4          5.4656    1.7828    2.1348 N.am       1 <1>        0.000
     14 C9          5.9750    2.4769    0.9757 C.3        1 <1>        0.000
     15 C10         6.0356    1.7496   -0.3741 C.2        1 <1>        0.000
     16 N5          6.6042    2.3606   -1.4452 N.am       1 <1>        0.000
     17 C11         7.1900    3.6797   -1.4840 C.3        1 <1>        0.000
     18 O6          1.9229   -0.4066   -0.8569 O.2        1 <1>        0.000
     19 N6          7.3422    5.7409   -2.8169 N.am       1 <1>        0.000
     20 C13         6.8621    6.6044   -3.8658 C.3        1 <1>        0.000
     21 C14         5.3738    6.3802   -4.0949 C.2        1 <1>        0.000
     22 N7          4.6422    5.9646   -3.0161 N.am       1 <1>        0.000
     23 C15         3.5473    5.0372   -3.0974 C.3        1 <1>        0.000
     24 C16         3.3059    4.3085   -1.7711 C.2        1 <1>        0.000
     25 O1          3.8438    4.7121   -0.7301 O.2        1 <1>        0.000
     26 O2          4.8897    6.5834   -5.2086 O.2        1 <1>        0.000
     27 O3          6.9245    3.7372   -3.8468 O.2        1 <1>        0.000
     28 O4          5.5687    0.6128   -0.4970 O.2        1 <1>        0.000
     29 O5          4.0328    1.2346    3.7511 O.2        1 <1>        0.000
     30 O12         0.1811    4.2157   -3.1330 O.2        1 <1>        0.000
     31 H           2.3882    2.8130   -0.7900 H.spc      1 <1>        0.000
     32 H           2.3190    2.7302   -3.7328 H.spc      1 <1>        0.000
     33 H           1.8229    1.4575   -2.5921 H.spc      1 <1>        0.000
     34 H          -1.5906    2.6660   -2.6876 H.spc      1 <1>        0.000
     35 H          -1.6666    0.4960   -2.5165 H.spc      1 <1>        0.000
     36 H           0.2301    0.4512   -2.5076 H.spc      1 <1>        0.000
     37 H          -1.6339    0.9846   -0.3072 H.spc      1 <1>        0.000
     38 H          -0.6135   -0.5688   -0.6698 H.spc      1 <1>        0.000
     39 H           0.4177    2.0875    0.0653 H.spc      1 <1>        0.000
     40 H           0.0742    0.6827    1.2314 H.spc      1 <1>        0.000
     41 H           3.7274    0.5329    0.3409 H.spc      1 <1>        0.000
     42 H           3.0730    2.8911    1.2818 H.spc      1 <1>        0.000
     43 H           2.0803    1.8351    2.3508 H.spc      1 <1>        0.000
     44 H           6.1810    1.3414    2.7125 H.spc      1 <1>        0.000
     45 H           5.2768    3.2986    0.8162 H.spc      1 <1>        0.000
     46 H           7.0147    2.6958    1.2190 H.spc      1 <1>        0.000
     47 H           6.6191    1.8304   -2.3165 H.spc      1 <1>        0.000
     48 H           8.2416    3.5554   -1.2255 H.spc      1 <1>        0.000
     49 H           6.6009    4.2964   -0.8052 H.spc      1 <1>        0.000
     50 H           7.8390    6.1603   -2.0310 H.spc      1 <1>        0.000
     51 H           7.4016    6.3803   -4.7861 H.spc      1 <1>        0.000
     52 H           7.0250    7.6422   -3.5749 H.spc      1 <1>        0.000
     53 H           4.8888    6.3354   -2.0985 H.spc      1 <1>        0.000
     54 H           3.7900    4.2916   -3.8546 H.spc      1 <1>        0.000
     55 H           2.6459    5.5977   -3.3452 H.spc      1 <1>        0.000
@<TRIPOS>BOND
     1   16   17 1  
     2   15   28 2  
     3   15   16 am 
     4   14   15 1  
     5   12   13 am 
     6   17    9 1  
     7    9   19 am 
     8   12   29 2  
     9   13   14 1  
    10    9   27 2  
    11   19   20 1  
    12   11   12 1  
    13   10   11 1  
    14    8   18 2  
    15    8   10 am 
    16    7    8 1  
    17   20   21 1  
    18   21   22 am 
    19    6    7 1  
    20   21   26 2  
    21    5    6 1  
    22   22   23 1  
    23    4    5 1  
    24    3   30 2  
    25    3    4 am 
    26    2    3 1  
    27   23   24 1  
    28    1   24 am 
    29   24   25 2  
    30    1    2 1  
    31    1   31 1  
    32    2   32 1  
    33    2   33 1  
    34    4   34 1  
    35    5   35 1  
    36    5   36 1  
    37    6   37 1  
    38    6   38 1  
    39    7   39 1  
    40    7   40 1  
    41   10   41 1  
    42   11   42 1  
    43   11   43 1  
    44   13   44 1  
    45   14   45 1  
    46   14   46 1  
    47   16   47 1  
    48   17   48 1  
    49   17   49 1  
    50   19   50 1  
    51   20   51 1  
    52   20   52 1  
    53   22   53 1  
    54   23   54 1  
    55   23   55 1  
# Name:          frag5-683-23/41815 -- energy: -13.905178
# Creation time: Sat Jun  5 12:53:04 2010


@<TRIPOS>MOLECULE
frag5-683-23/41815 -- energy: -13.905178
   55    55     1     1     1
SMALL
USER_CHARGES


@<TRIPOS>ATOM
      1 N1          1.0361    4.9708   -3.0092 N.am       1 <1>        0.000
      2 C1          1.4968    5.1441   -1.6397 C.3        1 <1>        0.000
      3 C2          2.1443    4.0459   -0.7542 C.2        1 <1>        0.000
      4 N2          2.4582    2.7717   -1.0467 N.am       1 <1>        0.000
      5 C3          2.3589    1.9319   -2.2007 C.3        1 <1>        0.000
      6 C4          1.0526    1.2368   -2.4960 C.3        1 <1>        0.000
      7 C5          0.5941    0.1085   -1.6008 C.3        1 <1>        0.000
      8 C6          1.0255    0.1962   -0.1577 C.2        1 <1>        0.000
      9 C12         6.0407    4.6913   -1.7191 C.2        1 <1>        0.000
     10 N3          2.2900   -0.1741    0.1925 N.am       1 <1>        0.000
     11 C7          2.9041    0.1311    1.4551 C.3        1 <1>        0.000
     12 C8          4.3826    0.4794    1.2906 C.2        1 <1>        0.000
     13 N4          4.9238    1.4084    2.1236 N.am       1 <1>        0.000
     14 C9          6.3289    1.6483    2.3312 C.3        1 <1>        0.000
     15 C10         6.9452    2.6884    1.4039 C.2        1 <1>        0.000
     16 N5          6.2599    3.2127    0.3398 N.am       1 <1>        0.000
     17 C11         6.8591    4.2000   -0.5246 C.3        1 <1>        0.000
     18 O6          0.2215    0.6480    0.6524 O.2        1 <1>        0.000
     19 N6          6.5389    4.4749   -2.9682 N.am       1 <1>        0.000
     20 C13         6.0228    4.9660   -4.2157 C.3        1 <1>        0.000
     21 C14         4.9260    4.0454   -4.7097 C.2        1 <1>        0.000
     22 N7          3.6434    4.4422   -4.7713 N.am       1 <1>        0.000
     23 C15         3.0371    5.6832   -4.3751 C.3        1 <1>        0.000
     24 C16         1.5652    5.4300   -4.1629 C.2        1 <1>        0.000
     25 O1          0.8083    5.6310   -5.1236 O.2        1 <1>        0.000
     26 O2          5.2042    2.8845   -5.0348 O.2        1 <1>        0.000
     27 O3          4.9683    5.2729   -1.5444 O.2        1 <1>        0.000
     28 O4          8.1040    3.0307    1.6481 O.2        1 <1>        0.000
     29 O5          5.0417   -0.0994    0.4196 O.2        1 <1>        0.000
     30 O12         2.4087    4.3731    0.4162 O.2        1 <1>        0.000
     31 H           0.1846    4.4189   -3.1129 H.spc      1 <1>        0.000
     32 H           2.3195    5.8481   -1.7650 H.spc      1 <1>        0.000
     33 H           0.5645    5.3411   -1.1105 H.spc      1 <1>        0.000
     34 H           2.8678    2.2839   -0.2501 H.spc      1 <1>        0.000
     35 H           2.5163    2.6009   -3.0468 H.spc      1 <1>        0.000
     36 H           3.0695    1.1252   -2.0205 H.spc      1 <1>        0.000
     37 H           0.2937    2.0104   -2.3785 H.spc      1 <1>        0.000
     38 H           1.1985    0.7748   -3.4724 H.spc      1 <1>        0.000
     39 H          -0.4954    0.1417   -1.5983 H.spc      1 <1>        0.000
     40 H           1.0413   -0.8017   -2.0003 H.spc      1 <1>        0.000
     41 H           2.8365   -0.7031   -0.4871 H.spc      1 <1>        0.000
     42 H           2.3933    0.9913    1.8879 H.spc      1 <1>        0.000
     43 H           2.8259   -0.7460    2.0975 H.spc      1 <1>        0.000
     44 H           4.2731    1.9903    2.6513 H.spc      1 <1>        0.000
     45 H           6.4378    2.0271    3.3474 H.spc      1 <1>        0.000
     46 H           6.8423    0.7069    2.1354 H.spc      1 <1>        0.000
     47 H           5.3072    2.8988    0.1551 H.spc      1 <1>        0.000
     48 H           7.7379    3.7176   -0.9524 H.spc      1 <1>        0.000
     49 H           7.0164    5.0782    0.1016 H.spc      1 <1>        0.000
     50 H           7.3769    3.8961   -3.0245 H.spc      1 <1>        0.000
     51 H           6.8261    4.9998   -4.9517 H.spc      1 <1>        0.000
     52 H           5.6172    5.9673   -4.0707 H.spc      1 <1>        0.000
     53 H           2.9989    3.7541   -5.1606 H.spc      1 <1>        0.000
     54 H           3.1837    6.4393   -5.1464 H.spc      1 <1>        0.000
     55 H           3.4941    6.0514   -3.4566 H.spc      1 <1>        0.000
@<TRIPOS>BOND
     1   16   17 1  
     2   15   28 2  
     3   15   16 am 
     4   14   15 1  
     5   12   13 am 
     6   17    9 1  
     7    9   19 am 
     8   12   29 2  
     9   13   14 1  
    10    9   27 2  
    11   19   20 1  
    12   11   12 1  
    13   10   11 1  
    14    8   18 2  
    15    8   10 am 
    16    7    8 1  
    17   20   21 1  
    18   21   22 am 
    19    6    7 1  
    20   21   26 2  
    21    5    6 1  
    22   22   23 1  
    23    4    5 1  
    24    3   30 2  
    25    3    4 am 
    26    2    3 1  
    27   23   24 1  
    28    1   24 am 
    29   24   25 2  
    30    1    2 1  
    31    1   31 1  
    32    2   32 1  
    33    2   33 1  
    34    4   34 1  
    35    5   35 1  
    36    5   36 1  
    37    6   37 1  
    38    6   38 1  
    39    7   39 1  
    40    7   40 1  
    41   10   41 1  
    42   11   42 1  
    43   11   43 1  
    44   13   44 1  
    45   14   45 1  
    46   14   46 1  
    47   16   47 1  
    48   17   48 1  
    49   17   49 1  
    50   19   50 1  
    51   20   51 1  
    52   20   52 1  
    53   22   53 1  
    54   23   54 1  
    55   23   55 1  
# Name:          frag5-683-23/41815 -- energy: -11.820426
# Creation time: Sat Jun  5 12:53:04 2010


@<TRIPOS>MOLECULE
frag5-683-23/41815 -- energy: -11.820426
   55    55     1     1     1
SMALL
USER_CHARGES


@<TRIPOS>ATOM
      1 N1          1.4357    3.5801   -4.5339 N.am       1 <1>        0.000
      2 C1          1.6078    2.5330   -3.5756 C.3        1 <1>        0.000
      3 C2          0.3763    1.6904   -3.2009 C.2        1 <1>        0.000
      4 N2         -0.3867    1.9374   -2.1100 N.am       1 <1>        0.000
      5 C3         -0.5261    3.0834   -1.2571 C.3        1 <1>        0.000
      6 C4          0.3351    3.3826   -0.0677 C.3        1 <1>        0.000
      7 C5          0.4918    2.3495    1.0107 C.3        1 <1>        0.000
      8 C6          1.8561    2.3547    1.6317 C.2        1 <1>        0.000
      9 C12         6.6855    4.8721   -0.3235 C.2        1 <1>        0.000
     10 N3          2.9450    1.8970    0.9839 N.am       1 <1>        0.000
     11 C7          3.0628    1.2899   -0.3201 C.3        1 <1>        0.000
     12 C8          4.3448    0.4765   -0.3810 C.2        1 <1>        0.000
     13 N4          5.4834    1.1830   -0.6357 N.am       1 <1>        0.000
     14 C9          6.8372    0.7515   -0.4326 C.3        1 <1>        0.000
     15 C10         7.6481    1.9209    0.0901 C.2        1 <1>        0.000
     16 N5          6.9303    2.8764    0.7618 N.am       1 <1>        0.000
     17 C11         7.3459    4.2345    0.8860 C.3        1 <1>        0.000
     18 O6          1.9756    2.8077    2.7713 O.2        1 <1>        0.000
     19 N6          7.1219    4.5280   -1.5768 N.am       1 <1>        0.000
     20 C13         6.5363    4.9814   -2.8105 C.3        1 <1>        0.000
     21 C14         5.0595    4.5517   -2.9232 C.2        1 <1>        0.000
     22 N7          4.1545    5.4194   -3.4669 N.am       1 <1>        0.000
     23 C15         2.7249    5.3772   -3.3403 C.3        1 <1>        0.000
     24 C16         1.9857    4.8169   -4.5516 C.2        1 <1>        0.000
     25 O1          1.8981    5.5020   -5.5749 O.2        1 <1>        0.000
     26 O2          4.7172    3.4398   -2.4918 O.2        1 <1>        0.000
     27 O3          5.7182    5.6178   -0.1445 O.2        1 <1>        0.000
     28 O4          8.8573    1.9934   -0.1387 O.2        1 <1>        0.000
     29 O5          4.3351   -0.7229   -0.1325 O.2        1 <1>        0.000
     30 O12         0.0336    0.7487   -3.9269 O.2        1 <1>        0.000
     31 H           0.8121    3.3654   -5.3120 H.spc      1 <1>        0.000
     32 H           2.3091    1.8345   -4.0321 H.spc      1 <1>        0.000
     33 H           1.9102    3.0302   -2.6540 H.spc      1 <1>        0.000
     34 H          -0.9806    1.1531   -1.8407 H.spc      1 <1>        0.000
     35 H          -0.2832    3.9047   -1.9313 H.spc      1 <1>        0.000
     36 H          -1.5013    2.9148   -0.8003 H.spc      1 <1>        0.000
     37 H           1.3374    3.5094   -0.4769 H.spc      1 <1>        0.000
     38 H          -0.1546    4.2233    0.4238 H.spc      1 <1>        0.000
     39 H          -0.2311    2.5751    1.7947 H.spc      1 <1>        0.000
     40 H           0.3364    1.3702    0.5580 H.spc      1 <1>        0.000
     41 H           3.8226    1.9947    1.4944 H.spc      1 <1>        0.000
     42 H           2.2078    0.6375   -0.4976 H.spc      1 <1>        0.000
     43 H           3.0871    2.0673   -1.0838 H.spc      1 <1>        0.000
     44 H           5.3589    2.1227   -1.0125 H.spc      1 <1>        0.000
     45 H           6.8606   -0.0662    0.2878 H.spc      1 <1>        0.000
     46 H           7.2588    0.4007   -1.3746 H.spc      1 <1>        0.000
     47 H           6.0500    2.6003    1.1969 H.spc      1 <1>        0.000
     48 H           8.4288    4.3570    0.9040 H.spc      1 <1>        0.000
     49 H           7.0548    4.6927    1.8312 H.spc      1 <1>        0.000
     50 H           7.9244    3.9016   -1.6396 H.spc      1 <1>        0.000
     51 H           7.0897    4.5399   -3.6393 H.spc      1 <1>        0.000
     52 H           6.5832    6.0701   -2.8365 H.spc      1 <1>        0.000
     53 H           4.5375    6.1824   -4.0251 H.spc      1 <1>        0.000
     54 H           2.3898    6.4070   -3.2162 H.spc      1 <1>        0.000
     55 H           2.5029    4.7157   -2.5029 H.spc      1 <1>        0.000
@<TRIPOS>BOND
     1   16   17 1  
     2   15   28 2  
     3   15   16 am 
     4   14   15 1  
     5   12   13 am 
     6   17    9 1  
     7    9   19 am 
     8   12   29 2  
     9   13   14 1  
    10    9   27 2  
    11   19   20 1  
    12   11   12 1  
    13   10   11 1  
    14    8   18 2  
    15    8   10 am 
    16    7    8 1  
    17   20   21 1  
    18   21   22 am 
    19    6    7 1  
    20   21   26 2  
    21    5    6 1  
    22   22   23 1  
    23    4    5 1  
    24    3   30 2  
    25    3    4 am 
    26    2    3 1  
    27   23   24 1  
    28    1   24 am 
    29   24   25 2  
    30    1    2 1  
    31    1   31 1  
    32    2   32 1  
    33    2   33 1  
    34    4   34 1  
    35    5   35 1  
    36    5   36 1  
    37    6   37 1  
    38    6   38 1  
    39    7   39 1  
    40    7   40 1  
    41   10   41 1  
    42   11   42 1  
    43   11   43 1  
    44   13   44 1  
    45   14   45 1  
    46   14   46 1  
    47   16   47 1  
    48   17   48 1  
    49   17   49 1  
    50   19   50 1  
    51   20   51 1  
    52   20   52 1  
    53   22   53 1  
    54   23   54 1  
    55   23   55 1  
