#      Rotatable Fragment
#      Build by yxyuan
#
# Name:          frag3-221-6/96164
# Creation time: Sat Jun  5 12:53:14 2010


@<TRIPOS>MOLECULE
frag3-221-6/96164
   11    10     1     1     1
SMALL
USER_CHARGES


@<TRIPOS>ATOM
      1 C12         2.4948   -0.0112    0.1298 C.2        1 <1>        0.000
      2 N2          1.2797   -0.0744    0.5492 N.2        1 <1>        0.000
      3 N3          0.1422   -0.1552   -0.1336 N.am       1 <1>        0.000
      4 C14        -1.0831   -0.5088    0.4720 C.2        1 <1>        0.000
      5 N4         -1.2540   -0.7556    1.8484 N.am       1 <1>        0.000
      6 O3         -2.0909   -0.6125   -0.2621 O.2        1 <1>        0.000
      7 H           2.7033   -0.0204   -0.9400 H.spc      1 <1>        0.000
      8 H           3.3154    0.0516    0.8444 H.spc      1 <1>        0.000
      9 H           0.1550    0.0460   -1.1335 H.spc      1 <1>        0.000
     10 H          -2.1734   -1.0079    2.2110 H.spc      1 <1>        0.000
     11 H          -0.4583   -0.6820    2.4824 H.spc      1 <1>        0.000
@<TRIPOS>BOND
     1    1    2 2  
     2    2    3 1  
     3    3    4 am 
     4    4    5 am 
     5    4    6 2  
     6    1    7 1  
     7    1    8 1  
     8    3    9 1  
     9    5   10 1  
    10    5   11 1  
# Name:          frag3-221-6/96164
# Creation time: Sat Jun  5 12:53:14 2010


@<TRIPOS>MOLECULE
frag3-221-6/96164
   11    10     1     1     1
SMALL
USER_CHARGES


@<TRIPOS>ATOM
      1 C12         1.9851   -0.6206    0.6037 C.2        1 <1>        0.000
      2 N2          1.2971    0.3243    0.1107 N.2        1 <1>        0.000
      3 N3         -0.0148    0.3117   -0.1688 N.am       1 <1>        0.000
      4 C14        -0.9362   -0.4401    0.4806 C.2        1 <1>        0.000
      5 N4         -0.9396   -0.8271    1.7770 N.am       1 <1>        0.000
      6 O3         -1.9029   -0.8659   -0.1995 O.2        1 <1>        0.000
      7 H           1.5103   -1.5711    0.8469 H.spc      1 <1>        0.000
      8 H           3.0511   -0.4820    0.7841 H.spc      1 <1>        0.000
      9 H          -0.3427    0.9119   -0.9255 H.spc      1 <1>        0.000
     10 H          -1.6908   -1.4197    2.1304 H.spc      1 <1>        0.000
     11 H          -0.1909   -0.5262    2.4010 H.spc      1 <1>        0.000
@<TRIPOS>BOND
     1    1    2 2  
     2    2    3 1  
     3    3    4 am 
     4    4    5 am 
     5    4    6 2  
     6    1    7 1  
     7    1    8 1  
     8    3    9 1  
     9    5   10 1  
    10    5   11 1  
# Name:          frag3-221-6/96164
# Creation time: Sat Jun  5 12:53:14 2010


@<TRIPOS>MOLECULE
frag3-221-6/96164
   11    10     1     1     1
SMALL
USER_CHARGES


@<TRIPOS>ATOM
      1 C12         1.8268    0.1544    0.9963 C.2        1 <1>        0.000
      2 N2          1.3827   -0.2595   -0.1188 N.2        1 <1>        0.000
      3 N3          0.0968   -0.4230   -0.4756 N.am       1 <1>        0.000
      4 C14        -0.9154   -0.5109    0.4326 C.2        1 <1>        0.000
      5 N4         -0.8184   -0.6928    1.7768 N.am       1 <1>        0.000
      6 O3         -2.0838   -0.3859   -0.0075 O.2        1 <1>        0.000
      7 H           1.1334    0.4228    1.7934 H.spc      1 <1>        0.000
      8 H           2.9014    0.2413    1.1566 H.spc      1 <1>        0.000
      9 H          -0.1308   -0.4838   -1.4680 H.spc      1 <1>        0.000
     10 H          -1.6617   -0.7194    2.3500 H.spc      1 <1>        0.000
     11 H           0.0976   -0.8026    2.2118 H.spc      1 <1>        0.000
@<TRIPOS>BOND
     1    1    2 2  
     2    2    3 1  
     3    3    4 am 
     4    4    5 am 
     5    4    6 2  
     6    1    7 1  
     7    1    8 1  
     8    3    9 1  
     9    5   10 1  
    10    5   11 1  
# Name:          frag3-221-6/96164
# Creation time: Sat Jun  5 12:53:14 2010


@<TRIPOS>MOLECULE
frag3-221-6/96164
   11    10     1     1     1
SMALL
USER_CHARGES


@<TRIPOS>ATOM
      1 C12         1.6715   -0.4078   -0.7143 C.2        1 <1>        0.000
      2 N2          1.3896    0.2161    0.3786 N.2        1 <1>        0.000
      3 N3          0.3115    0.1187    1.1367 N.am       1 <1>        0.000
      4 C14        -0.8959   -0.4833    0.7262 C.2        1 <1>        0.000
      5 N4         -1.9704   -0.7964    1.5693 N.am       1 <1>        0.000
      6 O3         -1.0176   -0.7649   -0.4928 O.2        1 <1>        0.000
      7 H           0.9671   -1.1302   -1.1267 H.spc      1 <1>        0.000
      8 H           2.6141   -0.2127   -1.2256 H.spc      1 <1>        0.000
      9 H           0.3556    0.5040    2.0801 H.spc      1 <1>        0.000
     10 H          -2.8079   -1.2352    1.1866 H.spc      1 <1>        0.000
     11 H          -1.9151   -0.5856    2.5657 H.spc      1 <1>        0.000
@<TRIPOS>BOND
     1    1    2 2  
     2    2    3 1  
     3    3    4 am 
     4    4    5 am 
     5    4    6 2  
     6    1    7 1  
     7    1    8 1  
     8    3    9 1  
     9    5   10 1  
    10    5   11 1  
# Name:          frag3-221-6/96164 -- energy: -0.575401
# Creation time: Sat Jun  5 12:53:14 2010


@<TRIPOS>MOLECULE
frag3-221-6/96164 -- energy: -0.575401
   11    10     1     1     1
SMALL
USER_CHARGES


@<TRIPOS>ATOM
      1 C12         2.4948   -0.0112    0.1298 C.2        1 <1>        0.000
      2 N2          1.2797   -0.0744    0.5492 N.2        1 <1>        0.000
      3 N3          0.1422   -0.1552   -0.1336 N.am       1 <1>        0.000
      4 C14        -1.0831   -0.5088    0.4720 C.2        1 <1>        0.000
      5 N4         -1.2540   -0.7556    1.8484 N.am       1 <1>        0.000
      6 O3         -2.0909   -0.6125   -0.2621 O.2        1 <1>        0.000
      7 H           2.7033   -0.0204   -0.9400 H.spc      1 <1>        0.000
      8 H           3.3154    0.0516    0.8444 H.spc      1 <1>        0.000
      9 H           0.1550    0.0460   -1.1335 H.spc      1 <1>        0.000
     10 H          -2.1734   -1.0079    2.2110 H.spc      1 <1>        0.000
     11 H          -0.4583   -0.6820    2.4824 H.spc      1 <1>        0.000
@<TRIPOS>BOND
     1    1    2 2  
     2    2    3 1  
     3    3    4 am 
     4    4    5 am 
     5    4    6 2  
     6    1    7 1  
     7    1    8 1  
     8    3    9 1  
     9    5   10 1  
    10    5   11 1  
# Name:          frag3-221-6/96164 -- energy: -0.750922
# Creation time: Sat Jun  5 12:53:14 2010


@<TRIPOS>MOLECULE
frag3-221-6/96164 -- energy: -0.750922
   11    10     1     1     1
SMALL
USER_CHARGES


@<TRIPOS>ATOM
      1 C12         1.9851   -0.6206    0.6037 C.2        1 <1>        0.000
      2 N2          1.2971    0.3243    0.1107 N.2        1 <1>        0.000
      3 N3         -0.0148    0.3117   -0.1688 N.am       1 <1>        0.000
      4 C14        -0.9362   -0.4401    0.4806 C.2        1 <1>        0.000
      5 N4         -0.9396   -0.8271    1.7770 N.am       1 <1>        0.000
      6 O3         -1.9029   -0.8659   -0.1995 O.2        1 <1>        0.000
      7 H           1.5103   -1.5711    0.8469 H.spc      1 <1>        0.000
      8 H           3.0511   -0.4820    0.7841 H.spc      1 <1>        0.000
      9 H          -0.3427    0.9119   -0.9255 H.spc      1 <1>        0.000
     10 H          -1.6908   -1.4197    2.1304 H.spc      1 <1>        0.000
     11 H          -0.1909   -0.5262    2.4010 H.spc      1 <1>        0.000
@<TRIPOS>BOND
     1    1    2 2  
     2    2    3 1  
     3    3    4 am 
     4    4    5 am 
     5    4    6 2  
     6    1    7 1  
     7    1    8 1  
     8    3    9 1  
     9    5   10 1  
    10    5   11 1  
# Name:          frag3-221-6/96164 -- energy: 0.603065
# Creation time: Sat Jun  5 12:53:14 2010


@<TRIPOS>MOLECULE
frag3-221-6/96164 -- energy: 0.603065
   11    10     1     1     1
SMALL
USER_CHARGES


@<TRIPOS>ATOM
      1 C12         1.6715   -0.4078   -0.7143 C.2        1 <1>        0.000
      2 N2          1.3896    0.2161    0.3786 N.2        1 <1>        0.000
      3 N3          0.3115    0.1187    1.1367 N.am       1 <1>        0.000
      4 C14        -0.8959   -0.4833    0.7262 C.2        1 <1>        0.000
      5 N4         -1.9704   -0.7964    1.5693 N.am       1 <1>        0.000
      6 O3         -1.0176   -0.7649   -0.4928 O.2        1 <1>        0.000
      7 H           0.9671   -1.1302   -1.1267 H.spc      1 <1>        0.000
      8 H           2.6141   -0.2127   -1.2256 H.spc      1 <1>        0.000
      9 H           0.3556    0.5040    2.0801 H.spc      1 <1>        0.000
     10 H          -2.8079   -1.2352    1.1866 H.spc      1 <1>        0.000
     11 H          -1.9151   -0.5856    2.5657 H.spc      1 <1>        0.000
@<TRIPOS>BOND
     1    1    2 2  
     2    2    3 1  
     3    3    4 am 
     4    4    5 am 
     5    4    6 2  
     6    1    7 1  
     7    1    8 1  
     8    3    9 1  
     9    5   10 1  
    10    5   11 1  
