#      Rotatable Fragment
#      Build by yxyuan
#
# Name:          frag4-295-3071/150395
# Creation time: Sat Jun  5 12:53:30 2010


@<TRIPOS>MOLECULE
frag4-295-3071/150395
    9     9     1     1     1
SMALL
USER_CHARGES


@<TRIPOS>ATOM
      1 C7          1.2728    0.7710    0.3083 C.3        1 <1>        0.000
      2 C12         2.7893    0.7856    0.0246 C.3        1 <1>        0.000
      3 C13         2.0176   -0.5504    0.0261 C.3        1 <1>        0.000
      4 H           0.3738    1.2899   -0.0244 H.spc      1 <1>        0.000
      5 H           0.5742    1.1753    1.0408 H.spc      1 <1>        0.000
      6 H           3.6978    1.2054    0.4565 H.spc      1 <1>        0.000
      7 H           3.4974    1.3200   -0.6088 H.spc      1 <1>        0.000
      8 H           1.9079   -1.4318   -0.6057 H.spc      1 <1>        0.000
      9 H           2.1083   -1.5464    0.4596 H.spc      1 <1>        0.000
@<TRIPOS>BOND
     1    1    2 1  
     2    1    3 1  
     3    2    3 1  
     4    1    4 1  
     5    1    5 1  
     6    2    6 1  
     7    2    7 1  
     8    3    8 1  
     9    3    9 1  
# Name:          frag4-295-3071/150395 -- energy: -0.073682
# Creation time: Sat Jun  5 12:53:30 2010


@<TRIPOS>MOLECULE
frag4-295-3071/150395 -- energy: -0.073682
    9     9     1     1     1
SMALL
USER_CHARGES


@<TRIPOS>ATOM
      1 C7          1.2728    0.7710    0.3083 C.3        1 <1>        0.000
      2 C12         2.7893    0.7856    0.0246 C.3        1 <1>        0.000
      3 C13         2.0176   -0.5504    0.0261 C.3        1 <1>        0.000
      4 H           0.3738    1.2899   -0.0244 H.spc      1 <1>        0.000
      5 H           0.5742    1.1753    1.0408 H.spc      1 <1>        0.000
      6 H           3.6978    1.2054    0.4565 H.spc      1 <1>        0.000
      7 H           3.4974    1.3200   -0.6088 H.spc      1 <1>        0.000
      8 H           1.9079   -1.4318   -0.6057 H.spc      1 <1>        0.000
      9 H           2.1083   -1.5464    0.4596 H.spc      1 <1>        0.000
@<TRIPOS>BOND
     1    1    2 1  
     2    1    3 1  
     3    2    3 1  
     4    1    4 1  
     5    1    5 1  
     6    2    6 1  
     7    2    7 1  
     8    3    8 1  
     9    3    9 1  
