#      Rotatable Fragment
#      Build by yxyuan
#
# Name:          frag3-139-33/96164
# Creation time: Sat Jun  5 12:53:04 2010


@<TRIPOS>MOLECULE
frag3-139-33/96164
   13    12     1     1     1
SMALL
USER_CHARGES


@<TRIPOS>ATOM
      1 C13         0.2105    0.5260   -0.3909 C.2        1 <1>        0.000
      2 C14         1.3299    0.0205    0.1525 C.2        1 <1>        0.000
      3 C16         2.6698    0.5110    0.0815 C.2        1 <1>        0.000
      4 C17         3.1437    1.2609   -0.9246 C.2        1 <1>        0.000
      5 C19         4.5125    1.7805   -0.9700 C.2        1 <1>        0.000
      6 O4          4.7200    2.6086   -1.9964 O.3        1 <1>        0.000
      7 O5          5.3909    1.5263   -0.1802 O.2        1 <1>        0.000
      8 H           0.2569    1.4395   -0.9837 H.spc      1 <1>        0.000
      9 H          -0.7444    0.0227   -0.2391 H.spc      1 <1>        0.000
     10 H           1.1971   -0.8944    0.7300 H.spc      1 <1>        0.000
     11 H           3.3495    0.2602    0.8958 H.spc      1 <1>        0.000
     12 H           2.4747    1.4961   -1.7524 H.spc      1 <1>        0.000
     13 H           3.9132    2.6875   -2.5106 H.spc      1 <1>        0.000
@<TRIPOS>BOND
     1    1    2 2  
     2    2    3 1  
     3    3    4 2  
     4    4    5 1  
     5    5    6 1  
     6    5    7 2  
     7    1    8 1  
     8    1    9 1  
     9    2   10 1  
    10    3   11 1  
    11    4   12 1  
    12    6   13 1  
# Name:          frag3-139-33/96164
# Creation time: Sat Jun  5 12:53:04 2010


@<TRIPOS>MOLECULE
frag3-139-33/96164
   13    12     1     1     1
SMALL
USER_CHARGES


@<TRIPOS>ATOM
      1 C13         0.7806   -0.3330    0.4201 C.2        1 <1>        0.000
      2 C14         0.9132    0.6638   -0.4555 C.2        1 <1>        0.000
      3 C16         2.1716    1.1035   -1.0122 C.2        1 <1>        0.000
      4 C17         3.2832    1.2768   -0.2744 C.2        1 <1>        0.000
      5 C19         4.5932    1.7044   -0.7937 C.2        1 <1>        0.000
      6 O4          4.6273    2.3257   -1.9731 O.3        1 <1>        0.000
      7 O5          5.6083    1.4925   -0.1394 O.2        1 <1>        0.000
      8 H           1.6602   -0.8776    0.7632 H.spc      1 <1>        0.000
      9 H          -0.2074   -0.6032    0.7927 H.spc      1 <1>        0.000
     10 H           0.0091    1.1831   -0.7734 H.spc      1 <1>        0.000
     11 H           2.2230    1.3047   -2.0822 H.spc      1 <1>        0.000
     12 H           3.2080    1.0849    0.7959 H.spc      1 <1>        0.000
     13 H           3.7361    2.3944   -2.3232 H.spc      1 <1>        0.000
@<TRIPOS>BOND
     1    1    2 2  
     2    2    3 1  
     3    3    4 2  
     4    4    5 1  
     5    5    6 1  
     6    5    7 2  
     7    1    8 1  
     8    1    9 1  
     9    2   10 1  
    10    3   11 1  
    11    4   12 1  
    12    6   13 1  
# Name:          frag3-139-33/96164
# Creation time: Sat Jun  5 12:53:05 2010


@<TRIPOS>MOLECULE
frag3-139-33/96164
   13    12     1     1     1
SMALL
USER_CHARGES


@<TRIPOS>ATOM
      1 C13         0.0092    0.4226    0.0596 C.2        1 <1>        0.000
      2 C14         1.2590    0.0580   -0.2223 C.2        1 <1>        0.000
      3 C16         2.2943    0.9335   -0.7130 C.2        1 <1>        0.000
      4 C17         3.5857    0.8472   -0.3591 C.2        1 <1>        0.000
      5 C19         4.6606    1.7346   -0.8343 C.2        1 <1>        0.000
      6 O4          4.4647    2.4150   -1.9633 O.3        1 <1>        0.000
      7 O5          5.7040    1.8228   -0.1955 O.2        1 <1>        0.000
      8 H          -0.3003    1.4588   -0.0772 H.spc      1 <1>        0.000
      9 H          -0.7040   -0.3152    0.4271 H.spc      1 <1>        0.000
     10 H           1.5208   -0.9890   -0.0694 H.spc      1 <1>        0.000
     11 H           2.0095    1.7157   -1.4167 H.spc      1 <1>        0.000
     12 H           3.8618    0.0554    0.3372 H.spc      1 <1>        0.000
     13 H           3.5929    2.2125   -2.3105 H.spc      1 <1>        0.000
@<TRIPOS>BOND
     1    1    2 2  
     2    2    3 1  
     3    3    4 2  
     4    4    5 1  
     5    5    6 1  
     6    5    7 2  
     7    1    8 1  
     8    1    9 1  
     9    2   10 1  
    10    3   11 1  
    11    4   12 1  
    12    6   13 1  
# Name:          frag3-139-33/96164
# Creation time: Sat Jun  5 12:53:05 2010


@<TRIPOS>MOLECULE
frag3-139-33/96164
   13    12     1     1     1
SMALL
USER_CHARGES


@<TRIPOS>ATOM
      1 C13         0.2830   -0.0075    0.5586 C.2        1 <1>        0.000
      2 C14         1.0991    0.2984   -0.4466 C.2        1 <1>        0.000
      3 C16         2.5020    0.5977   -0.3274 C.2        1 <1>        0.000
      4 C17         3.1525    1.5044   -1.0818 C.2        1 <1>        0.000
      5 C19         4.5793    1.8349   -0.9642 C.2        1 <1>        0.000
      6 O4          5.1646    2.4045   -2.0301 O.3        1 <1>        0.000
      7 O5          5.1968    1.6014    0.0634 O.2        1 <1>        0.000
      8 H           0.6656   -0.0470    1.5785 H.spc      1 <1>        0.000
      9 H          -0.7682   -0.2186    0.3623 H.spc      1 <1>        0.000
     10 H           0.6679    0.3247   -1.4473 H.spc      1 <1>        0.000
     11 H           3.0761    0.0545    0.4232 H.spc      1 <1>        0.000
     12 H           2.5750    2.0346   -1.8391 H.spc      1 <1>        0.000
     13 H           4.5186    2.5045   -2.7331 H.spc      1 <1>        0.000
@<TRIPOS>BOND
     1    1    2 2  
     2    2    3 1  
     3    3    4 2  
     4    4    5 1  
     5    5    6 1  
     6    5    7 2  
     7    1    8 1  
     8    1    9 1  
     9    2   10 1  
    10    3   11 1  
    11    4   12 1  
    12    6   13 1  
# Name:          frag3-139-33/96164 -- energy: -0.420530
# Creation time: Sat Jun  5 12:53:05 2010


@<TRIPOS>MOLECULE
frag3-139-33/96164 -- energy: -0.420530
   13    12     1     1     1
SMALL
USER_CHARGES


@<TRIPOS>ATOM
      1 C13         0.2105    0.5260   -0.3909 C.2        1 <1>        0.000
      2 C14         1.3299    0.0205    0.1525 C.2        1 <1>        0.000
      3 C16         2.6698    0.5110    0.0815 C.2        1 <1>        0.000
      4 C17         3.1437    1.2609   -0.9246 C.2        1 <1>        0.000
      5 C19         4.5125    1.7805   -0.9700 C.2        1 <1>        0.000
      6 O4          4.7200    2.6086   -1.9964 O.3        1 <1>        0.000
      7 O5          5.3909    1.5263   -0.1802 O.2        1 <1>        0.000
      8 H           0.2569    1.4395   -0.9837 H.spc      1 <1>        0.000
      9 H          -0.7444    0.0227   -0.2391 H.spc      1 <1>        0.000
     10 H           1.1971   -0.8944    0.7300 H.spc      1 <1>        0.000
     11 H           3.3495    0.2602    0.8958 H.spc      1 <1>        0.000
     12 H           2.4747    1.4961   -1.7524 H.spc      1 <1>        0.000
     13 H           3.9132    2.6875   -2.5106 H.spc      1 <1>        0.000
@<TRIPOS>BOND
     1    1    2 2  
     2    2    3 1  
     3    3    4 2  
     4    4    5 1  
     5    5    6 1  
     6    5    7 2  
     7    1    8 1  
     8    1    9 1  
     9    2   10 1  
    10    3   11 1  
    11    4   12 1  
    12    6   13 1  
# Name:          frag3-139-33/96164 -- energy: -0.098300
# Creation time: Sat Jun  5 12:53:05 2010


@<TRIPOS>MOLECULE
frag3-139-33/96164 -- energy: -0.098300
   13    12     1     1     1
SMALL
USER_CHARGES


@<TRIPOS>ATOM
      1 C13         0.7806   -0.3330    0.4201 C.2        1 <1>        0.000
      2 C14         0.9132    0.6638   -0.4555 C.2        1 <1>        0.000
      3 C16         2.1716    1.1035   -1.0122 C.2        1 <1>        0.000
      4 C17         3.2832    1.2768   -0.2744 C.2        1 <1>        0.000
      5 C19         4.5932    1.7044   -0.7937 C.2        1 <1>        0.000
      6 O4          4.6273    2.3257   -1.9731 O.3        1 <1>        0.000
      7 O5          5.6083    1.4925   -0.1394 O.2        1 <1>        0.000
      8 H           1.6602   -0.8776    0.7632 H.spc      1 <1>        0.000
      9 H          -0.2074   -0.6032    0.7927 H.spc      1 <1>        0.000
     10 H           0.0091    1.1831   -0.7734 H.spc      1 <1>        0.000
     11 H           2.2230    1.3047   -2.0822 H.spc      1 <1>        0.000
     12 H           3.2080    1.0849    0.7959 H.spc      1 <1>        0.000
     13 H           3.7361    2.3944   -2.3232 H.spc      1 <1>        0.000
@<TRIPOS>BOND
     1    1    2 2  
     2    2    3 1  
     3    3    4 2  
     4    4    5 1  
     5    5    6 1  
     6    5    7 2  
     7    1    8 1  
     8    1    9 1  
     9    2   10 1  
    10    3   11 1  
    11    4   12 1  
    12    6   13 1  
# Name:          frag3-139-33/96164 -- energy: -0.075900
# Creation time: Sat Jun  5 12:53:05 2010


@<TRIPOS>MOLECULE
frag3-139-33/96164 -- energy: -0.075900
   13    12     1     1     1
SMALL
USER_CHARGES


@<TRIPOS>ATOM
      1 C13         0.0092    0.4226    0.0596 C.2        1 <1>        0.000
      2 C14         1.2590    0.0580   -0.2223 C.2        1 <1>        0.000
      3 C16         2.2943    0.9335   -0.7130 C.2        1 <1>        0.000
      4 C17         3.5857    0.8472   -0.3591 C.2        1 <1>        0.000
      5 C19         4.6606    1.7346   -0.8343 C.2        1 <1>        0.000
      6 O4          4.4647    2.4150   -1.9633 O.3        1 <1>        0.000
      7 O5          5.7040    1.8228   -0.1955 O.2        1 <1>        0.000
      8 H          -0.3003    1.4588   -0.0772 H.spc      1 <1>        0.000
      9 H          -0.7040   -0.3152    0.4271 H.spc      1 <1>        0.000
     10 H           1.5208   -0.9890   -0.0694 H.spc      1 <1>        0.000
     11 H           2.0095    1.7157   -1.4167 H.spc      1 <1>        0.000
     12 H           3.8618    0.0554    0.3372 H.spc      1 <1>        0.000
     13 H           3.5929    2.2125   -2.3105 H.spc      1 <1>        0.000
@<TRIPOS>BOND
     1    1    2 2  
     2    2    3 1  
     3    3    4 2  
     4    4    5 1  
     5    5    6 1  
     6    5    7 2  
     7    1    8 1  
     8    1    9 1  
     9    2   10 1  
    10    3   11 1  
    11    4   12 1  
    12    6   13 1  
# Name:          frag3-139-33/96164 -- energy: -0.657335
# Creation time: Sat Jun  5 12:53:05 2010


@<TRIPOS>MOLECULE
frag3-139-33/96164 -- energy: -0.657335
   13    12     1     1     1
SMALL
USER_CHARGES


@<TRIPOS>ATOM
      1 C13         0.2830   -0.0075    0.5586 C.2        1 <1>        0.000
      2 C14         1.0991    0.2984   -0.4466 C.2        1 <1>        0.000
      3 C16         2.5020    0.5977   -0.3274 C.2        1 <1>        0.000
      4 C17         3.1525    1.5044   -1.0818 C.2        1 <1>        0.000
      5 C19         4.5793    1.8349   -0.9642 C.2        1 <1>        0.000
      6 O4          5.1646    2.4045   -2.0301 O.3        1 <1>        0.000
      7 O5          5.1968    1.6014    0.0634 O.2        1 <1>        0.000
      8 H           0.6656   -0.0470    1.5785 H.spc      1 <1>        0.000
      9 H          -0.7682   -0.2186    0.3623 H.spc      1 <1>        0.000
     10 H           0.6679    0.3247   -1.4473 H.spc      1 <1>        0.000
     11 H           3.0761    0.0545    0.4232 H.spc      1 <1>        0.000
     12 H           2.5750    2.0346   -1.8391 H.spc      1 <1>        0.000
     13 H           4.5186    2.5045   -2.7331 H.spc      1 <1>        0.000
@<TRIPOS>BOND
     1    1    2 2  
     2    2    3 1  
     3    3    4 2  
     4    4    5 1  
     5    5    6 1  
     6    5    7 2  
     7    1    8 1  
     8    1    9 1  
     9    2   10 1  
    10    3   11 1  
    11    4   12 1  
    12    6   13 1  
