#      Rotatable Fragment
#      Build by yxyuan
#
# Name:          frag5-489-7503/138278
# Creation time: Sat Jun  5 12:53:39 2010


@<TRIPOS>MOLECULE
frag5-489-7503/138278
   13    13     1     1     1
SMALL
USER_CHARGES


@<TRIPOS>ATOM
      1 C18         1.6157    0.4263   -0.0507 C.ar       1 <1>        0.000
      2 C21         1.2981   -0.9168    0.1298 C.ar       1 <1>        0.000
      3 C22         0.5975    1.3680   -0.1590 C.ar       1 <1>        0.000
      4 C26        -0.0389   -1.3192    0.2042 C.ar       1 <1>        0.000
      5 C27        -0.7448    0.9676   -0.0851 C.ar       1 <1>        0.000
      6 C32        -1.0739   -0.3813    0.0937 C.ar       1 <1>        0.000
      7 O6         -2.4001   -0.7841    0.1606 O.3        1 <1>        0.000
      8 H           2.6583    0.7391   -0.1070 H.spc      1 <1>        0.000
      9 H           2.0939   -1.6570    0.2134 H.spc      1 <1>        0.000
     10 H           0.8435    2.4202   -0.3017 H.spc      1 <1>        0.000
     11 H          -0.2783   -2.3726    0.3496 H.spc      1 <1>        0.000
     12 H          -1.5370    1.7118   -0.1674 H.spc      1 <1>        0.000
     13 H          -2.9711   -0.0180    0.0673 H.spc      1 <1>        0.000
@<TRIPOS>BOND
     1    1    2 ar 
     2    1    3 ar 
     3    2    4 ar 
     4    3    5 ar 
     5    4    6 ar 
     6    5    6 ar 
     7    6    7 1  
     8    1    8 1  
     9    2    9 1  
    10    3   10 1  
    11    4   11 1  
    12    5   12 1  
    13    7   13 1  
# Name:          frag5-489-7503/138278 -- energy: 0.006941
# Creation time: Sat Jun  5 12:53:39 2010


@<TRIPOS>MOLECULE
frag5-489-7503/138278 -- energy: 0.006941
   13    13     1     1     1
SMALL
USER_CHARGES


@<TRIPOS>ATOM
      1 C18         1.6157    0.4263   -0.0507 C.ar       1 <1>        0.000
      2 C21         1.2981   -0.9168    0.1298 C.ar       1 <1>        0.000
      3 C22         0.5975    1.3680   -0.1590 C.ar       1 <1>        0.000
      4 C26        -0.0389   -1.3192    0.2042 C.ar       1 <1>        0.000
      5 C27        -0.7448    0.9676   -0.0851 C.ar       1 <1>        0.000
      6 C32        -1.0739   -0.3813    0.0937 C.ar       1 <1>        0.000
      7 O6         -2.4001   -0.7841    0.1606 O.3        1 <1>        0.000
      8 H           2.6583    0.7391   -0.1070 H.spc      1 <1>        0.000
      9 H           2.0939   -1.6570    0.2134 H.spc      1 <1>        0.000
     10 H           0.8435    2.4202   -0.3017 H.spc      1 <1>        0.000
     11 H          -0.2783   -2.3726    0.3496 H.spc      1 <1>        0.000
     12 H          -1.5370    1.7118   -0.1674 H.spc      1 <1>        0.000
     13 H          -2.9711   -0.0180    0.0673 H.spc      1 <1>        0.000
@<TRIPOS>BOND
     1    1    2 ar 
     2    1    3 ar 
     3    2    4 ar 
     4    3    5 ar 
     5    4    6 ar 
     6    5    6 ar 
     7    6    7 1  
     8    1    8 1  
     9    2    9 1  
    10    3   10 1  
    11    4   11 1  
    12    5   12 1  
    13    7   13 1  
