#      Rotatable Fragment
#      Build by yxyuan
#
# Name:          frag3-225-6/96164
# Creation time: Sat Jun  5 12:53:14 2010


@<TRIPOS>MOLECULE
frag3-225-6/96164
   12    11     1     1     1
SMALL
USER_CHARGES


@<TRIPOS>ATOM
      1 N3         -0.6505   -1.0166    0.0376 N.am       1 <1>        0.000
      2 S2          0.7441   -0.4505   -0.4796 S.o2       1 <1>        0.000
      3 N4          0.7203    1.0240    0.0929 N.am       1 <1>        0.000
      4 O5          0.6403   -0.3438   -1.9187 O.2        1 <1>        0.000
      5 O6          1.8309   -1.1329    0.1702 O.2        1 <1>        0.000
      6 C16         0.7851    1.4112    1.3948 C.2        1 <1>        0.000
      7 O7          1.4167    2.5495    1.5117 O.3        1 <1>        0.000
      8 O8          0.3638    0.6746    2.2613 O.2        1 <1>        0.000
      9 H          -1.3951   -1.2240   -0.6279 H.spc      1 <1>        0.000
     10 H          -0.7997   -1.1720    1.0346 H.spc      1 <1>        0.000
     11 H           0.6478    1.7728   -0.5959 H.spc      1 <1>        0.000
     12 H           1.6194    2.8929    0.6384 H.spc      1 <1>        0.000
@<TRIPOS>BOND
     1    1    2 1  
     2    2    3 1  
     3    2    4 2  
     4    2    5 2  
     5    3    6 am 
     6    6    8 2  
     7    6    7 1  
     8    1    9 1  
     9    1   10 1  
    10    3   11 1  
    11    7   12 1  
# Name:          frag3-225-6/96164
# Creation time: Sat Jun  5 12:53:14 2010


@<TRIPOS>MOLECULE
frag3-225-6/96164
   12    11     1     1     1
SMALL
USER_CHARGES


@<TRIPOS>ATOM
      1 N3         -0.7134   -0.8766   -0.4166 N.am       1 <1>        0.000
      2 S2          0.8254   -0.5354   -0.4101 S.o2       1 <1>        0.000
      3 N4          1.0654    0.1607    0.9768 N.am       1 <1>        0.000
      4 O5          0.9396    0.5121   -1.3927 O.2        1 <1>        0.000
      5 O6          1.5863   -1.7543   -0.4064 O.2        1 <1>        0.000
      6 C16         0.8069    1.4020    1.4956 C.2        1 <1>        0.000
      7 O7          0.4895    2.2754    0.5246 O.3        1 <1>        0.000
      8 O8          0.8508    1.5317    2.6989 O.2        1 <1>        0.000
      9 H          -1.3450   -0.3724   -1.0389 H.spc      1 <1>        0.000
     10 H          -1.0776   -1.6016    0.2015 H.spc      1 <1>        0.000
     11 H           1.5207   -0.4563    1.6494 H.spc      1 <1>        0.000
     12 H           0.5569    1.8415   -0.3291 H.spc      1 <1>        0.000
@<TRIPOS>BOND
     1    1    2 1  
     2    2    3 1  
     3    2    4 2  
     4    2    5 2  
     5    3    6 am 
     6    6    8 2  
     7    6    7 1  
     8    1    9 1  
     9    1   10 1  
    10    3   11 1  
    11    7   12 1  
# Name:          frag3-225-6/96164
# Creation time: Sat Jun  5 12:53:14 2010


@<TRIPOS>MOLECULE
frag3-225-6/96164
   12    11     1     1     1
SMALL
USER_CHARGES


@<TRIPOS>ATOM
      1 N3         -0.6015   -1.0212    0.0375 N.am       1 <1>        0.000
      2 S2          0.7524   -0.4331   -0.4839 S.o2       1 <1>        0.000
      3 N4          0.7466    1.0284    0.0846 N.am       1 <1>        0.000
      4 O5          0.5887   -0.3823   -1.9062 O.2        1 <1>        0.000
      5 O6          1.8504   -1.1448    0.1258 O.2        1 <1>        0.000
      6 C16         0.8148    1.4866    1.3728 C.2        1 <1>        0.000
      7 O7          0.3634    0.6167    2.2951 O.3        1 <1>        0.000
      8 O8          1.3357    2.5652    1.5443 O.2        1 <1>        0.000
      9 H          -1.3399   -1.2644   -0.6228 H.spc      1 <1>        0.000
     10 H          -0.7453   -1.1612    1.0376 H.spc      1 <1>        0.000
     11 H           0.6811    1.7596   -0.6236 H.spc      1 <1>        0.000
     12 H           0.0001   -0.1550    1.8547 H.spc      1 <1>        0.000
@<TRIPOS>BOND
     1    1    2 1  
     2    2    3 1  
     3    2    4 2  
     4    2    5 2  
     5    3    6 am 
     6    6    8 2  
     7    6    7 1  
     8    1    9 1  
     9    1   10 1  
    10    3   11 1  
    11    7   12 1  
# Name:          frag3-225-6/96164
# Creation time: Sat Jun  5 12:53:14 2010


@<TRIPOS>MOLECULE
frag3-225-6/96164
   12    11     1     1     1
SMALL
USER_CHARGES


@<TRIPOS>ATOM
      1 N3         -0.1165   -1.3837    0.5768 N.am       1 <1>        0.000
      2 S2          0.8497   -0.5635   -0.3748 S.o2       1 <1>        0.000
      3 N4          1.4027    0.6089    0.5380 N.am       1 <1>        0.000
      4 O5          0.0488    0.0419   -1.3949 O.2        1 <1>        0.000
      5 O6          1.9936   -1.4071   -0.6400 O.2        1 <1>        0.000
      6 C16         0.7039    1.5752    1.2303 C.2        1 <1>        0.000
      7 O7          1.4506    2.1446    2.1588 O.3        1 <1>        0.000
      8 O8         -0.4823    1.6992    0.9760 O.2        1 <1>        0.000
      9 H          -1.1195   -1.4020    0.3921 H.spc      1 <1>        0.000
     10 H           0.2646   -1.8933    1.3740 H.spc      1 <1>        0.000
     11 H           2.4179    0.6548    0.6254 H.spc      1 <1>        0.000
     12 H           2.3524    1.8241    2.0836 H.spc      1 <1>        0.000
@<TRIPOS>BOND
     1    1    2 1  
     2    2    3 1  
     3    2    4 2  
     4    2    5 2  
     5    3    6 am 
     6    6    8 2  
     7    6    7 1  
     8    1    9 1  
     9    1   10 1  
    10    3   11 1  
    11    7   12 1  
# Name:          frag3-225-6/96164 -- energy: -0.460400
# Creation time: Sat Jun  5 12:53:14 2010


@<TRIPOS>MOLECULE
frag3-225-6/96164 -- energy: -0.460400
   12    11     1     1     1
SMALL
USER_CHARGES


@<TRIPOS>ATOM
      1 N3         -0.6505   -1.0166    0.0376 N.am       1 <1>        0.000
      2 S2          0.7441   -0.4505   -0.4796 S.o2       1 <1>        0.000
      3 N4          0.7203    1.0240    0.0929 N.am       1 <1>        0.000
      4 O5          0.6403   -0.3438   -1.9187 O.2        1 <1>        0.000
      5 O6          1.8309   -1.1329    0.1702 O.2        1 <1>        0.000
      6 C16         0.7851    1.4112    1.3948 C.2        1 <1>        0.000
      7 O7          1.4167    2.5495    1.5117 O.3        1 <1>        0.000
      8 O8          0.3638    0.6746    2.2613 O.2        1 <1>        0.000
      9 H          -1.3951   -1.2240   -0.6279 H.spc      1 <1>        0.000
     10 H          -0.7997   -1.1720    1.0346 H.spc      1 <1>        0.000
     11 H           0.6478    1.7728   -0.5959 H.spc      1 <1>        0.000
     12 H           1.6194    2.8929    0.6384 H.spc      1 <1>        0.000
@<TRIPOS>BOND
     1    1    2 1  
     2    2    3 1  
     3    2    4 2  
     4    2    5 2  
     5    3    6 am 
     6    6    8 2  
     7    6    7 1  
     8    1    9 1  
     9    1   10 1  
    10    3   11 1  
    11    7   12 1  
# Name:          frag3-225-6/96164 -- energy: -0.295758
# Creation time: Sat Jun  5 12:53:14 2010


@<TRIPOS>MOLECULE
frag3-225-6/96164 -- energy: -0.295758
   12    11     1     1     1
SMALL
USER_CHARGES


@<TRIPOS>ATOM
      1 N3         -0.1165   -1.3837    0.5768 N.am       1 <1>        0.000
      2 S2          0.8497   -0.5635   -0.3748 S.o2       1 <1>        0.000
      3 N4          1.4027    0.6089    0.5380 N.am       1 <1>        0.000
      4 O5          0.0488    0.0419   -1.3949 O.2        1 <1>        0.000
      5 O6          1.9936   -1.4071   -0.6400 O.2        1 <1>        0.000
      6 C16         0.7039    1.5752    1.2303 C.2        1 <1>        0.000
      7 O7          1.4506    2.1446    2.1588 O.3        1 <1>        0.000
      8 O8         -0.4823    1.6992    0.9760 O.2        1 <1>        0.000
      9 H          -1.1195   -1.4020    0.3921 H.spc      1 <1>        0.000
     10 H           0.2646   -1.8933    1.3740 H.spc      1 <1>        0.000
     11 H           2.4179    0.6548    0.6254 H.spc      1 <1>        0.000
     12 H           2.3524    1.8241    2.0836 H.spc      1 <1>        0.000
@<TRIPOS>BOND
     1    1    2 1  
     2    2    3 1  
     3    2    4 2  
     4    2    5 2  
     5    3    6 am 
     6    6    8 2  
     7    6    7 1  
     8    1    9 1  
     9    1   10 1  
    10    3   11 1  
    11    7   12 1  
