#      Rotatable Fragment
#      Build by yxyuan
#
# Name:          frag3-122-44/31924
# Creation time: Sat Jun  5 12:52:02 2010


@<TRIPOS>MOLECULE
frag3-122-44/31924
    4     3     1     1     1
SMALL
USER_CHARGES


@<TRIPOS>ATOM
      1 O2          0.7253   -0.4764   -0.1037 O.3        1 <1>        0.000
      2 O3         -0.7309   -0.3761    0.0434 O.3        1 <1>        0.000
      3 H           0.9336   -1.1260   -0.7791 H.spc      1 <1>        0.000
      4 H          -0.9392    0.2735    0.7188 H.spc      1 <1>        0.000
@<TRIPOS>BOND
     1    1    2 1  
     2    1    3 1  
     3    2    4 1  
# Name:          frag3-122-44/31924 -- energy: -0.013863
# Creation time: Sat Jun  5 12:52:02 2010


@<TRIPOS>MOLECULE
frag3-122-44/31924 -- energy: -0.013863
    4     3     1     1     1
SMALL
USER_CHARGES


@<TRIPOS>ATOM
      1 O2          0.7253   -0.4764   -0.1037 O.3        1 <1>        0.000
      2 O3         -0.7309   -0.3761    0.0434 O.3        1 <1>        0.000
      3 H           0.9336   -1.1260   -0.7791 H.spc      1 <1>        0.000
      4 H          -0.9392    0.2735    0.7188 H.spc      1 <1>        0.000
@<TRIPOS>BOND
     1    1    2 1  
     2    1    3 1  
     3    2    4 1  
