#      Rotatable Fragment
#      Build by yxyuan
#
# Name:          frag4-356-113/48856
# Creation time: Sat Jun  5 12:53:10 2010


@<TRIPOS>MOLECULE
frag4-356-113/48856
   17    17     1     1     1
SMALL
USER_CHARGES


@<TRIPOS>ATOM
      1 N1          5.5951    3.9686    1.5415 N.3        1 <1>        0.000
      2 C1          6.3794    3.5937    2.7118 C.3        1 <1>        0.000
      3 C2          7.8780    3.7848    2.4397 C.3        1 <1>        0.000
      4 N2          8.3270    4.9006    1.5965 N.4        1 <1>        0.000
      5 C3          7.2064    5.7363    1.1574 C.3        1 <1>        0.000
      6 C4          6.0029    4.9764    0.6081 C.3        1 <1>        0.000
      7 H           5.6028    3.1181    0.9784 H.spc      1 <1>        0.000
      8 H           6.1925    2.5447    2.9417 H.spc      1 <1>        0.000
      9 H           6.0885    4.2267    3.5502 H.spc      1 <1>        0.000
     10 H           8.1750    2.8897    1.8931 H.spc      1 <1>        0.000
     11 H           8.3120    3.9876    3.4188 H.spc      1 <1>        0.000
     12 H           8.7822    4.5144    0.7694 H.spc      1 <1>        0.000
     13 H           8.9637    5.4799    2.1437 H.spc      1 <1>        0.000
     14 H           6.8584    6.2789    2.0364 H.spc      1 <1>        0.000
     15 H           7.5806    6.3583    0.3442 H.spc      1 <1>        0.000
     16 H           6.2763    4.5034   -0.3351 H.spc      1 <1>        0.000
     17 H           5.1799    5.6731    0.4488 H.spc      1 <1>        0.000
@<TRIPOS>BOND
     1    5    6 1  
     2    1    6 1  
     3    1    2 1  
     4    2    3 1  
     5    3    4 1  
     6    4    5 1  
     7    1    7 1  
     8    2    8 1  
     9    2    9 1  
    10    3   10 1  
    11    3   11 1  
    12    4   12 1  
    13    4   13 1  
    14    5   14 1  
    15    5   15 1  
    16    6   16 1  
    17    6   17 1  
# Name:          frag4-356-113/48856 -- energy: -1.041768
# Creation time: Sat Jun  5 12:53:10 2010


@<TRIPOS>MOLECULE
frag4-356-113/48856 -- energy: -1.041768
   17    17     1     1     1
SMALL
USER_CHARGES


@<TRIPOS>ATOM
      1 N1          5.5951    3.9686    1.5415 N.3        1 <1>        0.000
      2 C1          6.3794    3.5937    2.7118 C.3        1 <1>        0.000
      3 C2          7.8780    3.7848    2.4397 C.3        1 <1>        0.000
      4 N2          8.3270    4.9006    1.5965 N.4        1 <1>        0.000
      5 C3          7.2064    5.7363    1.1574 C.3        1 <1>        0.000
      6 C4          6.0029    4.9764    0.6081 C.3        1 <1>        0.000
      7 H           5.6028    3.1181    0.9784 H.spc      1 <1>        0.000
      8 H           6.1925    2.5447    2.9417 H.spc      1 <1>        0.000
      9 H           6.0885    4.2267    3.5502 H.spc      1 <1>        0.000
     10 H           8.1750    2.8897    1.8931 H.spc      1 <1>        0.000
     11 H           8.3120    3.9876    3.4188 H.spc      1 <1>        0.000
     12 H           8.7822    4.5144    0.7694 H.spc      1 <1>        0.000
     13 H           8.9637    5.4799    2.1437 H.spc      1 <1>        0.000
     14 H           6.8584    6.2789    2.0364 H.spc      1 <1>        0.000
     15 H           7.5806    6.3583    0.3442 H.spc      1 <1>        0.000
     16 H           6.2763    4.5034   -0.3351 H.spc      1 <1>        0.000
     17 H           5.1799    5.6731    0.4488 H.spc      1 <1>        0.000
@<TRIPOS>BOND
     1    5    6 1  
     2    1    6 1  
     3    1    2 1  
     4    2    3 1  
     5    3    4 1  
     6    4    5 1  
     7    1    7 1  
     8    2    8 1  
     9    2    9 1  
    10    3   10 1  
    11    3   11 1  
    12    4   12 1  
    13    4   13 1  
    14    5   14 1  
    15    5   15 1  
    16    6   16 1  
    17    6   17 1  
