#      Rotatable Fragment
#      Build by yxyuan
#
# Name:          frag2-054-40/319335
# Creation time: Sat Jun  5 12:53:43 2010


@<TRIPOS>MOLECULE
frag2-054-40/319335
   14    15     1     1     1
SMALL
USER_CHARGES


@<TRIPOS>ATOM
      1 C1         -0.1989    0.5762   -0.3504 C.ar       1 <1>        0.000
      2 C2         -1.5462    0.7593   -0.6045 C.ar       1 <1>        0.000
      3 C3          0.2010   -0.5774    0.3512 C.ar       1 <1>        0.000
      4 N1          0.7495    1.4544   -0.7441 N.ar       1 <1>        0.000
      5 N3         -2.4535   -0.1349   -0.1973 N.ar       1 <1>        0.000
      6 C4          1.5458   -0.7606    0.6051 C.ar       1 <1>        0.000
      7 N4         -0.7482   -1.4559    0.7450 N.ar       1 <1>        0.000
      8 C5          2.0523    1.2402   -0.4767 C.ar       1 <1>        0.000
      9 C7         -2.0543   -1.2393    0.4761 C.ar       1 <1>        0.000
     10 N5          2.4552    0.1364    0.1968 N.ar       1 <1>        0.000
     11 H          -1.8738    1.6470   -1.1455 H.spc      1 <1>        0.000
     12 H           1.8734   -1.6484    1.1460 H.spc      1 <1>        0.000
     13 H           2.7942    1.9669   -0.8077 H.spc      1 <1>        0.000
     14 H          -2.7978   -1.9647    0.8063 H.spc      1 <1>        0.000
@<TRIPOS>BOND
     1    1    2 ar 
     2    1    3 ar 
     3    1    4 ar 
     4    2    5 ar 
     5    3    6 ar 
     6    3    7 ar 
     7    4    8 ar 
     8    5    9 ar 
     9    6   10 ar 
    10    7    9 ar 
    11    8   10 ar 
    12    2   11 1  
    13    6   12 1  
    14    8   13 1  
    15    9   14 1  
# Name:          frag2-054-40/319335 -- energy: 0.304968
# Creation time: Sat Jun  5 12:53:43 2010


@<TRIPOS>MOLECULE
frag2-054-40/319335 -- energy: 0.304968
   14    15     1     1     1
SMALL
USER_CHARGES


@<TRIPOS>ATOM
      1 C1         -0.1989    0.5762   -0.3504 C.ar       1 <1>        0.000
      2 C2         -1.5462    0.7593   -0.6045 C.ar       1 <1>        0.000
      3 C3          0.2010   -0.5774    0.3512 C.ar       1 <1>        0.000
      4 N1          0.7495    1.4544   -0.7441 N.ar       1 <1>        0.000
      5 N3         -2.4535   -0.1349   -0.1973 N.ar       1 <1>        0.000
      6 C4          1.5458   -0.7606    0.6051 C.ar       1 <1>        0.000
      7 N4         -0.7482   -1.4559    0.7450 N.ar       1 <1>        0.000
      8 C5          2.0523    1.2402   -0.4767 C.ar       1 <1>        0.000
      9 C7         -2.0543   -1.2393    0.4761 C.ar       1 <1>        0.000
     10 N5          2.4552    0.1364    0.1968 N.ar       1 <1>        0.000
     11 H          -1.8738    1.6470   -1.1455 H.spc      1 <1>        0.000
     12 H           1.8734   -1.6484    1.1460 H.spc      1 <1>        0.000
     13 H           2.7942    1.9669   -0.8077 H.spc      1 <1>        0.000
     14 H          -2.7978   -1.9647    0.8063 H.spc      1 <1>        0.000
@<TRIPOS>BOND
     1    1    2 ar 
     2    1    3 ar 
     3    1    4 ar 
     4    2    5 ar 
     5    3    6 ar 
     6    3    7 ar 
     7    4    8 ar 
     8    5    9 ar 
     9    6   10 ar 
    10    7    9 ar 
    11    8   10 ar 
    12    2   11 1  
    13    6   12 1  
    14    8   13 1  
    15    9   14 1  
