#      Rotatable Fragment
#      Build by yxyuan
#
# Name:          frag5-501-244/41815
# Creation time: Sat Jun  5 12:52:50 2010


@<TRIPOS>MOLECULE
frag5-501-244/41815
   14    15     1     1     1
SMALL
USER_CHARGES


@<TRIPOS>ATOM
      1 N1         -2.0060    0.8575    0.0258 N.ar       1 <1>        0.000
      2 C1         -0.7206    0.9445    0.0642 C.ar       1 <1>        0.000
      3 N2          0.0986    2.0329    0.1069 N.ar       1 <1>        0.000
      4 C2          1.3833    1.8357    0.0014 C.ar       1 <1>        0.000
      5 N3          1.8945    0.5715    0.1577 N.ar       1 <1>        0.000
      6 C3          1.1642   -0.6115    0.1015 C.ar       1 <1>        0.000
      7 C4         -0.1903   -0.4848    0.0190 C.ar       1 <1>        0.000
      8 N4         -1.2617   -1.3411   -0.0899 N.ar       1 <1>        0.000
      9 C5         -2.3400   -0.6351   -0.0550 C.ar       1 <1>        0.000
     10 N5          1.7366   -1.8402    0.0441 N.pl3      1 <1>        0.000
     11 H           2.0492    2.6723   -0.2103 H.spc      1 <1>        0.000
     12 H          -3.3501   -1.0441   -0.0796 H.spc      1 <1>        0.000
     13 H           2.7526   -1.9298    0.0406 H.spc      1 <1>        0.000
     14 H           1.1509   -2.6743    0.0044 H.spc      1 <1>        0.000
@<TRIPOS>BOND
     1    1    2 ar 
     2    1    9 ar 
     3    2    3 ar 
     4    2    7 ar 
     5    3    4 ar 
     6    4    5 ar 
     7    5    6 ar 
     8    6    7 ar 
     9    6   10 1  
    10    7    8 ar 
    11    8    9 ar 
    12    4   11 1  
    13    9   12 1  
    14   10   13 1  
    15   10   14 1  
# Name:          frag5-501-244/41815 -- energy: -0.497685
# Creation time: Sat Jun  5 12:52:50 2010


@<TRIPOS>MOLECULE
frag5-501-244/41815 -- energy: -0.497685
   14    15     1     1     1
SMALL
USER_CHARGES


@<TRIPOS>ATOM
      1 N1         -2.0060    0.8575    0.0258 N.ar       1 <1>        0.000
      2 C1         -0.7206    0.9445    0.0642 C.ar       1 <1>        0.000
      3 N2          0.0986    2.0329    0.1069 N.ar       1 <1>        0.000
      4 C2          1.3833    1.8357    0.0014 C.ar       1 <1>        0.000
      5 N3          1.8945    0.5715    0.1577 N.ar       1 <1>        0.000
      6 C3          1.1642   -0.6115    0.1015 C.ar       1 <1>        0.000
      7 C4         -0.1903   -0.4848    0.0190 C.ar       1 <1>        0.000
      8 N4         -1.2617   -1.3411   -0.0899 N.ar       1 <1>        0.000
      9 C5         -2.3400   -0.6351   -0.0550 C.ar       1 <1>        0.000
     10 N5          1.7366   -1.8402    0.0441 N.pl3      1 <1>        0.000
     11 H           2.0492    2.6723   -0.2103 H.spc      1 <1>        0.000
     12 H          -3.3501   -1.0441   -0.0796 H.spc      1 <1>        0.000
     13 H           2.7526   -1.9298    0.0406 H.spc      1 <1>        0.000
     14 H           1.1509   -2.6743    0.0044 H.spc      1 <1>        0.000
@<TRIPOS>BOND
     1    1    2 ar 
     2    1    9 ar 
     3    2    3 ar 
     4    2    7 ar 
     5    3    4 ar 
     6    4    5 ar 
     7    5    6 ar 
     8    6    7 ar 
     9    6   10 1  
    10    7    8 ar 
    11    8    9 ar 
    12    4   11 1  
    13    9   12 1  
    14   10   13 1  
    15   10   14 1  
