#      Rotatable Fragment
#      Build by yxyuan
#
# Name:          frag4-379-258/150395
# Creation time: Sat Jun  5 12:53:32 2010


@<TRIPOS>MOLECULE
frag4-379-258/150395
   13    14     1     1     1
SMALL
USER_CHARGES


@<TRIPOS>ATOM
      1 C1          0.0509    0.7878    0.2182 C.ar       1 <1>        0.000
      2 C2          0.0444   -0.6128   -0.3651 C.ar       1 <1>        0.000
      3 N1          1.2616    1.0719    0.4496 N.ar       1 <1>        0.000
      4 N2         -1.1115    1.4841    0.4095 N.ar       1 <1>        0.000
      5 C3          1.3862   -1.0718   -0.3815 C.ar       1 <1>        0.000
      6 C4         -1.1774   -1.0653   -0.6212 C.ar       1 <1>        0.000
      7 C5          2.0713   -0.0216    0.1064 C.ar       1 <1>        0.000
      8 C7         -2.2336    0.8414    0.2771 C.ar       1 <1>        0.000
      9 N3         -2.2941   -0.3502   -0.3629 N.ar       1 <1>        0.000
     10 H           1.7687   -2.0385   -0.7091 H.spc      1 <1>        0.000
     11 H          -1.2841   -2.0577   -1.0592 H.spc      1 <1>        0.000
     12 H           3.1549   -0.0203    0.2242 H.spc      1 <1>        0.000
     13 H          -3.1460    1.2713    0.6905 H.spc      1 <1>        0.000
@<TRIPOS>BOND
     1    1    2 ar 
     2    1    3 ar 
     3    1    4 ar 
     4    2    5 ar 
     5    2    6 ar 
     6    3    7 ar 
     7    4    8 ar 
     8    5    7 ar 
     9    6    9 ar 
    10    8    9 ar 
    11    5   10 1  
    12    6   11 1  
    13    7   12 1  
    14    8   13 1  
# Name:          frag4-379-258/150395 -- energy: -0.271430
# Creation time: Sat Jun  5 12:53:32 2010


@<TRIPOS>MOLECULE
frag4-379-258/150395 -- energy: -0.271430
   13    14     1     1     1
SMALL
USER_CHARGES


@<TRIPOS>ATOM
      1 C1          0.0509    0.7878    0.2182 C.ar       1 <1>        0.000
      2 C2          0.0444   -0.6128   -0.3651 C.ar       1 <1>        0.000
      3 N1          1.2616    1.0719    0.4496 N.ar       1 <1>        0.000
      4 N2         -1.1115    1.4841    0.4095 N.ar       1 <1>        0.000
      5 C3          1.3862   -1.0718   -0.3815 C.ar       1 <1>        0.000
      6 C4         -1.1774   -1.0653   -0.6212 C.ar       1 <1>        0.000
      7 C5          2.0713   -0.0216    0.1064 C.ar       1 <1>        0.000
      8 C7         -2.2336    0.8414    0.2771 C.ar       1 <1>        0.000
      9 N3         -2.2941   -0.3502   -0.3629 N.ar       1 <1>        0.000
     10 H           1.7687   -2.0385   -0.7091 H.spc      1 <1>        0.000
     11 H          -1.2841   -2.0577   -1.0592 H.spc      1 <1>        0.000
     12 H           3.1549   -0.0203    0.2242 H.spc      1 <1>        0.000
     13 H          -3.1460    1.2713    0.6905 H.spc      1 <1>        0.000
@<TRIPOS>BOND
     1    1    2 ar 
     2    1    3 ar 
     3    1    4 ar 
     4    2    5 ar 
     5    2    6 ar 
     6    3    7 ar 
     7    4    8 ar 
     8    5    7 ar 
     9    6    9 ar 
    10    8    9 ar 
    11    5   10 1  
    12    6   11 1  
    13    7   12 1  
    14    8   13 1  
