#      Rotatable Fragment
#      Build by yxyuan
#
# Name:          frag3-258-4/96164
# Creation time: Sat Jun  5 12:53:21 2010


@<TRIPOS>MOLECULE
frag3-258-4/96164
    8     7     1     1     1
SMALL
USER_CHARGES


@<TRIPOS>ATOM
      1 S1          2.8242    0.8454    0.7682 S.3        1 <1>        0.000
      2 P1          1.4814   -0.2146   -0.2374 P.3        1 <1>        0.000
      3 O4          1.0152    0.4343   -1.5649 O.3        1 <1>        0.000
      4 O5          2.0604   -1.4311   -0.7187 O.2        1 <1>        0.000
      5 O6          0.2484   -0.7710    0.5333 O.3        1 <1>        0.000
      6 H           2.2630    1.9694    1.2046 H.spc      1 <1>        0.000
      7 H           0.5986    1.2788   -1.3780 H.spc      1 <1>        0.000
      8 H          -0.2433   -0.0415    0.9175 H.spc      1 <1>        0.000
@<TRIPOS>BOND
     1    1    2 1  
     2    2    3 1  
     3    2    4 2  
     4    2    5 1  
     5    1    6 1  
     6    3    7 1  
     7    5    8 1  
# Name:          frag3-258-4/96164 -- energy: -0.312541
# Creation time: Sat Jun  5 12:53:21 2010


@<TRIPOS>MOLECULE
frag3-258-4/96164 -- energy: -0.312541
    8     7     1     1     1
SMALL
USER_CHARGES


@<TRIPOS>ATOM
      1 S1          2.8242    0.8454    0.7682 S.3        1 <1>        0.000
      2 P1          1.4814   -0.2146   -0.2374 P.3        1 <1>        0.000
      3 O4          1.0152    0.4343   -1.5649 O.3        1 <1>        0.000
      4 O5          2.0604   -1.4311   -0.7187 O.2        1 <1>        0.000
      5 O6          0.2484   -0.7710    0.5333 O.3        1 <1>        0.000
      6 H           2.2630    1.9694    1.2046 H.spc      1 <1>        0.000
      7 H           0.5986    1.2788   -1.3780 H.spc      1 <1>        0.000
      8 H          -0.2433   -0.0415    0.9175 H.spc      1 <1>        0.000
@<TRIPOS>BOND
     1    1    2 1  
     2    2    3 1  
     3    2    4 2  
     4    2    5 1  
     5    1    6 1  
     6    3    7 1  
     7    5    8 1  
