#      Rotatable Fragment
#      Build by yxyuan
#
# Name:          frag4-340-147/48856
# Creation time: Sat Jun  5 12:52:57 2010


@<TRIPOS>MOLECULE
frag4-340-147/48856
   22    23     1     1     1
SMALL
USER_CHARGES


@<TRIPOS>ATOM
      1 N1          1.2278    0.4678    1.1953 N.4        1 <1>        0.000
      2 C1          0.3785   -0.5365    0.5127 C.3        1 <1>        0.000
      3 C2          0.4787   -0.1212   -0.9651 C.3        1 <1>        0.000
      4 C3          1.8715    0.5333   -1.0759 C.3        1 <1>        0.000
      5 C4          2.4437    0.4356    0.3488 C.3        1 <1>        0.000
      6 C5          3.2156   -0.8808    0.5641 C.3        1 <1>        0.000
      7 C6          2.3611   -2.1052    0.2098 C.3        1 <1>        0.000
      8 C7          0.9305   -1.9567    0.7447 C.3        1 <1>        0.000
      9 H           1.4043    0.2584    2.1778 H.spc      1 <1>        0.000
     10 H           0.7990    1.3906    1.2653 H.spc      1 <1>        0.000
     11 H          -0.6497   -0.5636    0.8734 H.spc      1 <1>        0.000
     12 H           0.3659   -0.9690   -1.6408 H.spc      1 <1>        0.000
     13 H          -0.3214    0.5585   -1.2582 H.spc      1 <1>        0.000
     14 H           1.8170    1.5630   -1.4293 H.spc      1 <1>        0.000
     15 H           2.5046    0.0352   -1.8102 H.spc      1 <1>        0.000
     16 H           3.1573    1.2290    0.5708 H.spc      1 <1>        0.000
     17 H           3.4922   -0.9482    1.6163 H.spc      1 <1>        0.000
     18 H           4.0919   -0.8747   -0.0841 H.spc      1 <1>        0.000
     19 H           2.3190   -2.1980   -0.8754 H.spc      1 <1>        0.000
     20 H           2.8124   -2.9876    0.6634 H.spc      1 <1>        0.000
     21 H           0.2914   -2.6638    0.2158 H.spc      1 <1>        0.000
     22 H           0.9438   -2.1485    1.8176 H.spc      1 <1>        0.000
@<TRIPOS>BOND
     1    2    8 1  
     2    3    4 1  
     3    5    6 1  
     4    7    8 1  
     5    4    5 1  
     6    2    3 1  
     7    1    2 1  
     8    1    5 1  
     9    6    7 1  
    10    1    9 1  
    11    1   10 1  
    12    2   11 1  
    13    3   12 1  
    14    3   13 1  
    15    4   14 1  
    16    4   15 1  
    17    5   16 1  
    18    6   17 1  
    19    6   18 1  
    20    7   19 1  
    21    7   20 1  
    22    8   21 1  
    23    8   22 1  
# Name:          frag4-340-147/48856 -- energy: -2.531230
# Creation time: Sat Jun  5 12:52:58 2010


@<TRIPOS>MOLECULE
frag4-340-147/48856 -- energy: -2.531230
   22    23     1     1     1
SMALL
USER_CHARGES


@<TRIPOS>ATOM
      1 N1          1.2278    0.4678    1.1953 N.4        1 <1>        0.000
      2 C1          0.3785   -0.5365    0.5127 C.3        1 <1>        0.000
      3 C2          0.4787   -0.1212   -0.9651 C.3        1 <1>        0.000
      4 C3          1.8715    0.5333   -1.0759 C.3        1 <1>        0.000
      5 C4          2.4437    0.4356    0.3488 C.3        1 <1>        0.000
      6 C5          3.2156   -0.8808    0.5641 C.3        1 <1>        0.000
      7 C6          2.3611   -2.1052    0.2098 C.3        1 <1>        0.000
      8 C7          0.9305   -1.9567    0.7447 C.3        1 <1>        0.000
      9 H           1.4043    0.2584    2.1778 H.spc      1 <1>        0.000
     10 H           0.7990    1.3906    1.2653 H.spc      1 <1>        0.000
     11 H          -0.6497   -0.5636    0.8734 H.spc      1 <1>        0.000
     12 H           0.3659   -0.9690   -1.6408 H.spc      1 <1>        0.000
     13 H          -0.3214    0.5585   -1.2582 H.spc      1 <1>        0.000
     14 H           1.8170    1.5630   -1.4293 H.spc      1 <1>        0.000
     15 H           2.5046    0.0352   -1.8102 H.spc      1 <1>        0.000
     16 H           3.1573    1.2290    0.5708 H.spc      1 <1>        0.000
     17 H           3.4922   -0.9482    1.6163 H.spc      1 <1>        0.000
     18 H           4.0919   -0.8747   -0.0841 H.spc      1 <1>        0.000
     19 H           2.3190   -2.1980   -0.8754 H.spc      1 <1>        0.000
     20 H           2.8124   -2.9876    0.6634 H.spc      1 <1>        0.000
     21 H           0.2914   -2.6638    0.2158 H.spc      1 <1>        0.000
     22 H           0.9438   -2.1485    1.8176 H.spc      1 <1>        0.000
@<TRIPOS>BOND
     1    2    8 1  
     2    3    4 1  
     3    5    6 1  
     4    7    8 1  
     5    4    5 1  
     6    2    3 1  
     7    1    2 1  
     8    1    5 1  
     9    6    7 1  
    10    1    9 1  
    11    1   10 1  
    12    2   11 1  
    13    3   12 1  
    14    3   13 1  
    15    4   14 1  
    16    4   15 1  
    17    5   16 1  
    18    6   17 1  
    19    6   18 1  
    20    7   19 1  
    21    7   20 1  
    22    8   21 1  
    23    8   22 1  
