#      Rotatable Fragment
#      Build by yxyuan
#
# Name:          frag3-209-4/31924
# Creation time: Sat Jun  5 12:52:20 2010


@<TRIPOS>MOLECULE
frag3-209-4/31924
    7     6     1     1     1
SMALL
USER_CHARGES


@<TRIPOS>ATOM
      1 N1          2.3166    0.3013   -0.8130 N.4        1 <1>        0.000
      2 N2          2.2204    1.6718   -0.7702 N.3        1 <1>        0.000
      3 H           1.6288   -0.0662   -1.4704 H.spc      1 <1>        0.000
      4 H           3.2539    0.0368   -1.1163 H.spc      1 <1>        0.000
      5 H           2.1383   -0.0800    0.1161 H.spc      1 <1>        0.000
      6 H           2.9082    2.0393   -0.1128 H.spc      1 <1>        0.000
      7 H           2.3987    2.0531   -1.6993 H.spc      1 <1>        0.000
@<TRIPOS>BOND
     1    1    2 1  
     2    1    3 1  
     3    1    4 1  
     4    1    5 1  
     5    2    6 1  
     6    2    7 1  
# Name:          frag3-209-4/31924 -- energy: -0.096023
# Creation time: Sat Jun  5 12:52:20 2010


@<TRIPOS>MOLECULE
frag3-209-4/31924 -- energy: -0.096023
    7     6     1     1     1
SMALL
USER_CHARGES


@<TRIPOS>ATOM
      1 N1          2.3166    0.3013   -0.8130 N.4        1 <1>        0.000
      2 N2          2.2204    1.6718   -0.7702 N.3        1 <1>        0.000
      3 H           1.6288   -0.0662   -1.4704 H.spc      1 <1>        0.000
      4 H           3.2539    0.0368   -1.1163 H.spc      1 <1>        0.000
      5 H           2.1383   -0.0800    0.1161 H.spc      1 <1>        0.000
      6 H           2.9082    2.0393   -0.1128 H.spc      1 <1>        0.000
      7 H           2.3987    2.0531   -1.6993 H.spc      1 <1>        0.000
@<TRIPOS>BOND
     1    1    2 1  
     2    1    3 1  
     3    1    4 1  
     4    1    5 1  
     5    2    6 1  
     6    2    7 1  
