#      Rotatable Fragment
#      Build by yxyuan
#
# Name:          frag5-646-27/41815
# Creation time: Sat Jun  5 12:53:01 2010


@<TRIPOS>MOLECULE
frag5-646-27/41815
   16    17     1     1     1
SMALL
USER_CHARGES


@<TRIPOS>ATOM
      1 N1          2.3287    0.6656    0.0860 N.ar       1 <1>        0.000
      2 C3          2.3326   -0.6943    0.0079 C.ar       1 <1>        0.000
      3 N2          1.2433   -1.3321    0.0331 N.ar       1 <1>        0.000
      4 C4         -0.0038   -0.6955    0.0293 C.ar       1 <1>        0.000
      5 C5          0.0113    0.7197    0.0309 C.ar       1 <1>        0.000
      6 C6         -1.2272    1.3651   -0.0446 C.ar       1 <1>        0.000
      7 C7         -2.4271    0.6584   -0.1215 C.ar       1 <1>        0.000
      8 C8         -2.4158   -0.7209   -0.1204 C.ar       1 <1>        0.000
      9 C9         -1.2114   -1.3943   -0.0314 C.ar       1 <1>        0.000
     10 C10         1.3088    1.4101    0.0962 C.ar       1 <1>        0.000
     11 O1          1.3613    2.5784    0.1694 O.2        1 <1>        0.000
     12 O2          3.3779   -1.2222    0.0087 O.2        1 <1>        0.000
     13 H          -1.2555    2.4547   -0.0433 H.spc      1 <1>        0.000
     14 H          -3.3734    1.1958   -0.1824 H.spc      1 <1>        0.000
     15 H          -3.3509   -1.2768   -0.1893 H.spc      1 <1>        0.000
     16 H          -1.2044   -2.4840   -0.0083 H.spc      1 <1>        0.000
@<TRIPOS>BOND
     1    7    8 ar 
     2    5   10 ar 
     3   10   11 2  
     4    5    6 ar 
     5    6    7 ar 
     6    4    9 ar 
     7    8    9 ar 
     8    1    2 ar 
     9    1   10 ar 
    10    2    3 ar 
    11    2   12 2  
    12    3    4 ar 
    13    4    5 ar 
    14    6   13 1  
    15    7   14 1  
    16    8   15 1  
    17    9   16 1  
# Name:          frag5-646-27/41815 -- energy: -0.178764
# Creation time: Sat Jun  5 12:53:01 2010


@<TRIPOS>MOLECULE
frag5-646-27/41815 -- energy: -0.178764
   16    17     1     1     1
SMALL
USER_CHARGES


@<TRIPOS>ATOM
      1 N1          2.3287    0.6656    0.0860 N.ar       1 <1>        0.000
      2 C3          2.3326   -0.6943    0.0079 C.ar       1 <1>        0.000
      3 N2          1.2433   -1.3321    0.0331 N.ar       1 <1>        0.000
      4 C4         -0.0038   -0.6955    0.0293 C.ar       1 <1>        0.000
      5 C5          0.0113    0.7197    0.0309 C.ar       1 <1>        0.000
      6 C6         -1.2272    1.3651   -0.0446 C.ar       1 <1>        0.000
      7 C7         -2.4271    0.6584   -0.1215 C.ar       1 <1>        0.000
      8 C8         -2.4158   -0.7209   -0.1204 C.ar       1 <1>        0.000
      9 C9         -1.2114   -1.3943   -0.0314 C.ar       1 <1>        0.000
     10 C10         1.3088    1.4101    0.0962 C.ar       1 <1>        0.000
     11 O1          1.3613    2.5784    0.1694 O.2        1 <1>        0.000
     12 O2          3.3779   -1.2222    0.0087 O.2        1 <1>        0.000
     13 H          -1.2555    2.4547   -0.0433 H.spc      1 <1>        0.000
     14 H          -3.3734    1.1958   -0.1824 H.spc      1 <1>        0.000
     15 H          -3.3509   -1.2768   -0.1893 H.spc      1 <1>        0.000
     16 H          -1.2044   -2.4840   -0.0083 H.spc      1 <1>        0.000
@<TRIPOS>BOND
     1    7    8 ar 
     2    5   10 ar 
     3   10   11 2  
     4    5    6 ar 
     5    6    7 ar 
     6    4    9 ar 
     7    8    9 ar 
     8    1    2 ar 
     9    1   10 ar 
    10    2    3 ar 
    11    2   12 2  
    12    3    4 ar 
    13    4    5 ar 
    14    6   13 1  
    15    7   14 1  
    16    8   15 1  
    17    9   16 1  
