#      Rotatable Fragment
#      Build by yxyuan
#
# Name:          frag5-619-90/138278
# Creation time: Sat Jun  5 12:53:48 2010


@<TRIPOS>MOLECULE
frag5-619-90/138278
   17    17     1     1     1
SMALL
USER_CHARGES


@<TRIPOS>ATOM
      1 N5         -1.1541   -2.4639   -1.1771 N.am       1 <1>        0.000
      2 C14        -2.3912   -1.9064   -1.1269 C.2        1 <1>        0.000
      3 O4         -2.4018   -0.7629   -0.3884 O.3        1 <1>        0.000
      4 O5         -3.3592   -2.3722   -1.6790 O.2        1 <1>        0.000
      5 C24        -3.6392   -0.1311   -0.3226 C.ar       1 <1>        0.000
      6 C28        -4.7771   -0.7954    0.1565 C.ar       1 <1>        0.000
      7 C29        -3.7801    1.2150   -0.7155 C.ar       1 <1>        0.000
      8 C31        -6.0068   -0.1558    0.2422 C.ar       1 <1>        0.000
      9 C32        -5.0025    1.8707   -0.6107 C.ar       1 <1>        0.000
     10 C35        -6.1215    1.1837   -0.1349 C.ar       1 <1>        0.000
     11 H          -1.0036   -3.3247   -1.7031 H.spc      1 <1>        0.000
     12 H          -0.3753   -2.0218   -0.6888 H.spc      1 <1>        0.000
     13 H          -4.6948   -1.8365    0.4685 H.spc      1 <1>        0.000
     14 H          -2.9164    1.7516   -1.1082 H.spc      1 <1>        0.000
     15 H          -6.8806   -0.6983    0.6031 H.spc      1 <1>        0.000
     16 H          -5.0868    2.9184   -0.8993 H.spc      1 <1>        0.000
     17 H          -7.0825    1.6922   -0.0581 H.spc      1 <1>        0.000
@<TRIPOS>BOND
     1    9   10 ar 
     2    7    9 ar 
     3    8   10 ar 
     4    1    2 am 
     5    2    3 1  
     6    2    4 2  
     7    3    5 1  
     8    5    6 ar 
     9    5    7 ar 
    10    6    8 ar 
    11    1   11 1  
    12    1   12 1  
    13    6   13 1  
    14    7   14 1  
    15    8   15 1  
    16    9   16 1  
    17   10   17 1  
# Name:          frag5-619-90/138278
# Creation time: Sat Jun  5 12:53:48 2010


@<TRIPOS>MOLECULE
frag5-619-90/138278
   17    17     1     1     1
SMALL
USER_CHARGES


@<TRIPOS>ATOM
      1 N5         -2.0011   -2.9931   -0.7753 N.am       1 <1>        0.000
      2 C14        -2.3009   -1.7638   -1.2613 C.2        1 <1>        0.000
      3 O4         -2.4348   -0.8383   -0.2722 O.3        1 <1>        0.000
      4 O5         -2.4014   -1.5121   -2.4404 O.2        1 <1>        0.000
      5 C24        -3.6657   -0.1977   -0.2412 C.ar       1 <1>        0.000
      6 C28        -4.6754   -0.6440    0.6316 C.ar       1 <1>        0.000
      7 C29        -3.9395    0.9239   -1.0403 C.ar       1 <1>        0.000
      8 C31        -5.9064   -0.0015    0.6994 C.ar       1 <1>        0.000
      9 C32        -5.1593    1.5867   -0.9625 C.ar       1 <1>        0.000
     10 C35        -6.1490    1.1216   -0.0940 C.ar       1 <1>        0.000
     11 H          -1.8458   -3.7710   -1.4165 H.spc      1 <1>        0.000
     12 H          -1.9308   -3.1402    0.2316 H.spc      1 <1>        0.000
     13 H          -4.4887   -1.5100    1.2666 H.spc      1 <1>        0.000
     14 H          -3.1805    1.2822   -1.7357 H.spc      1 <1>        0.000
     15 H          -6.6805   -0.3737    1.3705 H.spc      1 <1>        0.000
     16 H          -5.3426    2.4674   -1.5780 H.spc      1 <1>        0.000
     17 H          -7.1091    1.6343   -0.0356 H.spc      1 <1>        0.000
@<TRIPOS>BOND
     1    9   10 ar 
     2    7    9 ar 
     3    8   10 ar 
     4    1    2 am 
     5    2    3 1  
     6    2    4 2  
     7    3    5 1  
     8    5    6 ar 
     9    5    7 ar 
    10    6    8 ar 
    11    1   11 1  
    12    1   12 1  
    13    6   13 1  
    14    7   14 1  
    15    8   15 1  
    16    9   16 1  
    17   10   17 1  
# Name:          frag5-619-90/138278
# Creation time: Sat Jun  5 12:53:48 2010


@<TRIPOS>MOLECULE
frag5-619-90/138278
   17    17     1     1     1
SMALL
USER_CHARGES


@<TRIPOS>ATOM
      1 N5         -0.9764   -1.9834   -1.1949 N.am       1 <1>        0.000
      2 C14        -2.3143   -1.7706   -1.2604 C.2        1 <1>        0.000
      3 O4         -2.8344   -1.4140   -0.0542 O.3        1 <1>        0.000
      4 O5         -2.9657   -1.8937   -2.2716 O.2        1 <1>        0.000
      5 C24        -3.8715   -0.4901   -0.1221 C.ar       1 <1>        0.000
      6 C28        -3.8316    0.5978   -1.0045 C.ar       1 <1>        0.000
      7 C29        -4.9826   -0.5975    0.7397 C.ar       1 <1>        0.000
      8 C31        -4.8607    1.5286   -1.0543 C.ar       1 <1>        0.000
      9 C32        -6.0290    0.3175    0.6809 C.ar       1 <1>        0.000
     10 C35        -5.9674    1.3873   -0.2147 C.ar       1 <1>        0.000
     11 H          -0.4632   -2.2643   -2.0304 H.spc      1 <1>        0.000
     12 H          -0.4835   -1.8626   -0.3101 H.spc      1 <1>        0.000
     13 H          -2.9737    0.7159   -1.6664 H.spc      1 <1>        0.000
     14 H          -5.0222   -1.4110    1.4640 H.spc      1 <1>        0.000
     15 H          -4.8048    2.3680   -1.7474 H.spc      1 <1>        0.000
     16 H          -6.8949    0.1997    1.3324 H.spc      1 <1>        0.000
     17 H          -6.7817    2.1106   -0.2582 H.spc      1 <1>        0.000
@<TRIPOS>BOND
     1    9   10 ar 
     2    7    9 ar 
     3    8   10 ar 
     4    1    2 am 
     5    2    3 1  
     6    2    4 2  
     7    3    5 1  
     8    5    6 ar 
     9    5    7 ar 
    10    6    8 ar 
    11    1   11 1  
    12    1   12 1  
    13    6   13 1  
    14    7   14 1  
    15    8   15 1  
    16    9   16 1  
    17   10   17 1  
# Name:          frag5-619-90/138278
# Creation time: Sat Jun  5 12:53:48 2010


@<TRIPOS>MOLECULE
frag5-619-90/138278
   17    17     1     1     1
SMALL
USER_CHARGES


@<TRIPOS>ATOM
      1 N5         -1.7933   -1.6724    0.0265 N.am       1 <1>        0.000
      2 C14        -2.4104   -1.9620   -1.1362 C.2        1 <1>        0.000
      3 O4         -2.9743   -0.8866   -1.7361 O.3        1 <1>        0.000
      4 O5         -2.4443   -3.0777   -1.6248 O.2        1 <1>        0.000
      5 C24        -3.8952   -0.1787   -0.9753 C.ar       1 <1>        0.000
      6 C28        -5.0106   -0.8173   -0.4187 C.ar       1 <1>        0.000
      7 C29        -3.7440    1.2039   -0.7753 C.ar       1 <1>        0.000
      8 C31        -5.9400   -0.1061    0.3353 C.ar       1 <1>        0.000
      9 C32        -4.6589    1.9161   -0.0026 C.ar       1 <1>        0.000
     10 C35        -5.7625    1.2625    0.5508 C.ar       1 <1>        0.000
     11 H          -1.3192   -2.4087    0.5495 H.spc      1 <1>        0.000
     12 H          -1.8004   -0.7169    0.3835 H.spc      1 <1>        0.000
     13 H          -5.1530   -1.8861   -0.5781 H.spc      1 <1>        0.000
     14 H          -2.9015    1.7251   -1.2298 H.spc      1 <1>        0.000
     15 H          -6.8056   -0.6169    0.7572 H.spc      1 <1>        0.000
     16 H          -4.5136    2.9825    0.1700 H.spc      1 <1>        0.000
     17 H          -6.4835    1.8192    1.1494 H.spc      1 <1>        0.000
@<TRIPOS>BOND
     1    9   10 ar 
     2    7    9 ar 
     3    8   10 ar 
     4    1    2 am 
     5    2    3 1  
     6    2    4 2  
     7    3    5 1  
     8    5    6 ar 
     9    5    7 ar 
    10    6    8 ar 
    11    1   11 1  
    12    1   12 1  
    13    6   13 1  
    14    7   14 1  
    15    8   15 1  
    16    9   16 1  
    17   10   17 1  
# Name:          frag5-619-90/138278
# Creation time: Sat Jun  5 12:53:48 2010


@<TRIPOS>MOLECULE
frag5-619-90/138278
   17    17     1     1     1
SMALL
USER_CHARGES


@<TRIPOS>ATOM
      1 N5         -2.7613   -1.7661   -2.2667 N.am       1 <1>        0.000
      2 C14        -2.3575   -1.9599   -0.9957 C.2        1 <1>        0.000
      3 O4         -2.4311   -0.8492   -0.2242 O.3        1 <1>        0.000
      4 O5         -1.9507   -3.0269   -0.5698 O.2        1 <1>        0.000
      5 C24        -3.6358   -0.1597   -0.2605 C.ar       1 <1>        0.000
      6 C28        -4.8539   -0.8304   -0.0962 C.ar       1 <1>        0.000
      7 C29        -3.6558    1.2313   -0.4586 C.ar       1 <1>        0.000
      8 C31        -6.0611   -0.1377   -0.1223 C.ar       1 <1>        0.000
      9 C32        -4.8599    1.9326   -0.4630 C.ar       1 <1>        0.000
     10 C35        -6.0665    1.2478   -0.2992 C.ar       1 <1>        0.000
     11 H          -2.7364   -2.5379   -2.9331 H.spc      1 <1>        0.000
     12 H          -3.0919   -0.8476   -2.5624 H.spc      1 <1>        0.000
     13 H          -4.8569   -1.9100    0.0542 H.spc      1 <1>        0.000
     14 H          -2.7191    1.7676   -0.6105 H.spc      1 <1>        0.000
     15 H          -7.0015   -0.6762   -0.0048 H.spc      1 <1>        0.000
     16 H          -4.8604    3.0147   -0.5941 H.spc      1 <1>        0.000
     17 H          -7.0100    1.7935   -0.3094 H.spc      1 <1>        0.000
@<TRIPOS>BOND
     1    9   10 ar 
     2    7    9 ar 
     3    8   10 ar 
     4    1    2 am 
     5    2    3 1  
     6    2    4 2  
     7    3    5 1  
     8    5    6 ar 
     9    5    7 ar 
    10    6    8 ar 
    11    1   11 1  
    12    1   12 1  
    13    6   13 1  
    14    7   14 1  
    15    8   15 1  
    16    9   16 1  
    17   10   17 1  
# Name:          frag5-619-90/138278
# Creation time: Sat Jun  5 12:53:48 2010


@<TRIPOS>MOLECULE
frag5-619-90/138278
   17    17     1     1     1
SMALL
USER_CHARGES


@<TRIPOS>ATOM
      1 N5         -1.6179   -1.3475   -2.0311 N.am       1 <1>        0.000
      2 C14        -2.3871   -1.9431   -1.0943 C.2        1 <1>        0.000
      3 O4         -2.6325   -1.1434   -0.0211 O.3        1 <1>        0.000
      4 O5         -2.7923   -3.0846   -1.1767 O.2        1 <1>        0.000
      5 C24        -3.7404   -0.3190   -0.1457 C.ar       1 <1>        0.000
      6 C28        -5.0226   -0.7721    0.2056 C.ar       1 <1>        0.000
      7 C29        -3.6120    1.0065   -0.5969 C.ar       1 <1>        0.000
      8 C31        -6.1336    0.0580    0.1076 C.ar       1 <1>        0.000
      9 C32        -4.7143    1.8509   -0.6761 C.ar       1 <1>        0.000
     10 C35        -5.9807    1.3760   -0.3277 C.ar       1 <1>        0.000
     11 H          -1.3446   -1.8614   -2.8687 H.spc      1 <1>        0.000
     12 H          -1.3103   -0.3837   -1.9010 H.spc      1 <1>        0.000
     13 H          -5.1491   -1.7944    0.5620 H.spc      1 <1>        0.000
     14 H          -2.6305    1.3791   -0.8900 H.spc      1 <1>        0.000
     15 H          -7.1220   -0.3192    0.3700 H.spc      1 <1>        0.000
     16 H          -4.5901    2.8812   -1.0094 H.spc      1 <1>        0.000
     17 H          -6.8479    2.0328   -0.3954 H.spc      1 <1>        0.000
@<TRIPOS>BOND
     1    9   10 ar 
     2    7    9 ar 
     3    8   10 ar 
     4    1    2 am 
     5    2    3 1  
     6    2    4 2  
     7    3    5 1  
     8    5    6 ar 
     9    5    7 ar 
    10    6    8 ar 
    11    1   11 1  
    12    1   12 1  
    13    6   13 1  
    14    7   14 1  
    15    8   15 1  
    16    9   16 1  
    17   10   17 1  
# Name:          frag5-619-90/138278
# Creation time: Sat Jun  5 12:53:48 2010


@<TRIPOS>MOLECULE
frag5-619-90/138278
   17    17     1     1     1
SMALL
USER_CHARGES


@<TRIPOS>ATOM
      1 N5         -1.8603   -2.6686   -0.2226 N.am       1 <1>        0.000
      2 C14        -2.4056   -1.9149   -1.2044 C.2        1 <1>        0.000
      3 O4         -2.3950   -0.5879   -0.9170 O.3        1 <1>        0.000
      4 O5         -2.8323   -2.3677   -2.2452 O.2        1 <1>        0.000
      5 C24        -3.6221   -0.0457   -0.5604 C.ar       1 <1>        0.000
      6 C28        -3.8916    1.3108   -0.8294 C.ar       1 <1>        0.000
      7 C29        -4.6035   -0.7967    0.0970 C.ar       1 <1>        0.000
      8 C31        -5.1086    1.8831   -0.4707 C.ar       1 <1>        0.000
      9 C32        -5.8302   -0.2377    0.4378 C.ar       1 <1>        0.000
     10 C35        -6.0844    1.1071    0.1587 C.ar       1 <1>        0.000
     11 H          -1.7902   -3.6799   -0.3353 H.spc      1 <1>        0.000
     12 H          -1.5192   -2.2257    0.6306 H.spc      1 <1>        0.000
     13 H          -3.1364    1.9206   -1.3254 H.spc      1 <1>        0.000
     14 H          -4.4025   -1.8386    0.3463 H.spc      1 <1>        0.000
     15 H          -5.2998    2.9354   -0.6807 H.spc      1 <1>        0.000
     16 H          -6.5924   -0.8481    0.9221 H.spc      1 <1>        0.000
     17 H          -7.0423    1.5499    0.4315 H.spc      1 <1>        0.000
@<TRIPOS>BOND
     1    9   10 ar 
     2    7    9 ar 
     3    8   10 ar 
     4    1    2 am 
     5    2    3 1  
     6    2    4 2  
     7    3    5 1  
     8    5    6 ar 
     9    5    7 ar 
    10    6    8 ar 
    11    1   11 1  
    12    1   12 1  
    13    6   13 1  
    14    7   14 1  
    15    8   15 1  
    16    9   16 1  
    17   10   17 1  
# Name:          frag5-619-90/138278 -- energy: -0.363951
# Creation time: Sat Jun  5 12:53:48 2010


@<TRIPOS>MOLECULE
frag5-619-90/138278 -- energy: -0.363951
   17    17     1     1     1
SMALL
USER_CHARGES


@<TRIPOS>ATOM
      1 N5         -1.1541   -2.4639   -1.1771 N.am       1 <1>        0.000
      2 C14        -2.3912   -1.9064   -1.1269 C.2        1 <1>        0.000
      3 O4         -2.4018   -0.7629   -0.3884 O.3        1 <1>        0.000
      4 O5         -3.3592   -2.3722   -1.6790 O.2        1 <1>        0.000
      5 C24        -3.6392   -0.1311   -0.3226 C.ar       1 <1>        0.000
      6 C28        -4.7771   -0.7954    0.1565 C.ar       1 <1>        0.000
      7 C29        -3.7801    1.2150   -0.7155 C.ar       1 <1>        0.000
      8 C31        -6.0068   -0.1558    0.2422 C.ar       1 <1>        0.000
      9 C32        -5.0025    1.8707   -0.6107 C.ar       1 <1>        0.000
     10 C35        -6.1215    1.1837   -0.1349 C.ar       1 <1>        0.000
     11 H          -1.0036   -3.3247   -1.7031 H.spc      1 <1>        0.000
     12 H          -0.3753   -2.0218   -0.6888 H.spc      1 <1>        0.000
     13 H          -4.6948   -1.8365    0.4685 H.spc      1 <1>        0.000
     14 H          -2.9164    1.7516   -1.1082 H.spc      1 <1>        0.000
     15 H          -6.8806   -0.6983    0.6031 H.spc      1 <1>        0.000
     16 H          -5.0868    2.9184   -0.8993 H.spc      1 <1>        0.000
     17 H          -7.0825    1.6922   -0.0581 H.spc      1 <1>        0.000
@<TRIPOS>BOND
     1    9   10 ar 
     2    7    9 ar 
     3    8   10 ar 
     4    1    2 am 
     5    2    3 1  
     6    2    4 2  
     7    3    5 1  
     8    5    6 ar 
     9    5    7 ar 
    10    6    8 ar 
    11    1   11 1  
    12    1   12 1  
    13    6   13 1  
    14    7   14 1  
    15    8   15 1  
    16    9   16 1  
    17   10   17 1  
# Name:          frag5-619-90/138278 -- energy: -0.938188
# Creation time: Sat Jun  5 12:53:48 2010


@<TRIPOS>MOLECULE
frag5-619-90/138278 -- energy: -0.938188
   17    17     1     1     1
SMALL
USER_CHARGES


@<TRIPOS>ATOM
      1 N5         -2.0011   -2.9931   -0.7753 N.am       1 <1>        0.000
      2 C14        -2.3009   -1.7638   -1.2613 C.2        1 <1>        0.000
      3 O4         -2.4348   -0.8383   -0.2722 O.3        1 <1>        0.000
      4 O5         -2.4014   -1.5121   -2.4404 O.2        1 <1>        0.000
      5 C24        -3.6657   -0.1977   -0.2412 C.ar       1 <1>        0.000
      6 C28        -4.6754   -0.6440    0.6316 C.ar       1 <1>        0.000
      7 C29        -3.9395    0.9239   -1.0403 C.ar       1 <1>        0.000
      8 C31        -5.9064   -0.0015    0.6994 C.ar       1 <1>        0.000
      9 C32        -5.1593    1.5867   -0.9625 C.ar       1 <1>        0.000
     10 C35        -6.1490    1.1216   -0.0940 C.ar       1 <1>        0.000
     11 H          -1.8458   -3.7710   -1.4165 H.spc      1 <1>        0.000
     12 H          -1.9308   -3.1402    0.2316 H.spc      1 <1>        0.000
     13 H          -4.4887   -1.5100    1.2666 H.spc      1 <1>        0.000
     14 H          -3.1805    1.2822   -1.7357 H.spc      1 <1>        0.000
     15 H          -6.6805   -0.3737    1.3705 H.spc      1 <1>        0.000
     16 H          -5.3426    2.4674   -1.5780 H.spc      1 <1>        0.000
     17 H          -7.1091    1.6343   -0.0356 H.spc      1 <1>        0.000
@<TRIPOS>BOND
     1    9   10 ar 
     2    7    9 ar 
     3    8   10 ar 
     4    1    2 am 
     5    2    3 1  
     6    2    4 2  
     7    3    5 1  
     8    5    6 ar 
     9    5    7 ar 
    10    6    8 ar 
    11    1   11 1  
    12    1   12 1  
    13    6   13 1  
    14    7   14 1  
    15    8   15 1  
    16    9   16 1  
    17   10   17 1  
# Name:          frag5-619-90/138278 -- energy: -0.492738
# Creation time: Sat Jun  5 12:53:48 2010


@<TRIPOS>MOLECULE
frag5-619-90/138278 -- energy: -0.492738
   17    17     1     1     1
SMALL
USER_CHARGES


@<TRIPOS>ATOM
      1 N5         -0.9764   -1.9834   -1.1949 N.am       1 <1>        0.000
      2 C14        -2.3143   -1.7706   -1.2604 C.2        1 <1>        0.000
      3 O4         -2.8344   -1.4140   -0.0542 O.3        1 <1>        0.000
      4 O5         -2.9657   -1.8937   -2.2716 O.2        1 <1>        0.000
      5 C24        -3.8715   -0.4901   -0.1221 C.ar       1 <1>        0.000
      6 C28        -3.8316    0.5978   -1.0045 C.ar       1 <1>        0.000
      7 C29        -4.9826   -0.5975    0.7397 C.ar       1 <1>        0.000
      8 C31        -4.8607    1.5286   -1.0543 C.ar       1 <1>        0.000
      9 C32        -6.0290    0.3175    0.6809 C.ar       1 <1>        0.000
     10 C35        -5.9674    1.3873   -0.2147 C.ar       1 <1>        0.000
     11 H          -0.4632   -2.2643   -2.0304 H.spc      1 <1>        0.000
     12 H          -0.4835   -1.8626   -0.3101 H.spc      1 <1>        0.000
     13 H          -2.9737    0.7159   -1.6664 H.spc      1 <1>        0.000
     14 H          -5.0222   -1.4110    1.4640 H.spc      1 <1>        0.000
     15 H          -4.8048    2.3680   -1.7474 H.spc      1 <1>        0.000
     16 H          -6.8949    0.1997    1.3324 H.spc      1 <1>        0.000
     17 H          -6.7817    2.1106   -0.2582 H.spc      1 <1>        0.000
@<TRIPOS>BOND
     1    9   10 ar 
     2    7    9 ar 
     3    8   10 ar 
     4    1    2 am 
     5    2    3 1  
     6    2    4 2  
     7    3    5 1  
     8    5    6 ar 
     9    5    7 ar 
    10    6    8 ar 
    11    1   11 1  
    12    1   12 1  
    13    6   13 1  
    14    7   14 1  
    15    8   15 1  
    16    9   16 1  
    17   10   17 1  
# Name:          frag5-619-90/138278 -- energy: -0.915754
# Creation time: Sat Jun  5 12:53:48 2010


@<TRIPOS>MOLECULE
frag5-619-90/138278 -- energy: -0.915754
   17    17     1     1     1
SMALL
USER_CHARGES


@<TRIPOS>ATOM
      1 N5         -1.7933   -1.6724    0.0265 N.am       1 <1>        0.000
      2 C14        -2.4104   -1.9620   -1.1362 C.2        1 <1>        0.000
      3 O4         -2.9743   -0.8866   -1.7361 O.3        1 <1>        0.000
      4 O5         -2.4443   -3.0777   -1.6248 O.2        1 <1>        0.000
      5 C24        -3.8952   -0.1787   -0.9753 C.ar       1 <1>        0.000
      6 C28        -5.0106   -0.8173   -0.4187 C.ar       1 <1>        0.000
      7 C29        -3.7440    1.2039   -0.7753 C.ar       1 <1>        0.000
      8 C31        -5.9400   -0.1061    0.3353 C.ar       1 <1>        0.000
      9 C32        -4.6589    1.9161   -0.0026 C.ar       1 <1>        0.000
     10 C35        -5.7625    1.2625    0.5508 C.ar       1 <1>        0.000
     11 H          -1.3192   -2.4087    0.5495 H.spc      1 <1>        0.000
     12 H          -1.8004   -0.7169    0.3835 H.spc      1 <1>        0.000
     13 H          -5.1530   -1.8861   -0.5781 H.spc      1 <1>        0.000
     14 H          -2.9015    1.7251   -1.2298 H.spc      1 <1>        0.000
     15 H          -6.8056   -0.6169    0.7572 H.spc      1 <1>        0.000
     16 H          -4.5136    2.9825    0.1700 H.spc      1 <1>        0.000
     17 H          -6.4835    1.8192    1.1494 H.spc      1 <1>        0.000
@<TRIPOS>BOND
     1    9   10 ar 
     2    7    9 ar 
     3    8   10 ar 
     4    1    2 am 
     5    2    3 1  
     6    2    4 2  
     7    3    5 1  
     8    5    6 ar 
     9    5    7 ar 
    10    6    8 ar 
    11    1   11 1  
    12    1   12 1  
    13    6   13 1  
    14    7   14 1  
    15    8   15 1  
    16    9   16 1  
    17   10   17 1  
# Name:          frag5-619-90/138278 -- energy: -0.747217
# Creation time: Sat Jun  5 12:53:48 2010


@<TRIPOS>MOLECULE
frag5-619-90/138278 -- energy: -0.747217
   17    17     1     1     1
SMALL
USER_CHARGES


@<TRIPOS>ATOM
      1 N5         -2.7613   -1.7661   -2.2667 N.am       1 <1>        0.000
      2 C14        -2.3575   -1.9599   -0.9957 C.2        1 <1>        0.000
      3 O4         -2.4311   -0.8492   -0.2242 O.3        1 <1>        0.000
      4 O5         -1.9507   -3.0269   -0.5698 O.2        1 <1>        0.000
      5 C24        -3.6358   -0.1597   -0.2605 C.ar       1 <1>        0.000
      6 C28        -4.8539   -0.8304   -0.0962 C.ar       1 <1>        0.000
      7 C29        -3.6558    1.2313   -0.4586 C.ar       1 <1>        0.000
      8 C31        -6.0611   -0.1377   -0.1223 C.ar       1 <1>        0.000
      9 C32        -4.8599    1.9326   -0.4630 C.ar       1 <1>        0.000
     10 C35        -6.0665    1.2478   -0.2992 C.ar       1 <1>        0.000
     11 H          -2.7364   -2.5379   -2.9331 H.spc      1 <1>        0.000
     12 H          -3.0919   -0.8476   -2.5624 H.spc      1 <1>        0.000
     13 H          -4.8569   -1.9100    0.0542 H.spc      1 <1>        0.000
     14 H          -2.7191    1.7676   -0.6105 H.spc      1 <1>        0.000
     15 H          -7.0015   -0.6762   -0.0048 H.spc      1 <1>        0.000
     16 H          -4.8604    3.0147   -0.5941 H.spc      1 <1>        0.000
     17 H          -7.0100    1.7935   -0.3094 H.spc      1 <1>        0.000
@<TRIPOS>BOND
     1    9   10 ar 
     2    7    9 ar 
     3    8   10 ar 
     4    1    2 am 
     5    2    3 1  
     6    2    4 2  
     7    3    5 1  
     8    5    6 ar 
     9    5    7 ar 
    10    6    8 ar 
    11    1   11 1  
    12    1   12 1  
    13    6   13 1  
    14    7   14 1  
    15    8   15 1  
    16    9   16 1  
    17   10   17 1  
# Name:          frag5-619-90/138278 -- energy: -1.123929
# Creation time: Sat Jun  5 12:53:48 2010


@<TRIPOS>MOLECULE
frag5-619-90/138278 -- energy: -1.123929
   17    17     1     1     1
SMALL
USER_CHARGES


@<TRIPOS>ATOM
      1 N5         -1.6179   -1.3475   -2.0311 N.am       1 <1>        0.000
      2 C14        -2.3871   -1.9431   -1.0943 C.2        1 <1>        0.000
      3 O4         -2.6325   -1.1434   -0.0211 O.3        1 <1>        0.000
      4 O5         -2.7923   -3.0846   -1.1767 O.2        1 <1>        0.000
      5 C24        -3.7404   -0.3190   -0.1457 C.ar       1 <1>        0.000
      6 C28        -5.0226   -0.7721    0.2056 C.ar       1 <1>        0.000
      7 C29        -3.6120    1.0065   -0.5969 C.ar       1 <1>        0.000
      8 C31        -6.1336    0.0580    0.1076 C.ar       1 <1>        0.000
      9 C32        -4.7143    1.8509   -0.6761 C.ar       1 <1>        0.000
     10 C35        -5.9807    1.3760   -0.3277 C.ar       1 <1>        0.000
     11 H          -1.3446   -1.8614   -2.8687 H.spc      1 <1>        0.000
     12 H          -1.3103   -0.3837   -1.9010 H.spc      1 <1>        0.000
     13 H          -5.1491   -1.7944    0.5620 H.spc      1 <1>        0.000
     14 H          -2.6305    1.3791   -0.8900 H.spc      1 <1>        0.000
     15 H          -7.1220   -0.3192    0.3700 H.spc      1 <1>        0.000
     16 H          -4.5901    2.8812   -1.0094 H.spc      1 <1>        0.000
     17 H          -6.8479    2.0328   -0.3954 H.spc      1 <1>        0.000
@<TRIPOS>BOND
     1    9   10 ar 
     2    7    9 ar 
     3    8   10 ar 
     4    1    2 am 
     5    2    3 1  
     6    2    4 2  
     7    3    5 1  
     8    5    6 ar 
     9    5    7 ar 
    10    6    8 ar 
    11    1   11 1  
    12    1   12 1  
    13    6   13 1  
    14    7   14 1  
    15    8   15 1  
    16    9   16 1  
    17   10   17 1  
# Name:          frag5-619-90/138278 -- energy: -0.715396
# Creation time: Sat Jun  5 12:53:48 2010


@<TRIPOS>MOLECULE
frag5-619-90/138278 -- energy: -0.715396
   17    17     1     1     1
SMALL
USER_CHARGES


@<TRIPOS>ATOM
      1 N5         -1.8603   -2.6686   -0.2226 N.am       1 <1>        0.000
      2 C14        -2.4056   -1.9149   -1.2044 C.2        1 <1>        0.000
      3 O4         -2.3950   -0.5879   -0.9170 O.3        1 <1>        0.000
      4 O5         -2.8323   -2.3677   -2.2452 O.2        1 <1>        0.000
      5 C24        -3.6221   -0.0457   -0.5604 C.ar       1 <1>        0.000
      6 C28        -3.8916    1.3108   -0.8294 C.ar       1 <1>        0.000
      7 C29        -4.6035   -0.7967    0.0970 C.ar       1 <1>        0.000
      8 C31        -5.1086    1.8831   -0.4707 C.ar       1 <1>        0.000
      9 C32        -5.8302   -0.2377    0.4378 C.ar       1 <1>        0.000
     10 C35        -6.0844    1.1071    0.1587 C.ar       1 <1>        0.000
     11 H          -1.7902   -3.6799   -0.3353 H.spc      1 <1>        0.000
     12 H          -1.5192   -2.2257    0.6306 H.spc      1 <1>        0.000
     13 H          -3.1364    1.9206   -1.3254 H.spc      1 <1>        0.000
     14 H          -4.4025   -1.8386    0.3463 H.spc      1 <1>        0.000
     15 H          -5.2998    2.9354   -0.6807 H.spc      1 <1>        0.000
     16 H          -6.5924   -0.8481    0.9221 H.spc      1 <1>        0.000
     17 H          -7.0423    1.5499    0.4315 H.spc      1 <1>        0.000
@<TRIPOS>BOND
     1    9   10 ar 
     2    7    9 ar 
     3    8   10 ar 
     4    1    2 am 
     5    2    3 1  
     6    2    4 2  
     7    3    5 1  
     8    5    6 ar 
     9    5    7 ar 
    10    6    8 ar 
    11    1   11 1  
    12    1   12 1  
    13    6   13 1  
    14    7   14 1  
    15    8   15 1  
    16    9   16 1  
    17   10   17 1  
