#      Rotatable Fragment
#      Build by yxyuan
#
# Name:          frag2-083-1/319335
# Creation time: Sat Jun  5 12:52:04 2010


@<TRIPOS>MOLECULE
frag2-083-1/319335
   26    29     1     1     1
SMALL
USER_CHARGES


@<TRIPOS>ATOM
      1 C1         -2.1864   -0.3390   -0.0131 C.ar       1 <1>        0.000
      2 C2         -1.0418   -1.1135    0.0106 C.ar       1 <1>        0.000
      3 C3         -2.2078    1.0506   -0.0339 C.ar       1 <1>        0.000
      4 C4         -3.2980   -1.1653   -0.0114 C.ar       1 <1>        0.000
      5 C5          0.2005   -0.4849    0.0299 C.ar       1 <1>        0.000
      6 C6         -1.4388   -2.4521    0.0113 C.2        1 <1>        0.000
      7 C7         -0.9526    1.6903   -0.0635 C.ar       1 <1>        0.000
      8 C8         -3.4969    1.6106   -0.0200 C.ar       1 <1>        0.000
      9 C17         1.5800    2.9413   -0.0352 C.ar       1 <1>        0.000
     10 C9         -2.8388   -2.4846   -0.0019 C.2        1 <1>        0.000
     11 C10        -4.5709   -0.5983   -0.0172 C.ar       1 <1>        0.000
     12 C11         0.2296    0.9198   -0.0005 C.ar       1 <1>        0.000
     13 C13        -0.8308    3.0853   -0.1586 C.ar       1 <1>        0.000
     14 C14        -4.6461    0.8011   -0.0187 C.ar       1 <1>        0.000
     15 C15         1.4805    1.5506    0.0312 C.ar       1 <1>        0.000
     16 C16         0.4198    3.7082   -0.1393 C.ar       1 <1>        0.000
     17 H           1.1226   -1.0649    0.0675 H.spc      1 <1>        0.000
     18 H          -0.7767   -3.3179    0.0205 H.spc      1 <1>        0.000
     19 H          -3.6078    2.6949   -0.0100 H.spc      1 <1>        0.000
     20 H           2.5568    3.4241   -0.0059 H.spc      1 <1>        0.000
     21 H          -3.4599   -3.3803   -0.0043 H.spc      1 <1>        0.000
     22 H          -5.4688   -1.2162   -0.0204 H.spc      1 <1>        0.000
     23 H          -1.7298    3.6950   -0.2493 H.spc      1 <1>        0.000
     24 H          -5.6268    1.2769   -0.0189 H.spc      1 <1>        0.000
     25 H           2.3859    0.9486    0.1086 H.spc      1 <1>        0.000
     26 H           0.4886    4.7940   -0.2056 H.spc      1 <1>        0.000
@<TRIPOS>BOND
     1   13   16 ar 
     2    3    8 ar 
     3    6   10 2  
     4    1    2 ar 
     5    3    7 ar 
     6   15    9 ar 
     7    7   12 ar 
     8    2    5 ar 
     9    5   12 ar 
    10    7   13 ar 
    11    2    6 1  
    12    1    4 ar 
    13    8   14 ar 
    14   11   14 ar 
    15   16    9 ar 
    16   12   15 ar 
    17    1    3 ar 
    18    4   11 ar 
    19    4   10 1  
    20    5   17 1  
    21    6   18 1  
    22    8   19 1  
    23    9   20 1  
    24   10   21 1  
    25   11   22 1  
    26   13   23 1  
    27   14   24 1  
    28   15   25 1  
    29   16   26 1  
# Name:          frag2-083-1/319335 -- energy: -1.454667
# Creation time: Sat Jun  5 12:52:05 2010


@<TRIPOS>MOLECULE
frag2-083-1/319335 -- energy: -1.454667
   26    29     1     1     1
SMALL
USER_CHARGES


@<TRIPOS>ATOM
      1 C1         -2.1864   -0.3390   -0.0131 C.ar       1 <1>        0.000
      2 C2         -1.0418   -1.1135    0.0106 C.ar       1 <1>        0.000
      3 C3         -2.2078    1.0506   -0.0339 C.ar       1 <1>        0.000
      4 C4         -3.2980   -1.1653   -0.0114 C.ar       1 <1>        0.000
      5 C5          0.2005   -0.4849    0.0299 C.ar       1 <1>        0.000
      6 C6         -1.4388   -2.4521    0.0113 C.2        1 <1>        0.000
      7 C7         -0.9526    1.6903   -0.0635 C.ar       1 <1>        0.000
      8 C8         -3.4969    1.6106   -0.0200 C.ar       1 <1>        0.000
      9 C17         1.5800    2.9413   -0.0352 C.ar       1 <1>        0.000
     10 C9         -2.8388   -2.4846   -0.0019 C.2        1 <1>        0.000
     11 C10        -4.5709   -0.5983   -0.0172 C.ar       1 <1>        0.000
     12 C11         0.2296    0.9198   -0.0005 C.ar       1 <1>        0.000
     13 C13        -0.8308    3.0853   -0.1586 C.ar       1 <1>        0.000
     14 C14        -4.6461    0.8011   -0.0187 C.ar       1 <1>        0.000
     15 C15         1.4805    1.5506    0.0312 C.ar       1 <1>        0.000
     16 C16         0.4198    3.7082   -0.1393 C.ar       1 <1>        0.000
     17 H           1.1226   -1.0649    0.0675 H.spc      1 <1>        0.000
     18 H          -0.7767   -3.3179    0.0205 H.spc      1 <1>        0.000
     19 H          -3.6078    2.6949   -0.0100 H.spc      1 <1>        0.000
     20 H           2.5568    3.4241   -0.0059 H.spc      1 <1>        0.000
     21 H          -3.4599   -3.3803   -0.0043 H.spc      1 <1>        0.000
     22 H          -5.4688   -1.2162   -0.0204 H.spc      1 <1>        0.000
     23 H          -1.7298    3.6950   -0.2493 H.spc      1 <1>        0.000
     24 H          -5.6268    1.2769   -0.0189 H.spc      1 <1>        0.000
     25 H           2.3859    0.9486    0.1086 H.spc      1 <1>        0.000
     26 H           0.4886    4.7940   -0.2056 H.spc      1 <1>        0.000
@<TRIPOS>BOND
     1   13   16 ar 
     2    3    8 ar 
     3    6   10 2  
     4    1    2 ar 
     5    3    7 ar 
     6   15    9 ar 
     7    7   12 ar 
     8    2    5 ar 
     9    5   12 ar 
    10    7   13 ar 
    11    2    6 1  
    12    1    4 ar 
    13    8   14 ar 
    14   11   14 ar 
    15   16    9 ar 
    16   12   15 ar 
    17    1    3 ar 
    18    4   11 ar 
    19    4   10 1  
    20    5   17 1  
    21    6   18 1  
    22    8   19 1  
    23    9   20 1  
    24   10   21 1  
    25   11   22 1  
    26   13   23 1  
    27   14   24 1  
    28   15   25 1  
    29   16   26 1  
