#      Rotatable Fragment
#      Build by yxyuan
#
# Name:          frag3-184-10/96164
# Creation time: Sat Jun  5 12:53:08 2010


@<TRIPOS>MOLECULE
frag3-184-10/96164
   10     9     1     1     1
SMALL
USER_CHARGES


@<TRIPOS>ATOM
      1 N2         -3.2031    0.6299   -0.0282 N.pl3      1 <1>        0.000
      2 C31        -4.2058   -0.2487    0.0152 C.cat      1 <1>        0.000
      3 O9         -3.4368    1.9649   -0.2708 O.3        1 <1>        0.000
      4 N3         -4.0188   -1.5264    0.2845 N.pl3      1 <1>        0.000
      5 N4         -5.4157    0.2364   -0.2029 N.pl3      1 <1>        0.000
      6 H          -2.2470    0.3073    0.1209 H.spc      1 <1>        0.000
      7 H          -2.6031    2.4408   -0.2651 H.spc      1 <1>        0.000
      8 H          -4.8165   -2.1606    0.3276 H.spc      1 <1>        0.000
      9 H          -6.2271   -0.3805   -0.1646 H.spc      1 <1>        0.000
     10 H          -5.5381    1.2277   -0.4095 H.spc      1 <1>        0.000
@<TRIPOS>BOND
     1    1    2 ar 
     2    1    3 1  
     3    2    4 ar 
     4    2    5 ar 
     5    1    6 1  
     6    3    7 1  
     7    4    8 1  
     8    5    9 1  
     9    5   10 1  
# Name:          frag3-184-10/96164
# Creation time: Sat Jun  5 12:53:08 2010


@<TRIPOS>MOLECULE
frag3-184-10/96164
   10     9     1     1     1
SMALL
USER_CHARGES


@<TRIPOS>ATOM
      1 N2         -3.8631    1.0805   -0.2899 N.pl3      1 <1>        0.000
      2 C31        -4.4342   -0.1050   -0.0587 C.cat      1 <1>        0.000
      3 O9         -2.5677    1.4497    0.0114 O.3        1 <1>        0.000
      4 N3         -3.6679   -1.1087    0.3254 N.pl3      1 <1>        0.000
      5 N4         -5.7472   -0.2603   -0.1903 N.pl3      1 <1>        0.000
      6 H          -4.4464    1.7880   -0.7366 H.spc      1 <1>        0.000
      7 H          -2.4229    2.3580   -0.2635 H.spc      1 <1>        0.000
      8 H          -4.0822   -2.0190    0.5257 H.spc      1 <1>        0.000
      9 H          -6.1760   -1.1646    0.0064 H.spc      1 <1>        0.000
     10 H          -6.3263    0.5248   -0.4880 H.spc      1 <1>        0.000
@<TRIPOS>BOND
     1    1    2 ar 
     2    1    3 1  
     3    2    4 ar 
     4    2    5 ar 
     5    1    6 1  
     6    3    7 1  
     7    4    8 1  
     8    5    9 1  
     9    5   10 1  
# Name:          frag3-184-10/96164 -- energy: 0.011958
# Creation time: Sat Jun  5 12:53:08 2010


@<TRIPOS>MOLECULE
frag3-184-10/96164 -- energy: 0.011958
   10     9     1     1     1
SMALL
USER_CHARGES


@<TRIPOS>ATOM
      1 N2         -3.2031    0.6299   -0.0282 N.pl3      1 <1>        0.000
      2 C31        -4.2058   -0.2487    0.0152 C.cat      1 <1>        0.000
      3 O9         -3.4368    1.9649   -0.2708 O.3        1 <1>        0.000
      4 N3         -4.0188   -1.5264    0.2845 N.pl3      1 <1>        0.000
      5 N4         -5.4157    0.2364   -0.2029 N.pl3      1 <1>        0.000
      6 H          -2.2470    0.3073    0.1209 H.spc      1 <1>        0.000
      7 H          -2.6031    2.4408   -0.2651 H.spc      1 <1>        0.000
      8 H          -4.8165   -2.1606    0.3276 H.spc      1 <1>        0.000
      9 H          -6.2271   -0.3805   -0.1646 H.spc      1 <1>        0.000
     10 H          -5.5381    1.2277   -0.4095 H.spc      1 <1>        0.000
@<TRIPOS>BOND
     1    1    2 ar 
     2    1    3 1  
     3    2    4 ar 
     4    2    5 ar 
     5    1    6 1  
     6    3    7 1  
     7    4    8 1  
     8    5    9 1  
     9    5   10 1  
# Name:          frag3-184-10/96164 -- energy: -0.399187
# Creation time: Sat Jun  5 12:53:08 2010


@<TRIPOS>MOLECULE
frag3-184-10/96164 -- energy: -0.399187
   10     9     1     1     1
SMALL
USER_CHARGES


@<TRIPOS>ATOM
      1 N2         -3.8631    1.0805   -0.2899 N.pl3      1 <1>        0.000
      2 C31        -4.4342   -0.1050   -0.0587 C.cat      1 <1>        0.000
      3 O9         -2.5677    1.4497    0.0114 O.3        1 <1>        0.000
      4 N3         -3.6679   -1.1087    0.3254 N.pl3      1 <1>        0.000
      5 N4         -5.7472   -0.2603   -0.1903 N.pl3      1 <1>        0.000
      6 H          -4.4464    1.7880   -0.7366 H.spc      1 <1>        0.000
      7 H          -2.4229    2.3580   -0.2635 H.spc      1 <1>        0.000
      8 H          -4.0822   -2.0190    0.5257 H.spc      1 <1>        0.000
      9 H          -6.1760   -1.1646    0.0064 H.spc      1 <1>        0.000
     10 H          -6.3263    0.5248   -0.4880 H.spc      1 <1>        0.000
@<TRIPOS>BOND
     1    1    2 ar 
     2    1    3 1  
     3    2    4 ar 
     4    2    5 ar 
     5    1    6 1  
     6    3    7 1  
     7    4    8 1  
     8    5    9 1  
     9    5   10 1  
