#      Rotatable Fragment
#      Build by yxyuan
#
# Name:          frag2-066-2/92655
# Creation time: Sat Jun  5 12:51:58 2010


@<TRIPOS>MOLECULE
frag2-066-2/92655
   30    33     1     1     1
SMALL
USER_CHARGES


@<TRIPOS>ATOM
      1 C1         -0.3677    0.0410   -0.0236 C.ar       1 <1>        0.000
      2 C2         -1.7549    0.3069   -0.1492 C.ar       1 <1>        0.000
      3 C3         -2.6860   -0.7328    0.1440 C.ar       1 <1>        0.000
      4 C4         -2.2357   -1.9861    0.5466 C.ar       1 <1>        0.000
      5 C5         -0.8842   -2.2437    0.6695 C.ar       1 <1>        0.000
      6 C6          0.0546   -1.2532    0.3913 C.ar       1 <1>        0.000
      7 C7          1.4173   -1.5520    0.5266 C.ar       1 <1>        0.000
      8 C8          2.3994   -0.6008    0.2609 C.ar       1 <1>        0.000
      9 C17        -3.6792    1.7464   -0.6550 C.ar       1 <1>        0.000
     10 C9          2.0126    0.6757   -0.1469 C.ar       1 <1>        0.000
     11 C10         0.6473    0.9942   -0.2881 C.ar       1 <1>        0.000
     12 C11         3.0007    1.6388   -0.4156 C.ar       1 <1>        0.000
     13 C12         4.3530    1.3250   -0.2780 C.ar       1 <1>        0.000
     14 C13         4.7314    0.0539    0.1282 C.ar       1 <1>        0.000
     15 C14         3.7624   -0.9074    0.3982 C.ar       1 <1>        0.000
     16 C15        -4.0702   -0.5075    0.0308 C.ar       1 <1>        0.000
     17 C16        -4.5633    0.7241   -0.3661 C.ar       1 <1>        0.000
     18 C18        -2.2926    1.5541   -0.5522 C.ar       1 <1>        0.000
     19 H          -2.9569   -2.7730    0.7674 H.spc      1 <1>        0.000
     20 H          -0.5494   -3.2312    0.9871 H.spc      1 <1>        0.000
     21 H           1.7149   -2.5505    0.8467 H.spc      1 <1>        0.000
     22 H          -4.0646    2.7169   -0.9675 H.spc      1 <1>        0.000
     23 H           0.3651    1.9972   -0.6083 H.spc      1 <1>        0.000
     24 H           2.7078    2.6392   -0.7342 H.spc      1 <1>        0.000
     25 H           5.1119    2.0783   -0.4896 H.spc      1 <1>        0.000
     26 H           5.7878   -0.1919    0.2359 H.spc      1 <1>        0.000
     27 H           4.0635   -1.9049    0.7184 H.spc      1 <1>        0.000
     28 H          -4.7655   -1.3153    0.2592 H.spc      1 <1>        0.000
     29 H          -5.6380    0.8857   -0.4498 H.spc      1 <1>        0.000
     30 H          -1.6184    2.3780   -0.7863 H.spc      1 <1>        0.000
@<TRIPOS>BOND
     1    5    6 ar 
     2    3   16 ar 
     3    2   18 ar 
     4    3    4 ar 
     5   13   14 ar 
     6   14   15 ar 
     7    9   18 ar 
     8    8   10 ar 
     9    7    8 ar 
    10    8   15 ar 
    11    6    7 ar 
    12   10   12 ar 
    13   12   13 ar 
    14    4    5 ar 
    15    1    2 ar 
    16    2    3 ar 
    17   10   11 ar 
    18   16   17 ar 
    19   17    9 ar 
    20    1   11 ar 
    21    1    6 ar 
    22    4   19 1  
    23    5   20 1  
    24    7   21 1  
    25    9   22 1  
    26   11   23 1  
    27   12   24 1  
    28   13   25 1  
    29   14   26 1  
    30   15   27 1  
    31   16   28 1  
    32   17   29 1  
    33   18   30 1  
# Name:          frag2-066-2/92655 -- energy: -1.388704
# Creation time: Sat Jun  5 12:51:58 2010


@<TRIPOS>MOLECULE
frag2-066-2/92655 -- energy: -1.388704
   30    33     1     1     1
SMALL
USER_CHARGES


@<TRIPOS>ATOM
      1 C1         -0.3677    0.0410   -0.0236 C.ar       1 <1>        0.000
      2 C2         -1.7549    0.3069   -0.1492 C.ar       1 <1>        0.000
      3 C3         -2.6860   -0.7328    0.1440 C.ar       1 <1>        0.000
      4 C4         -2.2357   -1.9861    0.5466 C.ar       1 <1>        0.000
      5 C5         -0.8842   -2.2437    0.6695 C.ar       1 <1>        0.000
      6 C6          0.0546   -1.2532    0.3913 C.ar       1 <1>        0.000
      7 C7          1.4173   -1.5520    0.5266 C.ar       1 <1>        0.000
      8 C8          2.3994   -0.6008    0.2609 C.ar       1 <1>        0.000
      9 C17        -3.6792    1.7464   -0.6550 C.ar       1 <1>        0.000
     10 C9          2.0126    0.6757   -0.1469 C.ar       1 <1>        0.000
     11 C10         0.6473    0.9942   -0.2881 C.ar       1 <1>        0.000
     12 C11         3.0007    1.6388   -0.4156 C.ar       1 <1>        0.000
     13 C12         4.3530    1.3250   -0.2780 C.ar       1 <1>        0.000
     14 C13         4.7314    0.0539    0.1282 C.ar       1 <1>        0.000
     15 C14         3.7624   -0.9074    0.3982 C.ar       1 <1>        0.000
     16 C15        -4.0702   -0.5075    0.0308 C.ar       1 <1>        0.000
     17 C16        -4.5633    0.7241   -0.3661 C.ar       1 <1>        0.000
     18 C18        -2.2926    1.5541   -0.5522 C.ar       1 <1>        0.000
     19 H          -2.9569   -2.7730    0.7674 H.spc      1 <1>        0.000
     20 H          -0.5494   -3.2312    0.9871 H.spc      1 <1>        0.000
     21 H           1.7149   -2.5505    0.8467 H.spc      1 <1>        0.000
     22 H          -4.0646    2.7169   -0.9675 H.spc      1 <1>        0.000
     23 H           0.3651    1.9972   -0.6083 H.spc      1 <1>        0.000
     24 H           2.7078    2.6392   -0.7342 H.spc      1 <1>        0.000
     25 H           5.1119    2.0783   -0.4896 H.spc      1 <1>        0.000
     26 H           5.7878   -0.1919    0.2359 H.spc      1 <1>        0.000
     27 H           4.0635   -1.9049    0.7184 H.spc      1 <1>        0.000
     28 H          -4.7655   -1.3153    0.2592 H.spc      1 <1>        0.000
     29 H          -5.6380    0.8857   -0.4498 H.spc      1 <1>        0.000
     30 H          -1.6184    2.3780   -0.7863 H.spc      1 <1>        0.000
@<TRIPOS>BOND
     1    5    6 ar 
     2    3   16 ar 
     3    2   18 ar 
     4    3    4 ar 
     5   13   14 ar 
     6   14   15 ar 
     7    9   18 ar 
     8    8   10 ar 
     9    7    8 ar 
    10    8   15 ar 
    11    6    7 ar 
    12   10   12 ar 
    13   12   13 ar 
    14    4    5 ar 
    15    1    2 ar 
    16    2    3 ar 
    17   10   11 ar 
    18   16   17 ar 
    19   17    9 ar 
    20    1   11 ar 
    21    1    6 ar 
    22    4   19 1  
    23    5   20 1  
    24    7   21 1  
    25    9   22 1  
    26   11   23 1  
    27   12   24 1  
    28   13   25 1  
    29   14   26 1  
    30   15   27 1  
    31   16   28 1  
    32   17   29 1  
    33   18   30 1  
