#      Rotatable Fragment
#      Build by yxyuan
#
# Name:          frag5-493-1546/138278
# Creation time: Sat Jun  5 12:53:39 2010


@<TRIPOS>MOLECULE
frag5-493-1546/138278
   14    14     1     1     1
SMALL
USER_CHARGES


@<TRIPOS>ATOM
      1 C4          1.8137    0.1850   -0.0461 C.ar       1 <1>        0.000
      2 C7          0.9140    1.2330   -0.2335 C.ar       1 <1>        0.000
      3 C8          1.3457   -1.1014    0.1915 C.ar       1 <1>        0.000
      4 C10        -0.4736    1.0026   -0.1814 C.ar       1 <1>        0.000
      5 C11        -0.0318   -1.3469    0.2480 C.ar       1 <1>        0.000
      6 C13        -0.9500   -0.2990    0.0563 C.ar       1 <1>        0.000
      7 O4         -1.3579    2.0556   -0.3642 O.3        1 <1>        0.000
      8 O5         -2.3173   -0.5530    0.1019 O.3        1 <1>        0.000
      9 H           2.8863    0.3750   -0.0860 H.spc      1 <1>        0.000
     10 H           1.2881    2.2393   -0.4220 H.spc      1 <1>        0.000
     11 H           2.0512   -1.9200    0.3340 H.spc      1 <1>        0.000
     12 H          -0.3946   -2.3563    0.4417 H.spc      1 <1>        0.000
     13 H          -2.2588    1.7305   -0.2988 H.spc      1 <1>        0.000
     14 H          -2.4627   -1.4865    0.2725 H.spc      1 <1>        0.000
@<TRIPOS>BOND
     1    1    2 ar 
     2    1    3 ar 
     3    2    4 ar 
     4    3    5 ar 
     5    4    6 ar 
     6    4    7 1  
     7    5    6 ar 
     8    6    8 1  
     9    1    9 1  
    10    2   10 1  
    11    3   11 1  
    12    5   12 1  
    13    7   13 1  
    14    8   14 1  
# Name:          frag5-493-1546/138278 -- energy: -0.014300
# Creation time: Sat Jun  5 12:53:39 2010


@<TRIPOS>MOLECULE
frag5-493-1546/138278 -- energy: -0.014300
   14    14     1     1     1
SMALL
USER_CHARGES


@<TRIPOS>ATOM
      1 C4          1.8137    0.1850   -0.0461 C.ar       1 <1>        0.000
      2 C7          0.9140    1.2330   -0.2335 C.ar       1 <1>        0.000
      3 C8          1.3457   -1.1014    0.1915 C.ar       1 <1>        0.000
      4 C10        -0.4736    1.0026   -0.1814 C.ar       1 <1>        0.000
      5 C11        -0.0318   -1.3469    0.2480 C.ar       1 <1>        0.000
      6 C13        -0.9500   -0.2990    0.0563 C.ar       1 <1>        0.000
      7 O4         -1.3579    2.0556   -0.3642 O.3        1 <1>        0.000
      8 O5         -2.3173   -0.5530    0.1019 O.3        1 <1>        0.000
      9 H           2.8863    0.3750   -0.0860 H.spc      1 <1>        0.000
     10 H           1.2881    2.2393   -0.4220 H.spc      1 <1>        0.000
     11 H           2.0512   -1.9200    0.3340 H.spc      1 <1>        0.000
     12 H          -0.3946   -2.3563    0.4417 H.spc      1 <1>        0.000
     13 H          -2.2588    1.7305   -0.2988 H.spc      1 <1>        0.000
     14 H          -2.4627   -1.4865    0.2725 H.spc      1 <1>        0.000
@<TRIPOS>BOND
     1    1    2 ar 
     2    1    3 ar 
     3    2    4 ar 
     4    3    5 ar 
     5    4    6 ar 
     6    4    7 1  
     7    5    6 ar 
     8    6    8 1  
     9    1    9 1  
    10    2   10 1  
    11    3   11 1  
    12    5   12 1  
    13    7   13 1  
    14    8   14 1  
