#      Rotatable Fragment
#      Build by yxyuan
#
# Name:          frag2-051-49/319335
# Creation time: Sat Jun  5 12:53:40 2010


@<TRIPOS>MOLECULE
frag2-051-49/319335
   16    17     1     1     1
SMALL
USER_CHARGES


@<TRIPOS>ATOM
      1 C2          2.4281    0.7790    0.3242 C.ar       1 <1>        0.000
      2 N2          1.2904    1.4913    0.4459 N.ar       1 <1>        0.000
      3 C6          2.3737   -0.5641   -0.0194 C.ar       1 <1>        0.000
      4 C10         0.0751    0.9422    0.2433 C.ar       1 <1>        0.000
      5 C11         1.1362   -1.1665   -0.2405 C.ar       1 <1>        0.000
      6 C15        -0.0319   -0.4063   -0.1064 C.ar       1 <1>        0.000
      7 N3         -1.0379    1.6937    0.3779 N.ar       1 <1>        0.000
      8 C18        -1.3040   -0.9548   -0.3115 C.ar       1 <1>        0.000
      9 C19        -2.2730    1.1865    0.1855 C.ar       1 <1>        0.000
     10 C21        -2.4302   -0.1473   -0.1628 C.ar       1 <1>        0.000
     11 H           3.3918    1.2585    0.4959 H.spc      1 <1>        0.000
     12 H           3.2917   -1.1439   -0.1157 H.spc      1 <1>        0.000
     13 H           1.0785   -2.2197   -0.5153 H.spc      1 <1>        0.000
     14 H          -1.4124   -2.0043   -0.5851 H.spc      1 <1>        0.000
     15 H          -3.1484    1.8251    0.3038 H.spc      1 <1>        0.000
     16 H          -3.4267   -0.5604   -0.3189 H.spc      1 <1>        0.000
@<TRIPOS>BOND
     1    8   10 ar 
     2    9   10 ar 
     3    7    9 ar 
     4    1    2 ar 
     5    2    4 ar 
     6    1    3 ar 
     7    3    5 ar 
     8    4    6 ar 
     9    4    7 ar 
    10    5    6 ar 
    11    6    8 ar 
    12    1   11 1  
    13    3   12 1  
    14    5   13 1  
    15    8   14 1  
    16    9   15 1  
    17   10   16 1  
# Name:          frag2-051-49/319335 -- energy: 0.101040
# Creation time: Sat Jun  5 12:53:40 2010


@<TRIPOS>MOLECULE
frag2-051-49/319335 -- energy: 0.101040
   16    17     1     1     1
SMALL
USER_CHARGES


@<TRIPOS>ATOM
      1 C2          2.4281    0.7790    0.3242 C.ar       1 <1>        0.000
      2 N2          1.2904    1.4913    0.4459 N.ar       1 <1>        0.000
      3 C6          2.3737   -0.5641   -0.0194 C.ar       1 <1>        0.000
      4 C10         0.0751    0.9422    0.2433 C.ar       1 <1>        0.000
      5 C11         1.1362   -1.1665   -0.2405 C.ar       1 <1>        0.000
      6 C15        -0.0319   -0.4063   -0.1064 C.ar       1 <1>        0.000
      7 N3         -1.0379    1.6937    0.3779 N.ar       1 <1>        0.000
      8 C18        -1.3040   -0.9548   -0.3115 C.ar       1 <1>        0.000
      9 C19        -2.2730    1.1865    0.1855 C.ar       1 <1>        0.000
     10 C21        -2.4302   -0.1473   -0.1628 C.ar       1 <1>        0.000
     11 H           3.3918    1.2585    0.4959 H.spc      1 <1>        0.000
     12 H           3.2917   -1.1439   -0.1157 H.spc      1 <1>        0.000
     13 H           1.0785   -2.2197   -0.5153 H.spc      1 <1>        0.000
     14 H          -1.4124   -2.0043   -0.5851 H.spc      1 <1>        0.000
     15 H          -3.1484    1.8251    0.3038 H.spc      1 <1>        0.000
     16 H          -3.4267   -0.5604   -0.3189 H.spc      1 <1>        0.000
@<TRIPOS>BOND
     1    8   10 ar 
     2    9   10 ar 
     3    7    9 ar 
     4    1    2 ar 
     5    2    4 ar 
     6    1    3 ar 
     7    3    5 ar 
     8    4    6 ar 
     9    4    7 ar 
    10    5    6 ar 
    11    6    8 ar 
    12    1   11 1  
    13    3   12 1  
    14    5   13 1  
    15    8   14 1  
    16    9   15 1  
    17   10   16 1  
