#      Rotatable Fragment
#      Build by yxyuan
#
# Name:          frag5-510-198/41815
# Creation time: Sat Jun  5 12:52:50 2010


@<TRIPOS>MOLECULE
frag5-510-198/41815
   10    10     1     1     1
SMALL
USER_CHARGES


@<TRIPOS>ATOM
      1 N1          1.2598   -0.2629   -0.0858 N.ar       1 <1>        0.000
      2 C1          0.4619   -1.2301   -0.2363 C.ar       1 <1>        0.000
      3 N2         -0.8725   -0.9931   -0.0917 N.ar       1 <1>        0.000
      4 C2         -1.3322    0.1924    0.1131 C.ar       1 <1>        0.000
      5 C3         -0.3782    1.2751    0.1679 C.ar       1 <1>        0.000
      6 C4          0.9066    1.0361    0.0836 C.ar       1 <1>        0.000
      7 O1          1.6555    1.9299    0.1285 O.2        1 <1>        0.000
      8 O4          0.8197   -2.3301   -0.4080 O.2        1 <1>        0.000
      9 H          -2.3998    0.3715    0.2401 H.spc      1 <1>        0.000
     10 H          -0.7306    2.3004    0.2804 H.spc      1 <1>        0.000
@<TRIPOS>BOND
     1    1    2 ar 
     2    1    6 ar 
     3    2    3 ar 
     4    2    8 2  
     5    3    4 ar 
     6    4    5 ar 
     7    5    6 ar 
     8    6    7 2  
     9    4    9 1  
    10    5   10 1  
# Name:          frag5-510-198/41815 -- energy: 0.419131
# Creation time: Sat Jun  5 12:52:50 2010


@<TRIPOS>MOLECULE
frag5-510-198/41815 -- energy: 0.419131
   10    10     1     1     1
SMALL
USER_CHARGES


@<TRIPOS>ATOM
      1 N1          1.2598   -0.2629   -0.0858 N.ar       1 <1>        0.000
      2 C1          0.4619   -1.2301   -0.2363 C.ar       1 <1>        0.000
      3 N2         -0.8725   -0.9931   -0.0917 N.ar       1 <1>        0.000
      4 C2         -1.3322    0.1924    0.1131 C.ar       1 <1>        0.000
      5 C3         -0.3782    1.2751    0.1679 C.ar       1 <1>        0.000
      6 C4          0.9066    1.0361    0.0836 C.ar       1 <1>        0.000
      7 O1          1.6555    1.9299    0.1285 O.2        1 <1>        0.000
      8 O4          0.8197   -2.3301   -0.4080 O.2        1 <1>        0.000
      9 H          -2.3998    0.3715    0.2401 H.spc      1 <1>        0.000
     10 H          -0.7306    2.3004    0.2804 H.spc      1 <1>        0.000
@<TRIPOS>BOND
     1    1    2 ar 
     2    1    6 ar 
     3    2    3 ar 
     4    2    8 2  
     5    3    4 ar 
     6    4    5 ar 
     7    5    6 ar 
     8    6    7 2  
     9    4    9 1  
    10    5   10 1  
