#      Rotatable Fragment
#      Build by yxyuan
#
# Name:          frag4-331-613/150395
# Creation time: Sat Jun  5 12:53:31 2010


@<TRIPOS>MOLECULE
frag4-331-613/150395
    7     7     1     1     1
SMALL
USER_CHARGES


@<TRIPOS>ATOM
      1 C1          1.0711   -0.1291    0.2149 C.ar       1 <1>        0.000
      2 N1         -0.0566   -0.9165    0.0562 N.ar       1 <1>        0.000
      3 N2          0.7427    1.1269    0.1236 N.ar       1 <1>        0.000
      4 C5         -1.0619   -0.1727   -0.1939 C.ar       1 <1>        0.000
      5 O1         -0.6041    1.1146   -0.2254 O.3        1 <1>        0.000
      6 H           2.0797   -0.5038    0.3896 H.spc      1 <1>        0.000
      7 H          -2.0892   -0.5008   -0.3522 H.spc      1 <1>        0.000
@<TRIPOS>BOND
     1    1    2 ar 
     2    1    3 ar 
     3    2    4 ar 
     4    3    5 ar 
     5    4    5 ar 
     6    1    6 1  
     7    4    7 1  
# Name:          frag4-331-613/150395 -- energy: -0.094195
# Creation time: Sat Jun  5 12:53:31 2010


@<TRIPOS>MOLECULE
frag4-331-613/150395 -- energy: -0.094195
    7     7     1     1     1
SMALL
USER_CHARGES


@<TRIPOS>ATOM
      1 C1          1.0711   -0.1291    0.2149 C.ar       1 <1>        0.000
      2 N1         -0.0566   -0.9165    0.0562 N.ar       1 <1>        0.000
      3 N2          0.7427    1.1269    0.1236 N.ar       1 <1>        0.000
      4 C5         -1.0619   -0.1727   -0.1939 C.ar       1 <1>        0.000
      5 O1         -0.6041    1.1146   -0.2254 O.3        1 <1>        0.000
      6 H           2.0797   -0.5038    0.3896 H.spc      1 <1>        0.000
      7 H          -2.0892   -0.5008   -0.3522 H.spc      1 <1>        0.000
@<TRIPOS>BOND
     1    1    2 ar 
     2    1    3 ar 
     3    2    4 ar 
     4    3    5 ar 
     5    4    5 ar 
     6    1    6 1  
     7    4    7 1  
