#      Rotatable Fragment
#      Build by yxyuan
#
# Name:          frag3-278-3/96164
# Creation time: Sat Jun  5 12:53:23 2010


@<TRIPOS>MOLECULE
frag3-278-3/96164
    6     5     1     1     1
SMALL
USER_CHARGES


@<TRIPOS>ATOM
      1 O3          2.1148    0.7404    0.2296 O.3        1 <1>        0.000
      2 S1          3.3201   -0.0232   -0.3814 S.o        1 <1>        0.000
      3 O4          4.0023    1.1806   -1.0369 O.3        1 <1>        0.000
      4 O5          4.1437   -0.5659    0.6831 O.2        1 <1>        0.000
      5 H           1.5724    1.0979   -0.4772 H.spc      1 <1>        0.000
      6 H           3.4413    1.5230   -1.7367 H.spc      1 <1>        0.000
@<TRIPOS>BOND
     1    1    2 1  
     2    2    3 1  
     3    2    4 2  
     4    1    5 1  
     5    3    6 1  
# Name:          frag3-278-3/96164 -- energy: -0.114361
# Creation time: Sat Jun  5 12:53:23 2010


@<TRIPOS>MOLECULE
frag3-278-3/96164 -- energy: -0.114361
    6     5     1     1     1
SMALL
USER_CHARGES


@<TRIPOS>ATOM
      1 O3          2.1148    0.7404    0.2296 O.3        1 <1>        0.000
      2 S1          3.3201   -0.0232   -0.3814 S.o        1 <1>        0.000
      3 O4          4.0023    1.1806   -1.0369 O.3        1 <1>        0.000
      4 O5          4.1437   -0.5659    0.6831 O.2        1 <1>        0.000
      5 H           1.5724    1.0979   -0.4772 H.spc      1 <1>        0.000
      6 H           3.4413    1.5230   -1.7367 H.spc      1 <1>        0.000
@<TRIPOS>BOND
     1    1    2 1  
     2    2    3 1  
     3    2    4 2  
     4    1    5 1  
     5    3    6 1  
