#      Rotatable Fragment
#      Build by yxyuan
#
# Name:          frag3-260-4/96164
# Creation time: Sat Jun  5 12:53:21 2010


@<TRIPOS>MOLECULE
frag3-260-4/96164
   16    15     1     1     1
SMALL
USER_CHARGES


@<TRIPOS>ATOM
      1 C14         0.3218   -0.6525    0.2785 C.2        1 <1>        0.000
      2 C18         1.1380    0.3912    0.2642 C.2        1 <1>        0.000
      3 C21         0.6543    1.7677    0.1808 C.2        1 <1>        0.000
      4 N1          1.4031    2.7358   -0.1582 N.2        1 <1>        0.000
      5 N2          2.6570    2.5764   -0.5463 N.pl3      1 <1>        0.000
      6 C23         3.5626    3.5557   -0.5735 C.cat      1 <1>        0.000
      7 N3          3.0729    4.7851   -0.6733 N.pl3      1 <1>        0.000
      8 N4          4.8066    3.3427   -0.4881 N.pl3      1 <1>        0.000
      9 H          -0.7565   -0.5018    0.2270 H.spc      1 <1>        0.000
     10 H           0.7287   -1.6617    0.3418 H.spc      1 <1>        0.000
     11 H           2.2126    0.2162    0.3167 H.spc      1 <1>        0.000
     12 H          -0.3897    1.9714    0.4188 H.spc      1 <1>        0.000
     13 H           2.9505    1.6459   -0.8437 H.spc      1 <1>        0.000
     14 H           3.7041    5.5863   -0.6825 H.spc      1 <1>        0.000
     15 H           2.0653    4.9288   -0.7408 H.spc      1 <1>        0.000
     16 H           5.4598    4.1261   -0.4950 H.spc      1 <1>        0.000
@<TRIPOS>BOND
     1    6    8 ar 
     2    1    2 2  
     3    2    3 1  
     4    3    4 2  
     5    4    5 1  
     6    5    6 ar 
     7    6    7 ar 
     8    1    9 1  
     9    1   10 1  
    10    2   11 1  
    11    3   12 1  
    12    5   13 1  
    13    7   14 1  
    14    7   15 1  
    15    8   16 1  
# Name:          frag3-260-4/96164
# Creation time: Sat Jun  5 12:53:21 2010


@<TRIPOS>MOLECULE
frag3-260-4/96164
   16    15     1     1     1
SMALL
USER_CHARGES


@<TRIPOS>ATOM
      1 C14         0.2164   -0.5017   -0.2047 C.2        1 <1>        0.000
      2 C18         1.0592    0.5266   -0.2757 C.2        1 <1>        0.000
      3 C21         1.2534    1.4315    0.8494 C.2        1 <1>        0.000
      4 N1          1.7620    2.5982    0.7361 N.2        1 <1>        0.000
      5 N2          2.1381    3.1348   -0.4228 N.pl3      1 <1>        0.000
      6 C23         3.3538    3.6218   -0.6820 C.cat      1 <1>        0.000
      7 N3          3.5673    4.1217   -1.9065 N.pl3      1 <1>        0.000
      8 N4          4.2662    3.5691    0.1903 N.pl3      1 <1>        0.000
      9 H          -0.3475   -0.6820    0.7105 H.spc      1 <1>        0.000
     10 H           0.0904   -1.1632   -1.0618 H.spc      1 <1>        0.000
     11 H           1.6168    0.6953   -1.1970 H.spc      1 <1>        0.000
     12 H           0.9486    1.0954    1.8405 H.spc      1 <1>        0.000
     13 H           1.4446    3.1771   -1.1696 H.spc      1 <1>        0.000
     14 H           4.4901    4.4753   -2.1592 H.spc      1 <1>        0.000
     15 H           2.8071    4.1487   -2.5860 H.spc      1 <1>        0.000
     16 H           5.2010    3.9138   -0.0280 H.spc      1 <1>        0.000
@<TRIPOS>BOND
     1    6    8 ar 
     2    1    2 2  
     3    2    3 1  
     4    3    4 2  
     5    4    5 1  
     6    5    6 ar 
     7    6    7 ar 
     8    1    9 1  
     9    1   10 1  
    10    2   11 1  
    11    3   12 1  
    12    5   13 1  
    13    7   14 1  
    14    7   15 1  
    15    8   16 1  
# Name:          frag3-260-4/96164
# Creation time: Sat Jun  5 12:53:21 2010


@<TRIPOS>MOLECULE
frag3-260-4/96164
   16    15     1     1     1
SMALL
USER_CHARGES


@<TRIPOS>ATOM
      1 C14         0.7741   -0.2756    1.0043 C.2        1 <1>        0.000
      2 C18         1.3677    0.8128    0.5295 C.2        1 <1>        0.000
      3 C21         1.1241    1.3070   -0.8264 C.2        1 <1>        0.000
      4 N1          1.3123    2.5214   -1.1852 N.2        1 <1>        0.000
      5 N2          1.9411    3.4053   -0.4198 N.pl3      1 <1>        0.000
      6 C23         3.2824    3.5295   -0.3241 C.cat      1 <1>        0.000
      7 N3          3.7768    4.3938    0.5542 N.pl3      1 <1>        0.000
      8 N4          4.0379    2.8078   -1.0484 N.pl3      1 <1>        0.000
      9 H           0.0782   -0.8340    0.3782 H.spc      1 <1>        0.000
     10 H           0.9826   -0.6109    2.0203 H.spc      1 <1>        0.000
     11 H           2.0603    1.3571    1.1715 H.spc      1 <1>        0.000
     12 H           0.7617    0.6007   -1.5734 H.spc      1 <1>        0.000
     13 H           1.3679    4.0383    0.1380 H.spc      1 <1>        0.000
     14 H           4.7865    4.4914    0.6608 H.spc      1 <1>        0.000
     15 H           3.1469    4.9602    1.1224 H.spc      1 <1>        0.000
     16 H           5.0514    2.8845   -0.9629 H.spc      1 <1>        0.000
@<TRIPOS>BOND
     1    6    8 ar 
     2    1    2 2  
     3    2    3 1  
     4    3    4 2  
     5    4    5 1  
     6    5    6 ar 
     7    6    7 ar 
     8    1    9 1  
     9    1   10 1  
    10    2   11 1  
    11    3   12 1  
    12    5   13 1  
    13    7   14 1  
    14    7   15 1  
    15    8   16 1  
# Name:          frag3-260-4/96164
# Creation time: Sat Jun  5 12:53:21 2010


@<TRIPOS>MOLECULE
frag3-260-4/96164
   16    15     1     1     1
SMALL
USER_CHARGES


@<TRIPOS>ATOM
      1 C14         0.7431   -0.3298   -0.4413 C.2        1 <1>        0.000
      2 C18         1.4003    0.7788   -0.1277 C.2        1 <1>        0.000
      3 C21         0.7256    2.0236    0.2533 C.2        1 <1>        0.000
      4 N1          1.3361    3.0624    0.6843 N.2        1 <1>        0.000
      5 N2          2.6580    3.1543    0.6174 N.pl3      1 <1>        0.000
      6 C23         3.3948    3.2457   -0.5167 C.cat      1 <1>        0.000
      7 N3          2.7051    3.1675   -1.6556 N.pl3      1 <1>        0.000
      8 N4          4.6535    3.3996   -0.5297 N.pl3      1 <1>        0.000
      9 H          -0.3467   -0.3412   -0.4224 H.spc      1 <1>        0.000
     10 H           1.2928   -1.2295   -0.7179 H.spc      1 <1>        0.000
     11 H           2.4899    0.7638   -0.1544 H.spc      1 <1>        0.000
     12 H          -0.3599    2.0667    0.1642 H.spc      1 <1>        0.000
     13 H           3.1670    3.1564    1.5013 H.spc      1 <1>        0.000
     14 H           3.1898    3.2315   -2.5508 H.spc      1 <1>        0.000
     15 H           1.6929    3.0437   -1.6314 H.spc      1 <1>        0.000
     16 H           5.1501    3.4650   -1.4182 H.spc      1 <1>        0.000
@<TRIPOS>BOND
     1    6    8 ar 
     2    1    2 2  
     3    2    3 1  
     4    3    4 2  
     5    4    5 1  
     6    5    6 ar 
     7    6    7 ar 
     8    1    9 1  
     9    1   10 1  
    10    2   11 1  
    11    3   12 1  
    12    5   13 1  
    13    7   14 1  
    14    7   15 1  
    15    8   16 1  
# Name:          frag3-260-4/96164
# Creation time: Sat Jun  5 12:53:21 2010


@<TRIPOS>MOLECULE
frag3-260-4/96164
   16    15     1     1     1
SMALL
USER_CHARGES


@<TRIPOS>ATOM
      1 C14         0.1524   -0.4164    0.8876 C.2        1 <1>        0.000
      2 C18         0.8988    0.6516    0.6280 C.2        1 <1>        0.000
      3 C21         1.1012    1.1212   -0.7368 C.2        1 <1>        0.000
      4 N1          1.7634    2.1664   -1.0528 N.2        1 <1>        0.000
      5 N2          2.3642    2.9987   -0.1944 N.pl3      1 <1>        0.000
      6 C23         3.4483    3.7479   -0.3796 C.cat      1 <1>        0.000
      7 N3          3.5350    4.8626    0.3312 N.pl3      1 <1>        0.000
      8 N4          4.3530    3.3701   -1.1992 N.pl3      1 <1>        0.000
      9 H          -0.3232   -0.9604    0.0715 H.spc      1 <1>        0.000
     10 H           0.0156   -0.7486    1.9167 H.spc      1 <1>        0.000
     11 H           1.3693    1.1874    1.4524 H.spc      1 <1>        0.000
     12 H           0.6563    0.5396   -1.5442 H.spc      1 <1>        0.000
     13 H           1.9326    3.0683    0.7271 H.spc      1 <1>        0.000
     14 H           4.3529    5.4649    0.2376 H.spc      1 <1>        0.000
     15 H           2.7839    5.1185    0.9721 H.spc      1 <1>        0.000
     16 H           5.1912    3.9364   -1.3301 H.spc      1 <1>        0.000
@<TRIPOS>BOND
     1    6    8 ar 
     2    1    2 2  
     3    2    3 1  
     4    3    4 2  
     5    4    5 1  
     6    5    6 ar 
     7    6    7 ar 
     8    1    9 1  
     9    1   10 1  
    10    2   11 1  
    11    3   12 1  
    12    5   13 1  
    13    7   14 1  
    14    7   15 1  
    15    8   16 1  
# Name:          frag3-260-4/96164
# Creation time: Sat Jun  5 12:53:21 2010


@<TRIPOS>MOLECULE
frag3-260-4/96164
   16    15     1     1     1
SMALL
USER_CHARGES


@<TRIPOS>ATOM
      1 C14         0.2304   -0.5132   -0.1233 C.2        1 <1>        0.000
      2 C18         1.0906    0.4950   -0.1123 C.2        1 <1>        0.000
      3 C21         0.7297    1.8343    0.3469 C.2        1 <1>        0.000
      4 N1          1.5885    2.7576    0.5035 N.2        1 <1>        0.000
      5 N2          2.8629    2.6133    0.1851 N.pl3      1 <1>        0.000
      6 C23         3.5302    3.4807   -0.5825 C.cat      1 <1>        0.000
      7 N3          2.8069    4.1690   -1.4609 N.pl3      1 <1>        0.000
      8 N4          4.7773    3.6654   -0.4724 N.pl3      1 <1>        0.000
      9 H          -0.7929   -0.3603    0.2195 H.spc      1 <1>        0.000
     10 H           0.5463   -1.4953   -0.4752 H.spc      1 <1>        0.000
     11 H           2.1084    0.3179   -0.4599 H.spc      1 <1>        0.000
     12 H          -0.3166    2.0497    0.5635 H.spc      1 <1>        0.000
     13 H           3.3624    1.7992    0.5430 H.spc      1 <1>        0.000
     14 H           3.2562    4.8605   -2.0612 H.spc      1 <1>        0.000
     15 H           1.8028    4.0054   -1.5344 H.spc      1 <1>        0.000
     16 H           5.2453    4.3524   -1.0636 H.spc      1 <1>        0.000
@<TRIPOS>BOND
     1    6    8 ar 
     2    1    2 2  
     3    2    3 1  
     4    3    4 2  
     5    4    5 1  
     6    5    6 ar 
     7    6    7 ar 
     8    1    9 1  
     9    1   10 1  
    10    2   11 1  
    11    3   12 1  
    12    5   13 1  
    13    7   14 1  
    14    7   15 1  
    15    8   16 1  
# Name:          frag3-260-4/96164
# Creation time: Sat Jun  5 12:53:21 2010


@<TRIPOS>MOLECULE
frag3-260-4/96164
   16    15     1     1     1
SMALL
USER_CHARGES


@<TRIPOS>ATOM
      1 C14         0.9708   -0.5610   -0.1609 C.2        1 <1>        0.000
      2 C18         1.5429    0.6437   -0.1202 C.2        1 <1>        0.000
      3 C21         0.9954    1.7331    0.6917 C.2        1 <1>        0.000
      4 N1          1.1399    2.9753    0.4335 N.2        1 <1>        0.000
      5 N2          1.9141    3.4317   -0.5407 N.pl3      1 <1>        0.000
      6 C23         3.2597    3.4153   -0.6196 C.cat      1 <1>        0.000
      7 N3          3.8321    4.1465   -1.5854 N.pl3      1 <1>        0.000
      8 N4          3.9615    2.7174    0.1856 N.pl3      1 <1>        0.000
      9 H           0.0699   -0.7564    0.4207 H.spc      1 <1>        0.000
     10 H           1.4043   -1.3497   -0.7758 H.spc      1 <1>        0.000
     11 H           2.4434    0.8223   -0.7079 H.spc      1 <1>        0.000
     12 H           0.4237    1.4641    1.5799 H.spc      1 <1>        0.000
     13 H           1.4284    3.8499   -1.3342 H.spc      1 <1>        0.000
     14 H           4.8470    4.1521   -1.6872 H.spc      1 <1>        0.000
     15 H           3.2530    4.6976   -2.2189 H.spc      1 <1>        0.000
     16 H           4.9779    2.7093    0.1008 H.spc      1 <1>        0.000
@<TRIPOS>BOND
     1    6    8 ar 
     2    1    2 2  
     3    2    3 1  
     4    3    4 2  
     5    4    5 1  
     6    5    6 ar 
     7    6    7 ar 
     8    1    9 1  
     9    1   10 1  
    10    2   11 1  
    11    3   12 1  
    12    5   13 1  
    13    7   14 1  
    14    7   15 1  
    15    8   16 1  
# Name:          frag3-260-4/96164
# Creation time: Sat Jun  5 12:53:21 2010


@<TRIPOS>MOLECULE
frag3-260-4/96164
   16    15     1     1     1
SMALL
USER_CHARGES


@<TRIPOS>ATOM
      1 C14         1.4236   -0.2332    0.2156 C.2        1 <1>        0.000
      2 C18         0.7927    0.8111    0.7627 C.2        1 <1>        0.000
      3 C21         0.4106    1.9561   -0.0596 C.2        1 <1>        0.000
      4 N1          1.2187    2.6834   -0.7170 N.2        1 <1>        0.000
      5 N2          2.5154    2.4365   -0.7813 N.pl3      1 <1>        0.000
      6 C23         3.4798    3.3130   -0.4894 C.cat      1 <1>        0.000
      7 N3          3.0761    4.4212    0.1216 N.pl3      1 <1>        0.000
      8 N4          4.6994    3.1140   -0.7685 N.pl3      1 <1>        0.000
      9 H           1.6554   -0.2330   -0.8495 H.spc      1 <1>        0.000
     10 H           1.7061   -1.0847    0.8347 H.spc      1 <1>        0.000
     11 H           0.5623    0.8079    1.8281 H.spc      1 <1>        0.000
     12 H          -0.6491    2.2058   -0.1134 H.spc      1 <1>        0.000
     13 H           2.8021    1.5034   -1.0770 H.spc      1 <1>        0.000
     14 H           3.7547    5.1382    0.3782 H.spc      1 <1>        0.000
     15 H           2.0875    4.5552    0.3342 H.spc      1 <1>        0.000
     16 H           5.3995    3.8142   -0.5235 H.spc      1 <1>        0.000
@<TRIPOS>BOND
     1    6    8 ar 
     2    1    2 2  
     3    2    3 1  
     4    3    4 2  
     5    4    5 1  
     6    5    6 ar 
     7    6    7 ar 
     8    1    9 1  
     9    1   10 1  
    10    2   11 1  
    11    3   12 1  
    12    5   13 1  
    13    7   14 1  
    14    7   15 1  
    15    8   16 1  
# Name:          frag3-260-4/96164
# Creation time: Sat Jun  5 12:53:21 2010


@<TRIPOS>MOLECULE
frag3-260-4/96164
   16    15     1     1     1
SMALL
USER_CHARGES


@<TRIPOS>ATOM
      1 C14         0.2226    0.4079   -0.8709 C.2        1 <1>        0.000
      2 C18         0.9201    0.2498    0.2553 C.2        1 <1>        0.000
      3 C21         1.1951    1.4015    1.0983 C.2        1 <1>        0.000
      4 N1          1.9767    2.3642    0.7933 N.2        1 <1>        0.000
      5 N2          2.5674    2.5122   -0.3759 N.pl3      1 <1>        0.000
      6 C23         3.3527    3.5303   -0.7343 C.cat      1 <1>        0.000
      7 N3          3.3153    3.9223   -2.0090 N.pl3      1 <1>        0.000
      8 N4          4.0666    4.1137    0.1274 N.pl3      1 <1>        0.000
      9 H          -0.1377    1.3968   -1.1545 H.spc      1 <1>        0.000
     10 H           0.0130   -0.4518   -1.5074 H.spc      1 <1>        0.000
     11 H           1.2818   -0.7377    0.5417 H.spc      1 <1>        0.000
     12 H           0.6954    1.4470    2.0659 H.spc      1 <1>        0.000
     13 H           2.4099    1.7818   -1.0703 H.spc      1 <1>        0.000
     14 H           3.8758    4.7178   -2.3146 H.spc      1 <1>        0.000
     15 H           2.7262    3.4265   -2.6780 H.spc      1 <1>        0.000
     16 H           4.6402    4.9130   -0.1420 H.spc      1 <1>        0.000
@<TRIPOS>BOND
     1    6    8 ar 
     2    1    2 2  
     3    2    3 1  
     4    3    4 2  
     5    4    5 1  
     6    5    6 ar 
     7    6    7 ar 
     8    1    9 1  
     9    1   10 1  
    10    2   11 1  
    11    3   12 1  
    12    5   13 1  
    13    7   14 1  
    14    7   15 1  
    15    8   16 1  
# Name:          frag3-260-4/96164
# Creation time: Sat Jun  5 12:53:21 2010


@<TRIPOS>MOLECULE
frag3-260-4/96164
   16    15     1     1     1
SMALL
USER_CHARGES


@<TRIPOS>ATOM
      1 C14         0.7357    0.0434   -0.7705 C.2        1 <1>        0.000
      2 C18         1.5790    0.5067    0.1543 C.2        1 <1>        0.000
      3 C21         1.2037    1.6440    0.9939 C.2        1 <1>        0.000
      4 N1          1.3371    2.8854    0.6939 N.2        1 <1>        0.000
      5 N2          1.8907    3.2575   -0.4579 N.pl3      1 <1>        0.000
      6 C23         3.2126    3.3634   -0.6867 C.cat      1 <1>        0.000
      7 N3          3.6347    3.4541   -1.9322 N.pl3      1 <1>        0.000
      8 N4          4.0229    3.3476    0.2894 N.pl3      1 <1>        0.000
      9 H          -0.2390    0.5129   -0.9034 H.spc      1 <1>        0.000
     10 H           1.0216   -0.8045   -1.3929 H.spc      1 <1>        0.000
     11 H           2.5529    0.0349    0.2847 H.spc      1 <1>        0.000
     12 H           0.7693    1.4160    1.9672 H.spc      1 <1>        0.000
     13 H           1.2621    3.4804   -1.2296 H.spc      1 <1>        0.000
     14 H           4.6338    3.5136   -2.1291 H.spc      1 <1>        0.000
     15 H           2.9623    3.4648   -2.6991 H.spc      1 <1>        0.000
     16 H           5.0270    3.4058    0.1197 H.spc      1 <1>        0.000
@<TRIPOS>BOND
     1    6    8 ar 
     2    1    2 2  
     3    2    3 1  
     4    3    4 2  
     5    4    5 1  
     6    5    6 ar 
     7    6    7 ar 
     8    1    9 1  
     9    1   10 1  
    10    2   11 1  
    11    3   12 1  
    12    5   13 1  
    13    7   14 1  
    14    7   15 1  
    15    8   16 1  
# Name:          frag3-260-4/96164
# Creation time: Sat Jun  5 12:53:21 2010


@<TRIPOS>MOLECULE
frag3-260-4/96164
   16    15     1     1     1
SMALL
USER_CHARGES


@<TRIPOS>ATOM
      1 C14         1.6333    0.0879   -0.6672 C.2        1 <1>        0.000
      2 C18         0.6232    0.5626    0.0722 C.2        1 <1>        0.000
      3 C21         0.8470    1.6838    0.9796 C.2        1 <1>        0.000
      4 N1          1.4694    2.7574    0.7013 N.2        1 <1>        0.000
      5 N2          2.0009    3.0244   -0.4794 N.pl3      1 <1>        0.000
      6 C23         3.2884    3.3471   -0.6892 C.cat      1 <1>        0.000
      7 N3          3.5994    3.9094   -1.8436 N.pl3      1 <1>        0.000
      8 N4          4.1548    3.1295    0.2105 N.pl3      1 <1>        0.000
      9 H           2.6228    0.5387   -0.5916 H.spc      1 <1>        0.000
     10 H           1.4662   -0.7494   -1.3448 H.spc      1 <1>        0.000
     11 H          -0.3663    0.1118   -0.0034 H.spc      1 <1>        0.000
     12 H           0.4437    1.5926    1.9881 H.spc      1 <1>        0.000
     13 H           1.3871    2.9823   -1.2929 H.spc      1 <1>        0.000
     14 H           4.5632    4.1837   -2.0340 H.spc      1 <1>        0.000
     15 H           2.8757    4.0692   -2.5444 H.spc      1 <1>        0.000
     16 H           5.1284    3.3907    0.0548 H.spc      1 <1>        0.000
@<TRIPOS>BOND
     1    6    8 ar 
     2    1    2 2  
     3    2    3 1  
     4    3    4 2  
     5    4    5 1  
     6    5    6 ar 
     7    6    7 ar 
     8    1    9 1  
     9    1   10 1  
    10    2   11 1  
    11    3   12 1  
    12    5   13 1  
    13    7   14 1  
    14    7   15 1  
    15    8   16 1  
# Name:          frag3-260-4/96164
# Creation time: Sat Jun  5 12:53:21 2010


@<TRIPOS>MOLECULE
frag3-260-4/96164
   16    15     1     1     1
SMALL
USER_CHARGES


@<TRIPOS>ATOM
      1 C14         1.3433    0.0123   -0.6646 C.2        1 <1>        0.000
      2 C18         0.6555    0.4945    0.3775 C.2        1 <1>        0.000
      3 C21         0.4854    1.9334    0.5400 C.2        1 <1>        0.000
      4 N1          1.4061    2.7996    0.4299 N.2        1 <1>        0.000
      5 N2          2.6517    2.5188    0.0952 N.pl3      1 <1>        0.000
      6 C23         3.4700    3.3108   -0.5986 C.cat      1 <1>        0.000
      7 N3          2.8797    4.1216   -1.4688 N.pl3      1 <1>        0.000
      8 N4          4.7246    3.3110   -0.4266 N.pl3      1 <1>        0.000
      9 H           1.7777    0.6958   -1.3941 H.spc      1 <1>        0.000
     10 H           1.4690   -1.0639   -0.7837 H.spc      1 <1>        0.000
     11 H           0.2216   -0.1901    1.1063 H.spc      1 <1>        0.000
     12 H          -0.5155    2.2950    0.7756 H.spc      1 <1>        0.000
     13 H           3.0210    1.6161    0.3937 H.spc      1 <1>        0.000
     14 H           3.4395    4.7697   -2.0228 H.spc      1 <1>        0.000
     15 H           1.8665    4.0963   -1.5832 H.spc      1 <1>        0.000
     16 H           5.3131    3.9469   -0.9648 H.spc      1 <1>        0.000
@<TRIPOS>BOND
     1    6    8 ar 
     2    1    2 2  
     3    2    3 1  
     4    3    4 2  
     5    4    5 1  
     6    5    6 ar 
     7    6    7 ar 
     8    1    9 1  
     9    1   10 1  
    10    2   11 1  
    11    3   12 1  
    12    5   13 1  
    13    7   14 1  
    14    7   15 1  
    15    8   16 1  
# Name:          frag3-260-4/96164
# Creation time: Sat Jun  5 12:53:21 2010


@<TRIPOS>MOLECULE
frag3-260-4/96164
   16    15     1     1     1
SMALL
USER_CHARGES


@<TRIPOS>ATOM
      1 C14         1.8045    0.4982    1.1006 C.2        1 <1>        0.000
      2 C18         0.7115    0.5850    0.3324 C.2        1 <1>        0.000
      3 C21         0.7738    1.3328   -0.9338 C.2        1 <1>        0.000
      4 N1          1.2561    2.4943   -1.1653 N.2        1 <1>        0.000
      5 N2          1.9581    3.2031   -0.2862 N.pl3      1 <1>        0.000
      6 C23         3.2924    3.4068   -0.2828 C.cat      1 <1>        0.000
      7 N3          3.8146    4.0987    0.7251 N.pl3      1 <1>        0.000
      8 N4          4.0053    2.8831   -1.2059 N.pl3      1 <1>        0.000
      9 H           2.7309    0.9792    0.7867 H.spc      1 <1>        0.000
     10 H           1.7680   -0.0534    2.0400 H.spc      1 <1>        0.000
     11 H          -0.2172    0.1057    0.6422 H.spc      1 <1>        0.000
     12 H           0.3477    0.8235   -1.7982 H.spc      1 <1>        0.000
     13 H           1.4302    3.6411    0.4687 H.spc      1 <1>        0.000
     14 H           4.8244    4.2299    0.7845 H.spc      1 <1>        0.000
     15 H           3.2055    4.4984    1.4390 H.spc      1 <1>        0.000
     16 H           5.0197    2.9880   -1.1883 H.spc      1 <1>        0.000
@<TRIPOS>BOND
     1    6    8 ar 
     2    1    2 2  
     3    2    3 1  
     4    3    4 2  
     5    4    5 1  
     6    5    6 ar 
     7    6    7 ar 
     8    1    9 1  
     9    1   10 1  
    10    2   11 1  
    11    3   12 1  
    12    5   13 1  
    13    7   14 1  
    14    7   15 1  
    15    8   16 1  
# Name:          frag3-260-4/96164
# Creation time: Sat Jun  5 12:53:21 2010


@<TRIPOS>MOLECULE
frag3-260-4/96164
   16    15     1     1     1
SMALL
USER_CHARGES


@<TRIPOS>ATOM
      1 C14         1.8527    0.4060    0.9586 C.2        1 <1>        0.000
      2 C18         0.8534    0.5594    0.0835 C.2        1 <1>        0.000
      3 C21         0.3876    1.8950   -0.2876 C.2        1 <1>        0.000
      4 N1          1.0907    2.8088   -0.8318 N.2        1 <1>        0.000
      5 N2          2.3793    2.6555   -1.1057 N.pl3      1 <1>        0.000
      6 C23         3.3950    3.2047   -0.4259 C.cat      1 <1>        0.000
      7 N3          3.0424    4.0114    0.5698 N.pl3      1 <1>        0.000
      8 N4          4.6153    2.9613   -0.6768 N.pl3      1 <1>        0.000
      9 H           2.3278    1.2810    1.4022 H.spc      1 <1>        0.000
     10 H           2.1922   -0.5940    1.2283 H.spc      1 <1>        0.000
     11 H           0.3818   -0.3189   -0.3572 H.spc      1 <1>        0.000
     12 H          -0.6561    2.1308   -0.0800 H.spc      1 <1>        0.000
     13 H           2.6182    2.0677   -1.9043 H.spc      1 <1>        0.000
     14 H           3.7584    4.4487    1.1499 H.spc      1 <1>        0.000
     15 H           2.0558    4.1932    0.7539 H.spc      1 <1>        0.000
     16 H           5.3476    3.3880   -0.1093 H.spc      1 <1>        0.000
@<TRIPOS>BOND
     1    6    8 ar 
     2    1    2 2  
     3    2    3 1  
     4    3    4 2  
     5    4    5 1  
     6    5    6 ar 
     7    6    7 ar 
     8    1    9 1  
     9    1   10 1  
    10    2   11 1  
    11    3   12 1  
    12    5   13 1  
    13    7   14 1  
    14    7   15 1  
    15    8   16 1  
# Name:          frag3-260-4/96164
# Creation time: Sat Jun  5 12:53:21 2010


@<TRIPOS>MOLECULE
frag3-260-4/96164
   16    15     1     1     1
SMALL
USER_CHARGES


@<TRIPOS>ATOM
      1 C14         1.5996   -0.2569   -0.0805 C.2        1 <1>        0.000
      2 C18         0.7092    0.5574    0.4933 C.2        1 <1>        0.000
      3 C21         0.3902    1.8564   -0.0954 C.2        1 <1>        0.000
      4 N1          1.2010    2.8319   -0.1719 N.2        1 <1>        0.000
      5 N2          2.4737    2.7419    0.1797 N.pl3      1 <1>        0.000
      6 C23         3.4688    3.3627   -0.4599 C.cat      1 <1>        0.000
      7 N3          3.2437    4.6346   -0.7534 N.pl3      1 <1>        0.000
      8 N4          4.5302    2.7741   -0.8276 N.pl3      1 <1>        0.000
      9 H           2.0997    0.0443   -1.0010 H.spc      1 <1>        0.000
     10 H           1.8259   -1.2224    0.3719 H.spc      1 <1>        0.000
     11 H           0.2136    0.2484    1.4137 H.spc      1 <1>        0.000
     12 H          -0.6132    1.9984   -0.4969 H.spc      1 <1>        0.000
     13 H           2.7088    2.1643    0.9869 H.spc      1 <1>        0.000
     14 H           3.9326    5.1644   -1.2874 H.spc      1 <1>        0.000
     15 H           2.3815    5.0842   -0.4455 H.spc      1 <1>        0.000
     16 H           5.2353    3.2810   -1.3627 H.spc      1 <1>        0.000
@<TRIPOS>BOND
     1    6    8 ar 
     2    1    2 2  
     3    2    3 1  
     4    3    4 2  
     5    4    5 1  
     6    5    6 ar 
     7    6    7 ar 
     8    1    9 1  
     9    1   10 1  
    10    2   11 1  
    11    3   12 1  
    12    5   13 1  
    13    7   14 1  
    14    7   15 1  
    15    8   16 1  
# Name:          frag3-260-4/96164 -- energy: -0.560802
# Creation time: Sat Jun  5 12:53:21 2010


@<TRIPOS>MOLECULE
frag3-260-4/96164 -- energy: -0.560802
   16    15     1     1     1
SMALL
USER_CHARGES


@<TRIPOS>ATOM
      1 C14         0.3218   -0.6525    0.2785 C.2        1 <1>        0.000
      2 C18         1.1380    0.3912    0.2642 C.2        1 <1>        0.000
      3 C21         0.6543    1.7677    0.1808 C.2        1 <1>        0.000
      4 N1          1.4031    2.7358   -0.1582 N.2        1 <1>        0.000
      5 N2          2.6570    2.5764   -0.5463 N.pl3      1 <1>        0.000
      6 C23         3.5626    3.5557   -0.5735 C.cat      1 <1>        0.000
      7 N3          3.0729    4.7851   -0.6733 N.pl3      1 <1>        0.000
      8 N4          4.8066    3.3427   -0.4881 N.pl3      1 <1>        0.000
      9 H          -0.7565   -0.5018    0.2270 H.spc      1 <1>        0.000
     10 H           0.7287   -1.6617    0.3418 H.spc      1 <1>        0.000
     11 H           2.2126    0.2162    0.3167 H.spc      1 <1>        0.000
     12 H          -0.3897    1.9714    0.4188 H.spc      1 <1>        0.000
     13 H           2.9505    1.6459   -0.8437 H.spc      1 <1>        0.000
     14 H           3.7041    5.5863   -0.6825 H.spc      1 <1>        0.000
     15 H           2.0653    4.9288   -0.7408 H.spc      1 <1>        0.000
     16 H           5.4598    4.1261   -0.4950 H.spc      1 <1>        0.000
@<TRIPOS>BOND
     1    6    8 ar 
     2    1    2 2  
     3    2    3 1  
     4    3    4 2  
     5    4    5 1  
     6    5    6 ar 
     7    6    7 ar 
     8    1    9 1  
     9    1   10 1  
    10    2   11 1  
    11    3   12 1  
    12    5   13 1  
    13    7   14 1  
    14    7   15 1  
    15    8   16 1  
# Name:          frag3-260-4/96164 -- energy: -1.177862
# Creation time: Sat Jun  5 12:53:21 2010


@<TRIPOS>MOLECULE
frag3-260-4/96164 -- energy: -1.177862
   16    15     1     1     1
SMALL
USER_CHARGES


@<TRIPOS>ATOM
      1 C14         0.2164   -0.5017   -0.2047 C.2        1 <1>        0.000
      2 C18         1.0592    0.5266   -0.2757 C.2        1 <1>        0.000
      3 C21         1.2534    1.4315    0.8494 C.2        1 <1>        0.000
      4 N1          1.7620    2.5982    0.7361 N.2        1 <1>        0.000
      5 N2          2.1381    3.1348   -0.4228 N.pl3      1 <1>        0.000
      6 C23         3.3538    3.6218   -0.6820 C.cat      1 <1>        0.000
      7 N3          3.5673    4.1217   -1.9065 N.pl3      1 <1>        0.000
      8 N4          4.2662    3.5691    0.1903 N.pl3      1 <1>        0.000
      9 H          -0.3475   -0.6820    0.7105 H.spc      1 <1>        0.000
     10 H           0.0904   -1.1632   -1.0618 H.spc      1 <1>        0.000
     11 H           1.6168    0.6953   -1.1970 H.spc      1 <1>        0.000
     12 H           0.9486    1.0954    1.8405 H.spc      1 <1>        0.000
     13 H           1.4446    3.1771   -1.1696 H.spc      1 <1>        0.000
     14 H           4.4901    4.4753   -2.1592 H.spc      1 <1>        0.000
     15 H           2.8071    4.1487   -2.5860 H.spc      1 <1>        0.000
     16 H           5.2010    3.9138   -0.0280 H.spc      1 <1>        0.000
@<TRIPOS>BOND
     1    6    8 ar 
     2    1    2 2  
     3    2    3 1  
     4    3    4 2  
     5    4    5 1  
     6    5    6 ar 
     7    6    7 ar 
     8    1    9 1  
     9    1   10 1  
    10    2   11 1  
    11    3   12 1  
    12    5   13 1  
    13    7   14 1  
    14    7   15 1  
    15    8   16 1  
# Name:          frag3-260-4/96164 -- energy: -1.397844
# Creation time: Sat Jun  5 12:53:21 2010


@<TRIPOS>MOLECULE
frag3-260-4/96164 -- energy: -1.397844
   16    15     1     1     1
SMALL
USER_CHARGES


@<TRIPOS>ATOM
      1 C14         0.7741   -0.2756    1.0043 C.2        1 <1>        0.000
      2 C18         1.3677    0.8128    0.5295 C.2        1 <1>        0.000
      3 C21         1.1241    1.3070   -0.8264 C.2        1 <1>        0.000
      4 N1          1.3123    2.5214   -1.1852 N.2        1 <1>        0.000
      5 N2          1.9411    3.4053   -0.4198 N.pl3      1 <1>        0.000
      6 C23         3.2824    3.5295   -0.3241 C.cat      1 <1>        0.000
      7 N3          3.7768    4.3938    0.5542 N.pl3      1 <1>        0.000
      8 N4          4.0379    2.8078   -1.0484 N.pl3      1 <1>        0.000
      9 H           0.0782   -0.8340    0.3782 H.spc      1 <1>        0.000
     10 H           0.9826   -0.6109    2.0203 H.spc      1 <1>        0.000
     11 H           2.0603    1.3571    1.1715 H.spc      1 <1>        0.000
     12 H           0.7617    0.6007   -1.5734 H.spc      1 <1>        0.000
     13 H           1.3679    4.0383    0.1380 H.spc      1 <1>        0.000
     14 H           4.7865    4.4914    0.6608 H.spc      1 <1>        0.000
     15 H           3.1469    4.9602    1.1224 H.spc      1 <1>        0.000
     16 H           5.0514    2.8845   -0.9629 H.spc      1 <1>        0.000
@<TRIPOS>BOND
     1    6    8 ar 
     2    1    2 2  
     3    2    3 1  
     4    3    4 2  
     5    4    5 1  
     6    5    6 ar 
     7    6    7 ar 
     8    1    9 1  
     9    1   10 1  
    10    2   11 1  
    11    3   12 1  
    12    5   13 1  
    13    7   14 1  
    14    7   15 1  
    15    8   16 1  
# Name:          frag3-260-4/96164 -- energy: -0.945090
# Creation time: Sat Jun  5 12:53:21 2010


@<TRIPOS>MOLECULE
frag3-260-4/96164 -- energy: -0.945090
   16    15     1     1     1
SMALL
USER_CHARGES


@<TRIPOS>ATOM
      1 C14         0.7431   -0.3298   -0.4413 C.2        1 <1>        0.000
      2 C18         1.4003    0.7788   -0.1277 C.2        1 <1>        0.000
      3 C21         0.7256    2.0236    0.2533 C.2        1 <1>        0.000
      4 N1          1.3361    3.0624    0.6843 N.2        1 <1>        0.000
      5 N2          2.6580    3.1543    0.6174 N.pl3      1 <1>        0.000
      6 C23         3.3948    3.2457   -0.5167 C.cat      1 <1>        0.000
      7 N3          2.7051    3.1675   -1.6556 N.pl3      1 <1>        0.000
      8 N4          4.6535    3.3996   -0.5297 N.pl3      1 <1>        0.000
      9 H          -0.3467   -0.3412   -0.4224 H.spc      1 <1>        0.000
     10 H           1.2928   -1.2295   -0.7179 H.spc      1 <1>        0.000
     11 H           2.4899    0.7638   -0.1544 H.spc      1 <1>        0.000
     12 H          -0.3599    2.0667    0.1642 H.spc      1 <1>        0.000
     13 H           3.1670    3.1564    1.5013 H.spc      1 <1>        0.000
     14 H           3.1898    3.2315   -2.5508 H.spc      1 <1>        0.000
     15 H           1.6929    3.0437   -1.6314 H.spc      1 <1>        0.000
     16 H           5.1501    3.4650   -1.4182 H.spc      1 <1>        0.000
@<TRIPOS>BOND
     1    6    8 ar 
     2    1    2 2  
     3    2    3 1  
     4    3    4 2  
     5    4    5 1  
     6    5    6 ar 
     7    6    7 ar 
     8    1    9 1  
     9    1   10 1  
    10    2   11 1  
    11    3   12 1  
    12    5   13 1  
    13    7   14 1  
    14    7   15 1  
    15    8   16 1  
# Name:          frag3-260-4/96164 -- energy: -1.023256
# Creation time: Sat Jun  5 12:53:21 2010


@<TRIPOS>MOLECULE
frag3-260-4/96164 -- energy: -1.023256
   16    15     1     1     1
SMALL
USER_CHARGES


@<TRIPOS>ATOM
      1 C14         0.1524   -0.4164    0.8876 C.2        1 <1>        0.000
      2 C18         0.8988    0.6516    0.6280 C.2        1 <1>        0.000
      3 C21         1.1012    1.1212   -0.7368 C.2        1 <1>        0.000
      4 N1          1.7634    2.1664   -1.0528 N.2        1 <1>        0.000
      5 N2          2.3642    2.9987   -0.1944 N.pl3      1 <1>        0.000
      6 C23         3.4483    3.7479   -0.3796 C.cat      1 <1>        0.000
      7 N3          3.5350    4.8626    0.3312 N.pl3      1 <1>        0.000
      8 N4          4.3530    3.3701   -1.1992 N.pl3      1 <1>        0.000
      9 H          -0.3232   -0.9604    0.0715 H.spc      1 <1>        0.000
     10 H           0.0156   -0.7486    1.9167 H.spc      1 <1>        0.000
     11 H           1.3693    1.1874    1.4524 H.spc      1 <1>        0.000
     12 H           0.6563    0.5396   -1.5442 H.spc      1 <1>        0.000
     13 H           1.9326    3.0683    0.7271 H.spc      1 <1>        0.000
     14 H           4.3529    5.4649    0.2376 H.spc      1 <1>        0.000
     15 H           2.7839    5.1185    0.9721 H.spc      1 <1>        0.000
     16 H           5.1912    3.9364   -1.3301 H.spc      1 <1>        0.000
@<TRIPOS>BOND
     1    6    8 ar 
     2    1    2 2  
     3    2    3 1  
     4    3    4 2  
     5    4    5 1  
     6    5    6 ar 
     7    6    7 ar 
     8    1    9 1  
     9    1   10 1  
    10    2   11 1  
    11    3   12 1  
    12    5   13 1  
    13    7   14 1  
    14    7   15 1  
    15    8   16 1  
# Name:          frag3-260-4/96164 -- energy: -1.092653
# Creation time: Sat Jun  5 12:53:21 2010


@<TRIPOS>MOLECULE
frag3-260-4/96164 -- energy: -1.092653
   16    15     1     1     1
SMALL
USER_CHARGES


@<TRIPOS>ATOM
      1 C14         0.2304   -0.5132   -0.1233 C.2        1 <1>        0.000
      2 C18         1.0906    0.4950   -0.1123 C.2        1 <1>        0.000
      3 C21         0.7297    1.8343    0.3469 C.2        1 <1>        0.000
      4 N1          1.5885    2.7576    0.5035 N.2        1 <1>        0.000
      5 N2          2.8629    2.6133    0.1851 N.pl3      1 <1>        0.000
      6 C23         3.5302    3.4807   -0.5825 C.cat      1 <1>        0.000
      7 N3          2.8069    4.1690   -1.4609 N.pl3      1 <1>        0.000
      8 N4          4.7773    3.6654   -0.4724 N.pl3      1 <1>        0.000
      9 H          -0.7929   -0.3603    0.2195 H.spc      1 <1>        0.000
     10 H           0.5463   -1.4953   -0.4752 H.spc      1 <1>        0.000
     11 H           2.1084    0.3179   -0.4599 H.spc      1 <1>        0.000
     12 H          -0.3166    2.0497    0.5635 H.spc      1 <1>        0.000
     13 H           3.3624    1.7992    0.5430 H.spc      1 <1>        0.000
     14 H           3.2562    4.8605   -2.0612 H.spc      1 <1>        0.000
     15 H           1.8028    4.0054   -1.5344 H.spc      1 <1>        0.000
     16 H           5.2453    4.3524   -1.0636 H.spc      1 <1>        0.000
@<TRIPOS>BOND
     1    6    8 ar 
     2    1    2 2  
     3    2    3 1  
     4    3    4 2  
     5    4    5 1  
     6    5    6 ar 
     7    6    7 ar 
     8    1    9 1  
     9    1   10 1  
    10    2   11 1  
    11    3   12 1  
    12    5   13 1  
    13    7   14 1  
    14    7   15 1  
    15    8   16 1  
# Name:          frag3-260-4/96164 -- energy: -1.447030
# Creation time: Sat Jun  5 12:53:21 2010


@<TRIPOS>MOLECULE
frag3-260-4/96164 -- energy: -1.447030
   16    15     1     1     1
SMALL
USER_CHARGES


@<TRIPOS>ATOM
      1 C14         0.9708   -0.5610   -0.1609 C.2        1 <1>        0.000
      2 C18         1.5429    0.6437   -0.1202 C.2        1 <1>        0.000
      3 C21         0.9954    1.7331    0.6917 C.2        1 <1>        0.000
      4 N1          1.1399    2.9753    0.4335 N.2        1 <1>        0.000
      5 N2          1.9141    3.4317   -0.5407 N.pl3      1 <1>        0.000
      6 C23         3.2597    3.4153   -0.6196 C.cat      1 <1>        0.000
      7 N3          3.8321    4.1465   -1.5854 N.pl3      1 <1>        0.000
      8 N4          3.9615    2.7174    0.1856 N.pl3      1 <1>        0.000
      9 H           0.0699   -0.7564    0.4207 H.spc      1 <1>        0.000
     10 H           1.4043   -1.3497   -0.7758 H.spc      1 <1>        0.000
     11 H           2.4434    0.8223   -0.7079 H.spc      1 <1>        0.000
     12 H           0.4237    1.4641    1.5799 H.spc      1 <1>        0.000
     13 H           1.4284    3.8499   -1.3342 H.spc      1 <1>        0.000
     14 H           4.8470    4.1521   -1.6872 H.spc      1 <1>        0.000
     15 H           3.2530    4.6976   -2.2189 H.spc      1 <1>        0.000
     16 H           4.9779    2.7093    0.1008 H.spc      1 <1>        0.000
@<TRIPOS>BOND
     1    6    8 ar 
     2    1    2 2  
     3    2    3 1  
     4    3    4 2  
     5    4    5 1  
     6    5    6 ar 
     7    6    7 ar 
     8    1    9 1  
     9    1   10 1  
    10    2   11 1  
    11    3   12 1  
    12    5   13 1  
    13    7   14 1  
    14    7   15 1  
    15    8   16 1  
# Name:          frag3-260-4/96164 -- energy: -1.092893
# Creation time: Sat Jun  5 12:53:21 2010


@<TRIPOS>MOLECULE
frag3-260-4/96164 -- energy: -1.092893
   16    15     1     1     1
SMALL
USER_CHARGES


@<TRIPOS>ATOM
      1 C14         1.4236   -0.2332    0.2156 C.2        1 <1>        0.000
      2 C18         0.7927    0.8111    0.7627 C.2        1 <1>        0.000
      3 C21         0.4106    1.9561   -0.0596 C.2        1 <1>        0.000
      4 N1          1.2187    2.6834   -0.7170 N.2        1 <1>        0.000
      5 N2          2.5154    2.4365   -0.7813 N.pl3      1 <1>        0.000
      6 C23         3.4798    3.3130   -0.4894 C.cat      1 <1>        0.000
      7 N3          3.0761    4.4212    0.1216 N.pl3      1 <1>        0.000
      8 N4          4.6994    3.1140   -0.7685 N.pl3      1 <1>        0.000
      9 H           1.6554   -0.2330   -0.8495 H.spc      1 <1>        0.000
     10 H           1.7061   -1.0847    0.8347 H.spc      1 <1>        0.000
     11 H           0.5623    0.8079    1.8281 H.spc      1 <1>        0.000
     12 H          -0.6491    2.2058   -0.1134 H.spc      1 <1>        0.000
     13 H           2.8021    1.5034   -1.0770 H.spc      1 <1>        0.000
     14 H           3.7547    5.1382    0.3782 H.spc      1 <1>        0.000
     15 H           2.0875    4.5552    0.3342 H.spc      1 <1>        0.000
     16 H           5.3995    3.8142   -0.5235 H.spc      1 <1>        0.000
@<TRIPOS>BOND
     1    6    8 ar 
     2    1    2 2  
     3    2    3 1  
     4    3    4 2  
     5    4    5 1  
     6    5    6 ar 
     7    6    7 ar 
     8    1    9 1  
     9    1   10 1  
    10    2   11 1  
    11    3   12 1  
    12    5   13 1  
    13    7   14 1  
    14    7   15 1  
    15    8   16 1  
# Name:          frag3-260-4/96164 -- energy: -1.139035
# Creation time: Sat Jun  5 12:53:21 2010


@<TRIPOS>MOLECULE
frag3-260-4/96164 -- energy: -1.139035
   16    15     1     1     1
SMALL
USER_CHARGES


@<TRIPOS>ATOM
      1 C14         0.2226    0.4079   -0.8709 C.2        1 <1>        0.000
      2 C18         0.9201    0.2498    0.2553 C.2        1 <1>        0.000
      3 C21         1.1951    1.4015    1.0983 C.2        1 <1>        0.000
      4 N1          1.9767    2.3642    0.7933 N.2        1 <1>        0.000
      5 N2          2.5674    2.5122   -0.3759 N.pl3      1 <1>        0.000
      6 C23         3.3527    3.5303   -0.7343 C.cat      1 <1>        0.000
      7 N3          3.3153    3.9223   -2.0090 N.pl3      1 <1>        0.000
      8 N4          4.0666    4.1137    0.1274 N.pl3      1 <1>        0.000
      9 H          -0.1377    1.3968   -1.1545 H.spc      1 <1>        0.000
     10 H           0.0130   -0.4518   -1.5074 H.spc      1 <1>        0.000
     11 H           1.2818   -0.7377    0.5417 H.spc      1 <1>        0.000
     12 H           0.6954    1.4470    2.0659 H.spc      1 <1>        0.000
     13 H           2.4099    1.7818   -1.0703 H.spc      1 <1>        0.000
     14 H           3.8758    4.7178   -2.3146 H.spc      1 <1>        0.000
     15 H           2.7262    3.4265   -2.6780 H.spc      1 <1>        0.000
     16 H           4.6402    4.9130   -0.1420 H.spc      1 <1>        0.000
@<TRIPOS>BOND
     1    6    8 ar 
     2    1    2 2  
     3    2    3 1  
     4    3    4 2  
     5    4    5 1  
     6    5    6 ar 
     7    6    7 ar 
     8    1    9 1  
     9    1   10 1  
    10    2   11 1  
    11    3   12 1  
    12    5   13 1  
    13    7   14 1  
    14    7   15 1  
    15    8   16 1  
# Name:          frag3-260-4/96164 -- energy: -1.498740
# Creation time: Sat Jun  5 12:53:21 2010


@<TRIPOS>MOLECULE
frag3-260-4/96164 -- energy: -1.498740
   16    15     1     1     1
SMALL
USER_CHARGES


@<TRIPOS>ATOM
      1 C14         0.7357    0.0434   -0.7705 C.2        1 <1>        0.000
      2 C18         1.5790    0.5067    0.1543 C.2        1 <1>        0.000
      3 C21         1.2037    1.6440    0.9939 C.2        1 <1>        0.000
      4 N1          1.3371    2.8854    0.6939 N.2        1 <1>        0.000
      5 N2          1.8907    3.2575   -0.4579 N.pl3      1 <1>        0.000
      6 C23         3.2126    3.3634   -0.6867 C.cat      1 <1>        0.000
      7 N3          3.6347    3.4541   -1.9322 N.pl3      1 <1>        0.000
      8 N4          4.0229    3.3476    0.2894 N.pl3      1 <1>        0.000
      9 H          -0.2390    0.5129   -0.9034 H.spc      1 <1>        0.000
     10 H           1.0216   -0.8045   -1.3929 H.spc      1 <1>        0.000
     11 H           2.5529    0.0349    0.2847 H.spc      1 <1>        0.000
     12 H           0.7693    1.4160    1.9672 H.spc      1 <1>        0.000
     13 H           1.2621    3.4804   -1.2296 H.spc      1 <1>        0.000
     14 H           4.6338    3.5136   -2.1291 H.spc      1 <1>        0.000
     15 H           2.9623    3.4648   -2.6991 H.spc      1 <1>        0.000
     16 H           5.0270    3.4058    0.1197 H.spc      1 <1>        0.000
@<TRIPOS>BOND
     1    6    8 ar 
     2    1    2 2  
     3    2    3 1  
     4    3    4 2  
     5    4    5 1  
     6    5    6 ar 
     7    6    7 ar 
     8    1    9 1  
     9    1   10 1  
    10    2   11 1  
    11    3   12 1  
    12    5   13 1  
    13    7   14 1  
    14    7   15 1  
    15    8   16 1  
# Name:          frag3-260-4/96164 -- energy: -1.530125
# Creation time: Sat Jun  5 12:53:21 2010


@<TRIPOS>MOLECULE
frag3-260-4/96164 -- energy: -1.530125
   16    15     1     1     1
SMALL
USER_CHARGES


@<TRIPOS>ATOM
      1 C14         1.6333    0.0879   -0.6672 C.2        1 <1>        0.000
      2 C18         0.6232    0.5626    0.0722 C.2        1 <1>        0.000
      3 C21         0.8470    1.6838    0.9796 C.2        1 <1>        0.000
      4 N1          1.4694    2.7574    0.7013 N.2        1 <1>        0.000
      5 N2          2.0009    3.0244   -0.4794 N.pl3      1 <1>        0.000
      6 C23         3.2884    3.3471   -0.6892 C.cat      1 <1>        0.000
      7 N3          3.5994    3.9094   -1.8436 N.pl3      1 <1>        0.000
      8 N4          4.1548    3.1295    0.2105 N.pl3      1 <1>        0.000
      9 H           2.6228    0.5387   -0.5916 H.spc      1 <1>        0.000
     10 H           1.4662   -0.7494   -1.3448 H.spc      1 <1>        0.000
     11 H          -0.3663    0.1118   -0.0034 H.spc      1 <1>        0.000
     12 H           0.4437    1.5926    1.9881 H.spc      1 <1>        0.000
     13 H           1.3871    2.9823   -1.2929 H.spc      1 <1>        0.000
     14 H           4.5632    4.1837   -2.0340 H.spc      1 <1>        0.000
     15 H           2.8757    4.0692   -2.5444 H.spc      1 <1>        0.000
     16 H           5.1284    3.3907    0.0548 H.spc      1 <1>        0.000
@<TRIPOS>BOND
     1    6    8 ar 
     2    1    2 2  
     3    2    3 1  
     4    3    4 2  
     5    4    5 1  
     6    5    6 ar 
     7    6    7 ar 
     8    1    9 1  
     9    1   10 1  
    10    2   11 1  
    11    3   12 1  
    12    5   13 1  
    13    7   14 1  
    14    7   15 1  
    15    8   16 1  
# Name:          frag3-260-4/96164 -- energy: -1.214720
# Creation time: Sat Jun  5 12:53:21 2010


@<TRIPOS>MOLECULE
frag3-260-4/96164 -- energy: -1.214720
   16    15     1     1     1
SMALL
USER_CHARGES


@<TRIPOS>ATOM
      1 C14         1.3433    0.0123   -0.6646 C.2        1 <1>        0.000
      2 C18         0.6555    0.4945    0.3775 C.2        1 <1>        0.000
      3 C21         0.4854    1.9334    0.5400 C.2        1 <1>        0.000
      4 N1          1.4061    2.7996    0.4299 N.2        1 <1>        0.000
      5 N2          2.6517    2.5188    0.0952 N.pl3      1 <1>        0.000
      6 C23         3.4700    3.3108   -0.5986 C.cat      1 <1>        0.000
      7 N3          2.8797    4.1216   -1.4688 N.pl3      1 <1>        0.000
      8 N4          4.7246    3.3110   -0.4266 N.pl3      1 <1>        0.000
      9 H           1.7777    0.6958   -1.3941 H.spc      1 <1>        0.000
     10 H           1.4690   -1.0639   -0.7837 H.spc      1 <1>        0.000
     11 H           0.2216   -0.1901    1.1063 H.spc      1 <1>        0.000
     12 H          -0.5155    2.2950    0.7756 H.spc      1 <1>        0.000
     13 H           3.0210    1.6161    0.3937 H.spc      1 <1>        0.000
     14 H           3.4395    4.7697   -2.0228 H.spc      1 <1>        0.000
     15 H           1.8665    4.0963   -1.5832 H.spc      1 <1>        0.000
     16 H           5.3131    3.9469   -0.9648 H.spc      1 <1>        0.000
@<TRIPOS>BOND
     1    6    8 ar 
     2    1    2 2  
     3    2    3 1  
     4    3    4 2  
     5    4    5 1  
     6    5    6 ar 
     7    6    7 ar 
     8    1    9 1  
     9    1   10 1  
    10    2   11 1  
    11    3   12 1  
    12    5   13 1  
    13    7   14 1  
    14    7   15 1  
    15    8   16 1  
# Name:          frag3-260-4/96164 -- energy: -1.660098
# Creation time: Sat Jun  5 12:53:22 2010


@<TRIPOS>MOLECULE
frag3-260-4/96164 -- energy: -1.660098
   16    15     1     1     1
SMALL
USER_CHARGES


@<TRIPOS>ATOM
      1 C14         1.8045    0.4982    1.1006 C.2        1 <1>        0.000
      2 C18         0.7115    0.5850    0.3324 C.2        1 <1>        0.000
      3 C21         0.7738    1.3328   -0.9338 C.2        1 <1>        0.000
      4 N1          1.2561    2.4943   -1.1653 N.2        1 <1>        0.000
      5 N2          1.9581    3.2031   -0.2862 N.pl3      1 <1>        0.000
      6 C23         3.2924    3.4068   -0.2828 C.cat      1 <1>        0.000
      7 N3          3.8146    4.0987    0.7251 N.pl3      1 <1>        0.000
      8 N4          4.0053    2.8831   -1.2059 N.pl3      1 <1>        0.000
      9 H           2.7309    0.9792    0.7867 H.spc      1 <1>        0.000
     10 H           1.7680   -0.0534    2.0400 H.spc      1 <1>        0.000
     11 H          -0.2172    0.1057    0.6422 H.spc      1 <1>        0.000
     12 H           0.3477    0.8235   -1.7982 H.spc      1 <1>        0.000
     13 H           1.4302    3.6411    0.4687 H.spc      1 <1>        0.000
     14 H           4.8244    4.2299    0.7845 H.spc      1 <1>        0.000
     15 H           3.2055    4.4984    1.4390 H.spc      1 <1>        0.000
     16 H           5.0197    2.9880   -1.1883 H.spc      1 <1>        0.000
@<TRIPOS>BOND
     1    6    8 ar 
     2    1    2 2  
     3    2    3 1  
     4    3    4 2  
     5    4    5 1  
     6    5    6 ar 
     7    6    7 ar 
     8    1    9 1  
     9    1   10 1  
    10    2   11 1  
    11    3   12 1  
    12    5   13 1  
    13    7   14 1  
    14    7   15 1  
    15    8   16 1  
# Name:          frag3-260-4/96164 -- energy: -1.586928
# Creation time: Sat Jun  5 12:53:22 2010


@<TRIPOS>MOLECULE
frag3-260-4/96164 -- energy: -1.586928
   16    15     1     1     1
SMALL
USER_CHARGES


@<TRIPOS>ATOM
      1 C14         1.8527    0.4060    0.9586 C.2        1 <1>        0.000
      2 C18         0.8534    0.5594    0.0835 C.2        1 <1>        0.000
      3 C21         0.3876    1.8950   -0.2876 C.2        1 <1>        0.000
      4 N1          1.0907    2.8088   -0.8318 N.2        1 <1>        0.000
      5 N2          2.3793    2.6555   -1.1057 N.pl3      1 <1>        0.000
      6 C23         3.3950    3.2047   -0.4259 C.cat      1 <1>        0.000
      7 N3          3.0424    4.0114    0.5698 N.pl3      1 <1>        0.000
      8 N4          4.6153    2.9613   -0.6768 N.pl3      1 <1>        0.000
      9 H           2.3278    1.2810    1.4022 H.spc      1 <1>        0.000
     10 H           2.1922   -0.5940    1.2283 H.spc      1 <1>        0.000
     11 H           0.3818   -0.3189   -0.3572 H.spc      1 <1>        0.000
     12 H          -0.6561    2.1308   -0.0800 H.spc      1 <1>        0.000
     13 H           2.6182    2.0677   -1.9043 H.spc      1 <1>        0.000
     14 H           3.7584    4.4487    1.1499 H.spc      1 <1>        0.000
     15 H           2.0558    4.1932    0.7539 H.spc      1 <1>        0.000
     16 H           5.3476    3.3880   -0.1093 H.spc      1 <1>        0.000
@<TRIPOS>BOND
     1    6    8 ar 
     2    1    2 2  
     3    2    3 1  
     4    3    4 2  
     5    4    5 1  
     6    5    6 ar 
     7    6    7 ar 
     8    1    9 1  
     9    1   10 1  
    10    2   11 1  
    11    3   12 1  
    12    5   13 1  
    13    7   14 1  
    14    7   15 1  
    15    8   16 1  
# Name:          frag3-260-4/96164 -- energy: -1.359002
# Creation time: Sat Jun  5 12:53:22 2010


@<TRIPOS>MOLECULE
frag3-260-4/96164 -- energy: -1.359002
   16    15     1     1     1
SMALL
USER_CHARGES


@<TRIPOS>ATOM
      1 C14         1.5996   -0.2569   -0.0805 C.2        1 <1>        0.000
      2 C18         0.7092    0.5574    0.4933 C.2        1 <1>        0.000
      3 C21         0.3902    1.8564   -0.0954 C.2        1 <1>        0.000
      4 N1          1.2010    2.8319   -0.1719 N.2        1 <1>        0.000
      5 N2          2.4737    2.7419    0.1797 N.pl3      1 <1>        0.000
      6 C23         3.4688    3.3627   -0.4599 C.cat      1 <1>        0.000
      7 N3          3.2437    4.6346   -0.7534 N.pl3      1 <1>        0.000
      8 N4          4.5302    2.7741   -0.8276 N.pl3      1 <1>        0.000
      9 H           2.0997    0.0443   -1.0010 H.spc      1 <1>        0.000
     10 H           1.8259   -1.2224    0.3719 H.spc      1 <1>        0.000
     11 H           0.2136    0.2484    1.4137 H.spc      1 <1>        0.000
     12 H          -0.6132    1.9984   -0.4969 H.spc      1 <1>        0.000
     13 H           2.7088    2.1643    0.9869 H.spc      1 <1>        0.000
     14 H           3.9326    5.1644   -1.2874 H.spc      1 <1>        0.000
     15 H           2.3815    5.0842   -0.4455 H.spc      1 <1>        0.000
     16 H           5.2353    3.2810   -1.3627 H.spc      1 <1>        0.000
@<TRIPOS>BOND
     1    6    8 ar 
     2    1    2 2  
     3    2    3 1  
     4    3    4 2  
     5    4    5 1  
     6    5    6 ar 
     7    6    7 ar 
     8    1    9 1  
     9    1   10 1  
    10    2   11 1  
    11    3   12 1  
    12    5   13 1  
    13    7   14 1  
    14    7   15 1  
    15    8   16 1  
