#      Rotatable Fragment
#      Build by yxyuan
#
# Name:          frag4-335-568/150395
# Creation time: Sat Jun  5 12:53:31 2010


@<TRIPOS>MOLECULE
frag4-335-568/150395
   17    18     1     1     1
SMALL
USER_CHARGES


@<TRIPOS>ATOM
      1 C1          0.0492   -0.7121   -0.0525 C.ar       1 <1>        0.000
      2 C2         -0.0284    0.7185   -0.0020 C.ar       1 <1>        0.000
      3 C3         -1.1602   -1.4318   -0.0538 C.ar       1 <1>        0.000
      4 C4          1.3640   -1.3699   -0.0698 C.ar       1 <1>        0.000
      5 C5         -1.2919    1.3280    0.0339 C.ar       1 <1>        0.000
      6 N1          1.1780    1.4483    0.0304 N.ar       1 <1>        0.000
      7 C7         -2.4052   -0.8047   -0.0075 C.ar       1 <1>        0.000
      8 C8          2.4307   -0.5470    0.0013 C.ar       1 <1>        0.000
      9 C9         -2.4717    0.5780    0.0290 C.ar       1 <1>        0.000
     10 C10         2.3024    0.8738    0.0492 C.ar       1 <1>        0.000
     11 H          -1.1225   -2.5205   -0.0925 H.spc      1 <1>        0.000
     12 H           1.4701   -2.4527   -0.1358 H.spc      1 <1>        0.000
     13 H          -1.3552    2.4157    0.0665 H.spc      1 <1>        0.000
     14 H          -3.3191   -1.3987   -0.0001 H.spc      1 <1>        0.000
     15 H           3.4290   -0.9840    0.0230 H.spc      1 <1>        0.000
     16 H          -3.4393    1.0792    0.0538 H.spc      1 <1>        0.000
     17 H           3.2047    1.4829    0.1038 H.spc      1 <1>        0.000
@<TRIPOS>BOND
     1    5    9 ar 
     2    8   10 ar 
     3    7    9 ar 
     4    6   10 ar 
     5    1    2 ar 
     6    1    4 ar 
     7    1    3 ar 
     8    2    5 ar 
     9    2    6 ar 
    10    3    7 ar 
    11    4    8 ar 
    12    3   11 1  
    13    4   12 1  
    14    5   13 1  
    15    7   14 1  
    16    8   15 1  
    17    9   16 1  
    18   10   17 1  
# Name:          frag4-335-568/150395 -- energy: -0.151610
# Creation time: Sat Jun  5 12:53:31 2010


@<TRIPOS>MOLECULE
frag4-335-568/150395 -- energy: -0.151610
   17    18     1     1     1
SMALL
USER_CHARGES


@<TRIPOS>ATOM
      1 C1          0.0492   -0.7121   -0.0525 C.ar       1 <1>        0.000
      2 C2         -0.0284    0.7185   -0.0020 C.ar       1 <1>        0.000
      3 C3         -1.1602   -1.4318   -0.0538 C.ar       1 <1>        0.000
      4 C4          1.3640   -1.3699   -0.0698 C.ar       1 <1>        0.000
      5 C5         -1.2919    1.3280    0.0339 C.ar       1 <1>        0.000
      6 N1          1.1780    1.4483    0.0304 N.ar       1 <1>        0.000
      7 C7         -2.4052   -0.8047   -0.0075 C.ar       1 <1>        0.000
      8 C8          2.4307   -0.5470    0.0013 C.ar       1 <1>        0.000
      9 C9         -2.4717    0.5780    0.0290 C.ar       1 <1>        0.000
     10 C10         2.3024    0.8738    0.0492 C.ar       1 <1>        0.000
     11 H          -1.1225   -2.5205   -0.0925 H.spc      1 <1>        0.000
     12 H           1.4701   -2.4527   -0.1358 H.spc      1 <1>        0.000
     13 H          -1.3552    2.4157    0.0665 H.spc      1 <1>        0.000
     14 H          -3.3191   -1.3987   -0.0001 H.spc      1 <1>        0.000
     15 H           3.4290   -0.9840    0.0230 H.spc      1 <1>        0.000
     16 H          -3.4393    1.0792    0.0538 H.spc      1 <1>        0.000
     17 H           3.2047    1.4829    0.1038 H.spc      1 <1>        0.000
@<TRIPOS>BOND
     1    5    9 ar 
     2    8   10 ar 
     3    7    9 ar 
     4    6   10 ar 
     5    1    2 ar 
     6    1    4 ar 
     7    1    3 ar 
     8    2    5 ar 
     9    2    6 ar 
    10    3    7 ar 
    11    4    8 ar 
    12    3   11 1  
    13    4   12 1  
    14    5   13 1  
    15    7   14 1  
    16    8   15 1  
    17    9   16 1  
    18   10   17 1  
