#      Rotatable Fragment
#      Build by yxyuan
#
# Name:          frag3-271-2/31924
# Creation time: Sat Jun  5 12:52:44 2010


@<TRIPOS>MOLECULE
frag3-271-2/31924
   10     9     1     1     1
SMALL
USER_CHARGES


@<TRIPOS>ATOM
      1 Br1         3.3694   -0.6016   -0.4245 Br         1 <1>        0.000
      2 C1          1.7587    0.3158   -0.0342 C.2        1 <1>        0.000
      3 C2          0.5424   -0.2560   -0.1869 C.2        1 <1>        0.000
      4 C3         -0.6932    0.3775    0.1423 C.2        1 <1>        0.000
      5 C4         -0.7754    1.4094    1.0124 C.2        1 <1>        0.000
      6 H           1.8141    1.3428    0.3269 H.spc      1 <1>        0.000
      7 H           0.5034   -1.2686   -0.5883 H.spc      1 <1>        0.000
      8 H          -1.6079    0.0149   -0.3267 H.spc      1 <1>        0.000
      9 H           0.1256    1.7894    1.4939 H.spc      1 <1>        0.000
     10 H          -1.7427    1.8612    1.2323 H.spc      1 <1>        0.000
@<TRIPOS>BOND
     1    1    2 1  
     2    2    3 2  
     3    3    4 1  
     4    4    5 2  
     5    2    6 1  
     6    3    7 1  
     7    4    8 1  
     8    5    9 1  
     9    5   10 1  
# Name:          frag3-271-2/31924
# Creation time: Sat Jun  5 12:52:44 2010


@<TRIPOS>MOLECULE
frag3-271-2/31924
   10     9     1     1     1
SMALL
USER_CHARGES


@<TRIPOS>ATOM
      1 Br1         3.4340   -0.4734   -0.7037 Br         1 <1>        0.000
      2 C1          1.7723   -0.4597    0.2078 C.2        1 <1>        0.000
      3 C2          0.7480    0.3409   -0.1661 C.2        1 <1>        0.000
      4 C3         -0.5360    0.3483    0.4574 C.2        1 <1>        0.000
      5 C4         -1.2164    1.4889    0.7136 C.2        1 <1>        0.000
      6 H           1.6372   -1.1206    1.0640 H.spc      1 <1>        0.000
      7 H           0.9141    1.0252   -0.9981 H.spc      1 <1>        0.000
      8 H          -0.9864   -0.6037    0.7384 H.spc      1 <1>        0.000
      9 H          -0.7863    2.4528    0.4417 H.spc      1 <1>        0.000
     10 H          -2.1948    1.4441    1.1920 H.spc      1 <1>        0.000
@<TRIPOS>BOND
     1    1    2 1  
     2    2    3 2  
     3    3    4 1  
     4    4    5 2  
     5    2    6 1  
     6    3    7 1  
     7    4    8 1  
     8    5    9 1  
     9    5   10 1  
# Name:          frag3-271-2/31924 -- energy: -0.458649
# Creation time: Sat Jun  5 12:52:44 2010


@<TRIPOS>MOLECULE
frag3-271-2/31924 -- energy: -0.458649
   10     9     1     1     1
SMALL
USER_CHARGES


@<TRIPOS>ATOM
      1 Br1         3.3694   -0.6016   -0.4245 Br         1 <1>        0.000
      2 C1          1.7587    0.3158   -0.0342 C.2        1 <1>        0.000
      3 C2          0.5424   -0.2560   -0.1869 C.2        1 <1>        0.000
      4 C3         -0.6932    0.3775    0.1423 C.2        1 <1>        0.000
      5 C4         -0.7754    1.4094    1.0124 C.2        1 <1>        0.000
      6 H           1.8141    1.3428    0.3269 H.spc      1 <1>        0.000
      7 H           0.5034   -1.2686   -0.5883 H.spc      1 <1>        0.000
      8 H          -1.6079    0.0149   -0.3267 H.spc      1 <1>        0.000
      9 H           0.1256    1.7894    1.4939 H.spc      1 <1>        0.000
     10 H          -1.7427    1.8612    1.2323 H.spc      1 <1>        0.000
@<TRIPOS>BOND
     1    1    2 1  
     2    2    3 2  
     3    3    4 1  
     4    4    5 2  
     5    2    6 1  
     6    3    7 1  
     7    4    8 1  
     8    5    9 1  
     9    5   10 1  
# Name:          frag3-271-2/31924 -- energy: -0.549091
# Creation time: Sat Jun  5 12:52:44 2010


@<TRIPOS>MOLECULE
frag3-271-2/31924 -- energy: -0.549091
   10     9     1     1     1
SMALL
USER_CHARGES


@<TRIPOS>ATOM
      1 Br1         3.4340   -0.4734   -0.7037 Br         1 <1>        0.000
      2 C1          1.7723   -0.4597    0.2078 C.2        1 <1>        0.000
      3 C2          0.7480    0.3409   -0.1661 C.2        1 <1>        0.000
      4 C3         -0.5360    0.3483    0.4574 C.2        1 <1>        0.000
      5 C4         -1.2164    1.4889    0.7136 C.2        1 <1>        0.000
      6 H           1.6372   -1.1206    1.0640 H.spc      1 <1>        0.000
      7 H           0.9141    1.0252   -0.9981 H.spc      1 <1>        0.000
      8 H          -0.9864   -0.6037    0.7384 H.spc      1 <1>        0.000
      9 H          -0.7863    2.4528    0.4417 H.spc      1 <1>        0.000
     10 H          -2.1948    1.4441    1.1920 H.spc      1 <1>        0.000
@<TRIPOS>BOND
     1    1    2 1  
     2    2    3 2  
     3    3    4 1  
     4    4    5 2  
     5    2    6 1  
     6    3    7 1  
     7    4    8 1  
     8    5    9 1  
     9    5   10 1  
