#      Rotatable Fragment
#      Build by yxyuan
#
# Name:          frag4-301-2097/150395
# Creation time: Sat Jun  5 12:53:30 2010


@<TRIPOS>MOLECULE
frag4-301-2097/150395
   13    13     1     1     1
SMALL
USER_CHARGES


@<TRIPOS>ATOM
      1 C1         -0.4370   -0.9988    0.5291 C.3        1 <1>        0.000
      2 C2         -0.9922   -1.7242   -0.6743 C.3        1 <1>        0.000
      3 O1         -1.3290    0.0539    0.7258 O.3        1 <1>        0.000
      4 C4         -2.4765   -1.5592   -0.4533 C.3        1 <1>        0.000
      5 C6         -2.5895   -0.1870    0.1817 C.3        1 <1>        0.000
      6 H           0.5840   -0.6523    0.3693 H.spc      1 <1>        0.000
      7 H          -0.3599   -1.6453    1.4033 H.spc      1 <1>        0.000
      8 H          -0.6710   -2.7631   -0.7489 H.spc      1 <1>        0.000
      9 H          -0.6423   -1.3277   -1.6274 H.spc      1 <1>        0.000
     10 H          -2.8954   -2.3458    0.1744 H.spc      1 <1>        0.000
     11 H          -3.0480   -1.6400   -1.3779 H.spc      1 <1>        0.000
     12 H          -2.8726    0.5756   -0.5439 H.spc      1 <1>        0.000
     13 H          -3.3734   -0.1515    0.9383 H.spc      1 <1>        0.000
@<TRIPOS>BOND
     1    1    2 1  
     2    1    3 1  
     3    2    4 1  
     4    3    5 1  
     5    4    5 1  
     6    1    6 1  
     7    1    7 1  
     8    2    8 1  
     9    2    9 1  
    10    4   10 1  
    11    4   11 1  
    12    5   12 1  
    13    5   13 1  
# Name:          frag4-301-2097/150395 -- energy: -0.733737
# Creation time: Sat Jun  5 12:53:30 2010


@<TRIPOS>MOLECULE
frag4-301-2097/150395 -- energy: -0.733737
   13    13     1     1     1
SMALL
USER_CHARGES


@<TRIPOS>ATOM
      1 C1         -0.4370   -0.9988    0.5291 C.3        1 <1>        0.000
      2 C2         -0.9922   -1.7242   -0.6743 C.3        1 <1>        0.000
      3 O1         -1.3290    0.0539    0.7258 O.3        1 <1>        0.000
      4 C4         -2.4765   -1.5592   -0.4533 C.3        1 <1>        0.000
      5 C6         -2.5895   -0.1870    0.1817 C.3        1 <1>        0.000
      6 H           0.5840   -0.6523    0.3693 H.spc      1 <1>        0.000
      7 H          -0.3599   -1.6453    1.4033 H.spc      1 <1>        0.000
      8 H          -0.6710   -2.7631   -0.7489 H.spc      1 <1>        0.000
      9 H          -0.6423   -1.3277   -1.6274 H.spc      1 <1>        0.000
     10 H          -2.8954   -2.3458    0.1744 H.spc      1 <1>        0.000
     11 H          -3.0480   -1.6400   -1.3779 H.spc      1 <1>        0.000
     12 H          -2.8726    0.5756   -0.5439 H.spc      1 <1>        0.000
     13 H          -3.3734   -0.1515    0.9383 H.spc      1 <1>        0.000
@<TRIPOS>BOND
     1    1    2 1  
     2    1    3 1  
     3    2    4 1  
     4    3    5 1  
     5    4    5 1  
     6    1    6 1  
     7    1    7 1  
     8    2    8 1  
     9    2    9 1  
    10    4   10 1  
    11    4   11 1  
    12    5   12 1  
    13    5   13 1  
