#      Rotatable Fragment
#      Build by yxyuan
#
# Name:          frag5-612-95/138278
# Creation time: Sat Jun  5 12:53:47 2010


@<TRIPOS>MOLECULE
frag5-612-95/138278
   29    30     1     1     1
SMALL
USER_CHARGES


@<TRIPOS>ATOM
      1 C13        -1.3112   -0.6072    0.0267 C.3        1 <1>        0.000
      2 C14        -1.1106    0.8825   -0.0200 C.3        1 <1>        0.000
      3 C15        -0.2845   -1.3475    0.8267 C.3        1 <1>        0.000
      4 C16         0.2777    1.3191    0.3908 C.3        1 <1>        0.000
      5 C17         1.0859   -0.9545    0.3487 C.3        1 <1>        0.000
      6 N3          1.3617    0.4238    0.0499 N.am       1 <1>        0.000
      7 C18         2.4273    0.9287   -0.6763 C.2        1 <1>        0.000
      8 C19         3.6317    0.0875   -1.0375 C.ar       1 <1>        0.000
      9 O1          2.5180    2.0805   -1.0672 O.2        1 <1>        0.000
     10 C20         4.5065   -0.3027   -0.0070 C.ar       1 <1>        0.000
     11 C21         4.0875   -0.2037   -2.3496 C.ar       1 <1>        0.000
     12 C22         5.7108   -0.9785   -0.2500 C.ar       1 <1>        0.000
     13 C23         5.2170   -1.0189   -2.5843 C.ar       1 <1>        0.000
     14 C24         5.9641   -1.4989   -1.5134 C.ar       1 <1>        0.000
     15 H          -2.2754   -0.7844    0.5033 H.spc      1 <1>        0.000
     16 H          -1.2398   -0.9709   -0.9984 H.spc      1 <1>        0.000
     17 H          -1.8149    1.3294    0.6816 H.spc      1 <1>        0.000
     18 H          -1.2616    1.2006   -1.0516 H.spc      1 <1>        0.000
     19 H          -0.4240   -2.4211    0.6999 H.spc      1 <1>        0.000
     20 H          -0.3911   -1.0977    1.8823 H.spc      1 <1>        0.000
     21 H           0.4732    2.2482   -0.1445 H.spc      1 <1>        0.000
     22 H           0.2661    1.3792    1.4791 H.spc      1 <1>        0.000
     23 H           1.2071   -1.4737   -0.6020 H.spc      1 <1>        0.000
     24 H           1.7489   -1.1959    1.1795 H.spc      1 <1>        0.000
     25 H           4.2368   -0.0700    1.0232 H.spc      1 <1>        0.000
     26 H           3.5503    0.2139   -3.2011 H.spc      1 <1>        0.000
     27 H           6.4443   -1.0950    0.5478 H.spc      1 <1>        0.000
     28 H           5.5034   -1.2720   -3.6051 H.spc      1 <1>        0.000
     29 H           6.7276   -2.2626   -1.6613 H.spc      1 <1>        0.000
@<TRIPOS>BOND
     1   13   14 ar 
     2    1    3 1  
     3   12   14 ar 
     4   11   13 ar 
     5    1    2 1  
     6    7    8 1  
     7    3    5 1  
     8    4    6 1  
     9    5    6 1  
    10    8   10 ar 
    11    6    7 am 
    12    7    9 2  
    13   10   12 ar 
    14    8   11 ar 
    15    2    4 1  
    16    1   15 1  
    17    1   16 1  
    18    2   17 1  
    19    2   18 1  
    20    3   19 1  
    21    3   20 1  
    22    4   21 1  
    23    4   22 1  
    24    5   23 1  
    25    5   24 1  
    26   10   25 1  
    27   11   26 1  
    28   12   27 1  
    29   13   28 1  
    30   14   29 1  
# Name:          frag5-612-95/138278
# Creation time: Sat Jun  5 12:53:47 2010


@<TRIPOS>MOLECULE
frag5-612-95/138278
   29    30     1     1     1
SMALL
USER_CHARGES


@<TRIPOS>ATOM
      1 C13        -1.1927   -0.2929    0.9724 C.3        1 <1>        0.000
      2 C14        -0.1855   -1.3590    0.6180 C.3        1 <1>        0.000
      3 C15        -1.3114    0.8003   -0.0466 C.3        1 <1>        0.000
      4 C16         0.7855   -0.9731   -0.4699 C.3        1 <1>        0.000
      5 C17         0.0635    1.3272   -0.3349 C.3        1 <1>        0.000
      6 N3          1.1808    0.3962   -0.5209 N.am       1 <1>        0.000
      7 C18         2.4748    0.8433   -0.4540 C.2        1 <1>        0.000
      8 C19         3.6792    0.0364   -0.9184 C.ar       1 <1>        0.000
      9 O1          2.8015    1.9295    0.0103 O.2        1 <1>        0.000
     10 C20         4.8180    0.0441   -0.0889 C.ar       1 <1>        0.000
     11 C21         3.8551   -0.6092   -2.1666 C.ar       1 <1>        0.000
     12 C22         6.0267   -0.5704   -0.4481 C.ar       1 <1>        0.000
     13 C23         5.0250   -1.3466   -2.4687 C.ar       1 <1>        0.000
     14 C24         6.0615   -1.4156   -1.5461 C.ar       1 <1>        0.000
     15 H          -2.1662   -0.7785    1.0391 H.spc      1 <1>        0.000
     16 H          -0.8605    0.1681    1.9026 H.spc      1 <1>        0.000
     17 H          -0.7482   -2.2172    0.2508 H.spc      1 <1>        0.000
     18 H           0.4032   -1.5498    1.5153 H.spc      1 <1>        0.000
     19 H          -1.9457    1.6002    0.3354 H.spc      1 <1>        0.000
     20 H          -1.7622    0.4125   -0.9601 H.spc      1 <1>        0.000
     21 H           1.6953   -1.5408   -0.2749 H.spc      1 <1>        0.000
     22 H           0.2752   -1.1731   -1.4121 H.spc      1 <1>        0.000
     23 H           0.3291    1.8975    0.5552 H.spc      1 <1>        0.000
     24 H          -0.0339    1.8318   -1.2962 H.spc      1 <1>        0.000
     25 H           4.7571    0.5500    0.8747 H.spc      1 <1>        0.000
     26 H           3.0671   -0.5362   -2.9161 H.spc      1 <1>        0.000
     27 H           6.9310   -0.3848    0.1314 H.spc      1 <1>        0.000
     28 H           5.1128   -1.8607   -3.4258 H.spc      1 <1>        0.000
     29 H           6.8834   -2.1184   -1.6826 H.spc      1 <1>        0.000
@<TRIPOS>BOND
     1   13   14 ar 
     2    1    3 1  
     3   12   14 ar 
     4   11   13 ar 
     5    1    2 1  
     6    7    8 1  
     7    3    5 1  
     8    4    6 1  
     9    5    6 1  
    10    8   10 ar 
    11    6    7 am 
    12    7    9 2  
    13   10   12 ar 
    14    8   11 ar 
    15    2    4 1  
    16    1   15 1  
    17    1   16 1  
    18    2   17 1  
    19    2   18 1  
    20    3   19 1  
    21    3   20 1  
    22    4   21 1  
    23    4   22 1  
    24    5   23 1  
    25    5   24 1  
    26   10   25 1  
    27   11   26 1  
    28   12   27 1  
    29   13   28 1  
    30   14   29 1  
# Name:          frag5-612-95/138278
# Creation time: Sat Jun  5 12:53:47 2010


@<TRIPOS>MOLECULE
frag5-612-95/138278
   29    30     1     1     1
SMALL
USER_CHARGES


@<TRIPOS>ATOM
      1 C13        -1.5045   -0.4656    0.4804 C.3        1 <1>        0.000
      2 C14        -0.7327   -1.1593   -0.6225 C.3        1 <1>        0.000
      3 C15        -0.5497    0.3329    1.3334 C.3        1 <1>        0.000
      4 C16         0.7392   -0.7973   -0.7906 C.3        1 <1>        0.000
      5 C17         0.3057    1.2758    0.5202 C.3        1 <1>        0.000
      6 N3          1.2093    0.4965   -0.3510 N.am       1 <1>        0.000
      7 C18         2.4565    0.9377   -0.6624 C.2        1 <1>        0.000
      8 C19         3.6730    0.0659   -0.9728 C.ar       1 <1>        0.000
      9 O1          2.6993    2.1376   -0.7050 O.2        1 <1>        0.000
     10 C20         4.9126    0.5265   -0.4800 C.ar       1 <1>        0.000
     11 C21         3.7376   -1.1215   -1.7323 C.ar       1 <1>        0.000
     12 C22         6.1162   -0.1499   -0.7084 C.ar       1 <1>        0.000
     13 C23         4.9222   -1.8600   -1.8787 C.ar       1 <1>        0.000
     14 C24         6.0972   -1.4092   -1.2929 C.ar       1 <1>        0.000
     15 H          -2.2463    0.2017    0.0417 H.spc      1 <1>        0.000
     16 H          -2.0079   -1.2104    1.0968 H.spc      1 <1>        0.000
     17 H          -1.2160   -0.8578   -1.5518 H.spc      1 <1>        0.000
     18 H          -0.7459   -2.2188   -0.3669 H.spc      1 <1>        0.000
     19 H           0.1129   -0.3679    1.8413 H.spc      1 <1>        0.000
     20 H          -1.1398    0.9301    2.0285 H.spc      1 <1>        0.000
     21 H           1.2729   -1.5125   -0.1647 H.spc      1 <1>        0.000
     22 H           0.9029   -0.7993   -1.8682 H.spc      1 <1>        0.000
     23 H           0.8970    1.8990    1.1911 H.spc      1 <1>        0.000
     24 H          -0.3350    1.9079   -0.0947 H.spc      1 <1>        0.000
     25 H           4.9334    1.4474    0.1028 H.spc      1 <1>        0.000
     26 H           2.8329   -1.4790   -2.2242 H.spc      1 <1>        0.000
     27 H           7.0642    0.3097   -0.4288 H.spc      1 <1>        0.000
     28 H           4.9195   -2.7870   -2.4521 H.spc      1 <1>        0.000
     29 H           6.9905   -2.0338   -1.2918 H.spc      1 <1>        0.000
@<TRIPOS>BOND
     1   13   14 ar 
     2    1    3 1  
     3   12   14 ar 
     4   11   13 ar 
     5    1    2 1  
     6    7    8 1  
     7    3    5 1  
     8    4    6 1  
     9    5    6 1  
    10    8   10 ar 
    11    6    7 am 
    12    7    9 2  
    13   10   12 ar 
    14    8   11 ar 
    15    2    4 1  
    16    1   15 1  
    17    1   16 1  
    18    2   17 1  
    19    2   18 1  
    20    3   19 1  
    21    3   20 1  
    22    4   21 1  
    23    4   22 1  
    24    5   23 1  
    25    5   24 1  
    26   10   25 1  
    27   11   26 1  
    28   12   27 1  
    29   13   28 1  
    30   14   29 1  
# Name:          frag5-612-95/138278
# Creation time: Sat Jun  5 12:53:47 2010


@<TRIPOS>MOLECULE
frag5-612-95/138278
   29    30     1     1     1
SMALL
USER_CHARGES


@<TRIPOS>ATOM
      1 C13        -0.3604   -0.5296    1.4378 C.3        1 <1>        0.000
      2 C14         0.3157   -1.4713    0.4693 C.3        1 <1>        0.000
      3 C15        -0.9617    0.6864    0.7823 C.3        1 <1>        0.000
      4 C16         0.7051   -0.8335   -0.8314 C.3        1 <1>        0.000
      5 C17        -0.0714    1.3188   -0.2665 C.3        1 <1>        0.000
      6 N3          1.0683    0.5399   -0.7502 N.am       1 <1>        0.000
      7 C18         2.3343    1.0551   -0.9411 C.2        1 <1>        0.000
      8 C19         3.5397    0.1308   -1.0946 C.ar       1 <1>        0.000
      9 O1          2.6718    2.2291   -0.9364 O.2        1 <1>        0.000
     10 C20         4.0716   -0.4934    0.0518 C.ar       1 <1>        0.000
     11 C21         4.3126   -0.0210   -2.2688 C.ar       1 <1>        0.000
     12 C22         5.2607   -1.2484    0.0209 C.ar       1 <1>        0.000
     13 C23         5.4037   -0.9231   -2.3336 C.ar       1 <1>        0.000
     14 C24         5.7920   -1.6300   -1.2019 C.ar       1 <1>        0.000
     15 H          -1.1734   -1.0792    1.9122 H.spc      1 <1>        0.000
     16 H           0.3998   -0.1803    2.1365 H.spc      1 <1>        0.000
     17 H          -0.3957   -2.2646    0.2400 H.spc      1 <1>        0.000
     18 H           1.2320   -1.8209    0.9449 H.spc      1 <1>        0.000
     19 H          -1.1230    1.4300    1.5628 H.spc      1 <1>        0.000
     20 H          -1.8763    0.3673    0.2826 H.spc      1 <1>        0.000
     21 H           1.5844   -1.3683   -1.1904 H.spc      1 <1>        0.000
     22 H          -0.1695   -0.8873   -1.4797 H.spc      1 <1>        0.000
     23 H           0.3585    2.2004    0.2089 H.spc      1 <1>        0.000
     24 H          -0.7097    1.4729   -1.1365 H.spc      1 <1>        0.000
     25 H           3.5425   -0.3879    0.9989 H.spc      1 <1>        0.000
     26 H           4.0624    0.5721   -3.1484 H.spc      1 <1>        0.000
     27 H           5.7582   -1.5298    0.9490 H.spc      1 <1>        0.000
     28 H           5.9392   -1.0627   -3.2727 H.spc      1 <1>        0.000
     29 H           6.4941   -2.4607   -1.2733 H.spc      1 <1>        0.000
@<TRIPOS>BOND
     1   13   14 ar 
     2    1    3 1  
     3   12   14 ar 
     4   11   13 ar 
     5    1    2 1  
     6    7    8 1  
     7    3    5 1  
     8    4    6 1  
     9    5    6 1  
    10    8   10 ar 
    11    6    7 am 
    12    7    9 2  
    13   10   12 ar 
    14    8   11 ar 
    15    2    4 1  
    16    1   15 1  
    17    1   16 1  
    18    2   17 1  
    19    2   18 1  
    20    3   19 1  
    21    3   20 1  
    22    4   21 1  
    23    4   22 1  
    24    5   23 1  
    25    5   24 1  
    26   10   25 1  
    27   11   26 1  
    28   12   27 1  
    29   13   28 1  
    30   14   29 1  
# Name:          frag5-612-95/138278
# Creation time: Sat Jun  5 12:53:47 2010


@<TRIPOS>MOLECULE
frag5-612-95/138278
   29    30     1     1     1
SMALL
USER_CHARGES


@<TRIPOS>ATOM
      1 C13        -1.3927   -0.6846    0.0127 C.3        1 <1>        0.000
      2 C14        -0.1479   -1.3272   -0.5118 C.3        1 <1>        0.000
      3 C15        -1.2411    0.7984    0.2591 C.3        1 <1>        0.000
      4 C16         1.0344   -0.8856    0.2793 C.3        1 <1>        0.000
      5 C17         0.1774    1.3432    0.3946 C.3        1 <1>        0.000
      6 N3          1.3309    0.4975    0.0845 N.am       1 <1>        0.000
      7 C18         2.5386    0.9939   -0.3615 C.2        1 <1>        0.000
      8 C19         3.6572    0.0762   -0.8429 C.ar       1 <1>        0.000
      9 O1          2.8677    2.1709   -0.4307 O.2        1 <1>        0.000
     10 C20         4.9745    0.4747   -0.5520 C.ar       1 <1>        0.000
     11 C21         3.5558   -1.0747   -1.6650 C.ar       1 <1>        0.000
     12 C22         6.0987   -0.2104   -1.0264 C.ar       1 <1>        0.000
     13 C23         4.6839   -1.8721   -1.9711 C.ar       1 <1>        0.000
     14 C24         5.9446   -1.4900   -1.5313 C.ar       1 <1>        0.000
     15 H          -2.1726   -0.8160   -0.7374 H.spc      1 <1>        0.000
     16 H          -1.6292   -1.1548    0.9672 H.spc      1 <1>        0.000
     17 H          -0.0085   -1.0359   -1.5529 H.spc      1 <1>        0.000
     18 H          -0.2454   -2.4099   -0.4318 H.spc      1 <1>        0.000
     19 H          -1.7235    0.9892    1.2177 H.spc      1 <1>        0.000
     20 H          -1.6629    1.2881   -0.6186 H.spc      1 <1>        0.000
     21 H           0.8109   -1.0381    1.3352 H.spc      1 <1>        0.000
     22 H           1.8968   -1.4658   -0.0490 H.spc      1 <1>        0.000
     23 H           0.2813    1.5594    1.4579 H.spc      1 <1>        0.000
     24 H           0.2279    2.1461   -0.3409 H.spc      1 <1>        0.000
     25 H           5.1263    1.3564    0.0706 H.spc      1 <1>        0.000
     26 H           2.5834   -1.3524   -2.0718 H.spc      1 <1>        0.000
     27 H           7.0828    0.2574   -0.9987 H.spc      1 <1>        0.000
     28 H           4.5634   -2.7864   -2.5522 H.spc      1 <1>        0.000
     29 H           6.7885   -2.1780   -1.5822 H.spc      1 <1>        0.000
@<TRIPOS>BOND
     1   13   14 ar 
     2    1    3 1  
     3   12   14 ar 
     4   11   13 ar 
     5    1    2 1  
     6    7    8 1  
     7    3    5 1  
     8    4    6 1  
     9    5    6 1  
    10    8   10 ar 
    11    6    7 am 
    12    7    9 2  
    13   10   12 ar 
    14    8   11 ar 
    15    2    4 1  
    16    1   15 1  
    17    1   16 1  
    18    2   17 1  
    19    2   18 1  
    20    3   19 1  
    21    3   20 1  
    22    4   21 1  
    23    4   22 1  
    24    5   23 1  
    25    5   24 1  
    26   10   25 1  
    27   11   26 1  
    28   12   27 1  
    29   13   28 1  
    30   14   29 1  
# Name:          frag5-612-95/138278
# Creation time: Sat Jun  5 12:53:47 2010


@<TRIPOS>MOLECULE
frag5-612-95/138278
   29    30     1     1     1
SMALL
USER_CHARGES


@<TRIPOS>ATOM
      1 C13        -1.0424   -0.9319   -0.3164 C.3        1 <1>        0.000
      2 C14        -0.9432    0.4574   -0.8724 C.3        1 <1>        0.000
      3 C15        -0.3568   -1.1294    0.9939 C.3        1 <1>        0.000
      4 C16         0.1525    1.2914   -0.2325 C.3        1 <1>        0.000
      5 C17         1.0665   -0.6523    0.8668 C.3        1 <1>        0.000
      6 N3          1.3332    0.5540    0.1394 N.am       1 <1>        0.000
      7 C18         2.5839    1.0387   -0.2177 C.2        1 <1>        0.000
      8 C19         3.6832    0.1320   -0.7208 C.ar       1 <1>        0.000
      9 O1          2.8828    2.2248   -0.2789 O.2        1 <1>        0.000
     10 C20         3.5650   -0.4405   -2.0079 C.ar       1 <1>        0.000
     11 C21         4.8874   -0.1787   -0.0442 C.ar       1 <1>        0.000
     12 C22         4.5410   -1.2855   -2.5573 C.ar       1 <1>        0.000
     13 C23         5.9289   -0.9082   -0.6523 C.ar       1 <1>        0.000
     14 C24         5.7998   -1.3618   -1.9621 C.ar       1 <1>        0.000
     15 H          -2.1012   -1.1339   -0.1541 H.spc      1 <1>        0.000
     16 H          -0.5566   -1.5954   -1.0319 H.spc      1 <1>        0.000
     17 H          -1.8917    0.9569   -0.6750 H.spc      1 <1>        0.000
     18 H          -0.7092    0.3689   -1.9333 H.spc      1 <1>        0.000
     19 H          -0.3721   -2.1848    1.2660 H.spc      1 <1>        0.000
     20 H          -0.8704   -0.5635    1.7711 H.spc      1 <1>        0.000
     21 H           0.4606    2.0305   -0.9720 H.spc      1 <1>        0.000
     22 H          -0.2622    1.7088    0.6850 H.spc      1 <1>        0.000
     23 H           1.5763   -1.4363    0.3068 H.spc      1 <1>        0.000
     24 H           1.3837   -0.4403    1.8879 H.spc      1 <1>        0.000
     25 H           2.6772   -0.2157   -2.5991 H.spc      1 <1>        0.000
     26 H           5.0137    0.1586    0.9846 H.spc      1 <1>        0.000
     27 H           4.3167   -1.8787   -3.4438 H.spc      1 <1>        0.000
     28 H           6.8409   -1.1185   -0.0936 H.spc      1 <1>        0.000
     29 H           6.6552   -1.7637   -2.5050 H.spc      1 <1>        0.000
@<TRIPOS>BOND
     1   13   14 ar 
     2    1    3 1  
     3   12   14 ar 
     4   11   13 ar 
     5    1    2 1  
     6    7    8 1  
     7    3    5 1  
     8    4    6 1  
     9    5    6 1  
    10    8   10 ar 
    11    6    7 am 
    12    7    9 2  
    13   10   12 ar 
    14    8   11 ar 
    15    2    4 1  
    16    1   15 1  
    17    1   16 1  
    18    2   17 1  
    19    2   18 1  
    20    3   19 1  
    21    3   20 1  
    22    4   21 1  
    23    4   22 1  
    24    5   23 1  
    25    5   24 1  
    26   10   25 1  
    27   11   26 1  
    28   12   27 1  
    29   13   28 1  
    30   14   29 1  
# Name:          frag5-612-95/138278
# Creation time: Sat Jun  5 12:53:47 2010


@<TRIPOS>MOLECULE
frag5-612-95/138278
   29    30     1     1     1
SMALL
USER_CHARGES


@<TRIPOS>ATOM
      1 C13        -1.3864   -0.4212    0.7812 C.3        1 <1>        0.000
      2 C14        -0.5370    0.7173    1.2450 C.3        1 <1>        0.000
      3 C15        -0.4739   -1.4558    0.1994 C.3        1 <1>        0.000
      4 C16         0.2377    1.3014    0.1012 C.3        1 <1>        0.000
      5 C17         0.7299   -0.9716   -0.5873 C.3        1 <1>        0.000
      6 N3          1.1931    0.3855   -0.4831 N.am       1 <1>        0.000
      7 C18         2.3946    0.9148   -0.9259 C.2        1 <1>        0.000
      8 C19         3.6237    0.0711   -1.0945 C.ar       1 <1>        0.000
      9 O1          2.6100    2.1022   -1.1328 O.2        1 <1>        0.000
     10 C20         4.4675   -0.1008    0.0240 C.ar       1 <1>        0.000
     11 C21         4.1477   -0.3858   -2.3223 C.ar       1 <1>        0.000
     12 C22         5.7171   -0.7359   -0.0676 C.ar       1 <1>        0.000
     13 C23         5.3203   -1.1680   -2.3800 C.ar       1 <1>        0.000
     14 C24         6.0375   -1.4433   -1.2198 C.ar       1 <1>        0.000
     15 H          -1.9532   -0.8378    1.6139 H.spc      1 <1>        0.000
     16 H          -2.1036   -0.0819    0.0338 H.spc      1 <1>        0.000
     17 H           0.1642    0.3510    1.9948 H.spc      1 <1>        0.000
     18 H          -1.1816    1.4896    1.6647 H.spc      1 <1>        0.000
     19 H          -1.0820   -2.0144   -0.5121 H.spc      1 <1>        0.000
     20 H          -0.0662   -1.9982    1.0524 H.spc      1 <1>        0.000
     21 H          -0.4789    1.5645   -0.6768 H.spc      1 <1>        0.000
     22 H           0.7975    2.1528    0.4882 H.spc      1 <1>        0.000
     23 H           0.4170   -1.0625   -1.6275 H.spc      1 <1>        0.000
     24 H           1.5564   -1.5617   -0.1913 H.spc      1 <1>        0.000
     25 H           4.1376    0.2726    0.9934 H.spc      1 <1>        0.000
     26 H           3.6341   -0.1282   -3.2486 H.spc      1 <1>        0.000
     27 H           6.4279   -0.6744    0.7565 H.spc      1 <1>        0.000
     28 H           5.6659   -1.5583   -3.3373 H.spc      1 <1>        0.000
     29 H           6.8287   -2.1931   -1.2150 H.spc      1 <1>        0.000
@<TRIPOS>BOND
     1   13   14 ar 
     2    1    3 1  
     3   12   14 ar 
     4   11   13 ar 
     5    1    2 1  
     6    7    8 1  
     7    3    5 1  
     8    4    6 1  
     9    5    6 1  
    10    8   10 ar 
    11    6    7 am 
    12    7    9 2  
    13   10   12 ar 
    14    8   11 ar 
    15    2    4 1  
    16    1   15 1  
    17    1   16 1  
    18    2   17 1  
    19    2   18 1  
    20    3   19 1  
    21    3   20 1  
    22    4   21 1  
    23    4   22 1  
    24    5   23 1  
    25    5   24 1  
    26   10   25 1  
    27   11   26 1  
    28   12   27 1  
    29   13   28 1  
    30   14   29 1  
# Name:          frag5-612-95/138278
# Creation time: Sat Jun  5 12:53:47 2010


@<TRIPOS>MOLECULE
frag5-612-95/138278
   29    30     1     1     1
SMALL
USER_CHARGES


@<TRIPOS>ATOM
      1 C13        -1.3215   -0.1602    1.0217 C.3        1 <1>        0.000
      2 C14        -0.0921   -0.9761    1.3003 C.3        1 <1>        0.000
      3 C15        -1.1394    1.0444    0.1501 C.3        1 <1>        0.000
      4 C16         0.9115   -1.0518    0.1895 C.3        1 <1>        0.000
      5 C17        -0.0677    0.8618   -0.8876 C.3        1 <1>        0.000
      6 N3          1.1613    0.1453   -0.5491 N.am       1 <1>        0.000
      7 C18         2.3827    0.7438   -0.7259 C.2        1 <1>        0.000
      8 C19         3.6732   -0.0147   -0.9348 C.ar       1 <1>        0.000
      9 O1          2.5765    1.9569   -0.8085 O.2        1 <1>        0.000
     10 C20         4.3196    0.1837   -2.1735 C.ar       1 <1>        0.000
     11 C21         4.3173   -0.9139   -0.0609 C.ar       1 <1>        0.000
     12 C22         5.5143   -0.4683   -2.5162 C.ar       1 <1>        0.000
     13 C23         5.6002   -1.4374   -0.3418 C.ar       1 <1>        0.000
     14 C24         6.2460   -1.1036   -1.5256 C.ar       1 <1>        0.000
     15 H          -2.0068   -0.8187    0.4879 H.spc      1 <1>        0.000
     16 H          -1.6612    0.2140    1.9874 H.spc      1 <1>        0.000
     17 H          -0.4345   -1.9963    1.4737 H.spc      1 <1>        0.000
     18 H           0.4129   -0.4931    2.1369 H.spc      1 <1>        0.000
     19 H          -0.8437    1.8757    0.7901 H.spc      1 <1>        0.000
     20 H          -2.0799    1.2221   -0.3715 H.spc      1 <1>        0.000
     21 H           1.8585   -1.3093    0.6639 H.spc      1 <1>        0.000
     22 H           0.5038   -1.7627   -0.5291 H.spc      1 <1>        0.000
     23 H           0.2619    1.8743   -1.1208 H.spc      1 <1>        0.000
     24 H          -0.5361    0.2510   -1.6593 H.spc      1 <1>        0.000
     25 H           3.8733    0.8706   -2.8926 H.spc      1 <1>        0.000
     26 H           3.8121   -1.2140    0.8571 H.spc      1 <1>        0.000
     27 H           5.8624   -0.4749   -3.5491 H.spc      1 <1>        0.000
     28 H           6.0836   -2.1044    0.3720 H.spc      1 <1>        0.000
     29 H           7.3010   -1.3354   -1.6715 H.spc      1 <1>        0.000
@<TRIPOS>BOND
     1   13   14 ar 
     2    1    3 1  
     3   12   14 ar 
     4   11   13 ar 
     5    1    2 1  
     6    7    8 1  
     7    3    5 1  
     8    4    6 1  
     9    5    6 1  
    10    8   10 ar 
    11    6    7 am 
    12    7    9 2  
    13   10   12 ar 
    14    8   11 ar 
    15    2    4 1  
    16    1   15 1  
    17    1   16 1  
    18    2   17 1  
    19    2   18 1  
    20    3   19 1  
    21    3   20 1  
    22    4   21 1  
    23    4   22 1  
    24    5   23 1  
    25    5   24 1  
    26   10   25 1  
    27   11   26 1  
    28   12   27 1  
    29   13   28 1  
    30   14   29 1  
# Name:          frag5-612-95/138278
# Creation time: Sat Jun  5 12:53:47 2010


@<TRIPOS>MOLECULE
frag5-612-95/138278
   29    30     1     1     1
SMALL
USER_CHARGES


@<TRIPOS>ATOM
      1 C13        -0.8464   -0.4398    1.4081 C.3        1 <1>        0.000
      2 C14         0.0300    0.7790    1.4579 C.3        1 <1>        0.000
      3 C15        -0.3335   -1.4587    0.4266 C.3        1 <1>        0.000
      4 C16         0.2944    1.2866    0.0740 C.3        1 <1>        0.000
      5 C17         0.4490   -0.9409   -0.7684 C.3        1 <1>        0.000
      6 N3          1.0825    0.3654   -0.7064 N.am       1 <1>        0.000
      7 C18         2.2206    0.8293   -1.3234 C.2        1 <1>        0.000
      8 C19         3.5251    0.0636   -1.2551 C.ar       1 <1>        0.000
      9 O1          2.3632    1.9248   -1.8659 O.2        1 <1>        0.000
     10 C20         3.8378   -0.7118   -0.1225 C.ar       1 <1>        0.000
     11 C21         4.6072    0.2899   -2.1375 C.ar       1 <1>        0.000
     12 C22         5.0925   -1.3246    0.0447 C.ar       1 <1>        0.000
     13 C23         5.7920   -0.4722   -2.0649 C.ar       1 <1>        0.000
     14 C24         5.9677   -1.3805   -1.0295 C.ar       1 <1>        0.000
     15 H          -0.8572   -0.8942    2.3988 H.spc      1 <1>        0.000
     16 H          -1.8431   -0.1319    1.0922 H.spc      1 <1>        0.000
     17 H           0.9779    0.5165    1.9276 H.spc      1 <1>        0.000
     18 H          -0.4744    1.5565    2.0316 H.spc      1 <1>        0.000
     19 H          -1.2185   -1.9424    0.0132 H.spc      1 <1>        0.000
     20 H           0.3616   -2.0845    0.9864 H.spc      1 <1>        0.000
     21 H          -0.6649    1.4186   -0.4264 H.spc      1 <1>        0.000
     22 H           0.8503    2.2205    0.1572 H.spc      1 <1>        0.000
     23 H          -0.2923   -0.8485   -1.5621 H.spc      1 <1>        0.000
     24 H           1.2765   -1.6417   -0.8785 H.spc      1 <1>        0.000
     25 H           3.0814   -0.8417    0.6515 H.spc      1 <1>        0.000
     26 H           4.5235    1.0722   -2.8919 H.spc      1 <1>        0.000
     27 H           5.3738   -1.7508    1.0077 H.spc      1 <1>        0.000
     28 H           6.5681   -0.3483   -2.8202 H.spc      1 <1>        0.000
     29 H           6.7709   -2.1167   -1.0602 H.spc      1 <1>        0.000
@<TRIPOS>BOND
     1   13   14 ar 
     2    1    3 1  
     3   12   14 ar 
     4   11   13 ar 
     5    1    2 1  
     6    7    8 1  
     7    3    5 1  
     8    4    6 1  
     9    5    6 1  
    10    8   10 ar 
    11    6    7 am 
    12    7    9 2  
    13   10   12 ar 
    14    8   11 ar 
    15    2    4 1  
    16    1   15 1  
    17    1   16 1  
    18    2   17 1  
    19    2   18 1  
    20    3   19 1  
    21    3   20 1  
    22    4   21 1  
    23    4   22 1  
    24    5   23 1  
    25    5   24 1  
    26   10   25 1  
    27   11   26 1  
    28   12   27 1  
    29   13   28 1  
    30   14   29 1  
# Name:          frag5-612-95/138278 -- energy: -2.574577
# Creation time: Sat Jun  5 12:53:47 2010


@<TRIPOS>MOLECULE
frag5-612-95/138278 -- energy: -2.574577
   29    30     1     1     1
SMALL
USER_CHARGES


@<TRIPOS>ATOM
      1 C13        -1.3112   -0.6072    0.0267 C.3        1 <1>        0.000
      2 C14        -1.1106    0.8825   -0.0200 C.3        1 <1>        0.000
      3 C15        -0.2845   -1.3475    0.8267 C.3        1 <1>        0.000
      4 C16         0.2777    1.3191    0.3908 C.3        1 <1>        0.000
      5 C17         1.0859   -0.9545    0.3487 C.3        1 <1>        0.000
      6 N3          1.3617    0.4238    0.0499 N.am       1 <1>        0.000
      7 C18         2.4273    0.9287   -0.6763 C.2        1 <1>        0.000
      8 C19         3.6317    0.0875   -1.0375 C.ar       1 <1>        0.000
      9 O1          2.5180    2.0805   -1.0672 O.2        1 <1>        0.000
     10 C20         4.5065   -0.3027   -0.0070 C.ar       1 <1>        0.000
     11 C21         4.0875   -0.2037   -2.3496 C.ar       1 <1>        0.000
     12 C22         5.7108   -0.9785   -0.2500 C.ar       1 <1>        0.000
     13 C23         5.2170   -1.0189   -2.5843 C.ar       1 <1>        0.000
     14 C24         5.9641   -1.4989   -1.5134 C.ar       1 <1>        0.000
     15 H          -2.2754   -0.7844    0.5033 H.spc      1 <1>        0.000
     16 H          -1.2398   -0.9709   -0.9984 H.spc      1 <1>        0.000
     17 H          -1.8149    1.3294    0.6816 H.spc      1 <1>        0.000
     18 H          -1.2616    1.2006   -1.0516 H.spc      1 <1>        0.000
     19 H          -0.4240   -2.4211    0.6999 H.spc      1 <1>        0.000
     20 H          -0.3911   -1.0977    1.8823 H.spc      1 <1>        0.000
     21 H           0.4732    2.2482   -0.1445 H.spc      1 <1>        0.000
     22 H           0.2661    1.3792    1.4791 H.spc      1 <1>        0.000
     23 H           1.2071   -1.4737   -0.6020 H.spc      1 <1>        0.000
     24 H           1.7489   -1.1959    1.1795 H.spc      1 <1>        0.000
     25 H           4.2368   -0.0700    1.0232 H.spc      1 <1>        0.000
     26 H           3.5503    0.2139   -3.2011 H.spc      1 <1>        0.000
     27 H           6.4443   -1.0950    0.5478 H.spc      1 <1>        0.000
     28 H           5.5034   -1.2720   -3.6051 H.spc      1 <1>        0.000
     29 H           6.7276   -2.2626   -1.6613 H.spc      1 <1>        0.000
@<TRIPOS>BOND
     1   13   14 ar 
     2    1    3 1  
     3   12   14 ar 
     4   11   13 ar 
     5    1    2 1  
     6    7    8 1  
     7    3    5 1  
     8    4    6 1  
     9    5    6 1  
    10    8   10 ar 
    11    6    7 am 
    12    7    9 2  
    13   10   12 ar 
    14    8   11 ar 
    15    2    4 1  
    16    1   15 1  
    17    1   16 1  
    18    2   17 1  
    19    2   18 1  
    20    3   19 1  
    21    3   20 1  
    22    4   21 1  
    23    4   22 1  
    24    5   23 1  
    25    5   24 1  
    26   10   25 1  
    27   11   26 1  
    28   12   27 1  
    29   13   28 1  
    30   14   29 1  
# Name:          frag5-612-95/138278 -- energy: -2.736477
# Creation time: Sat Jun  5 12:53:47 2010


@<TRIPOS>MOLECULE
frag5-612-95/138278 -- energy: -2.736477
   29    30     1     1     1
SMALL
USER_CHARGES


@<TRIPOS>ATOM
      1 C13        -1.1927   -0.2929    0.9724 C.3        1 <1>        0.000
      2 C14        -0.1855   -1.3590    0.6180 C.3        1 <1>        0.000
      3 C15        -1.3114    0.8003   -0.0466 C.3        1 <1>        0.000
      4 C16         0.7855   -0.9731   -0.4699 C.3        1 <1>        0.000
      5 C17         0.0635    1.3272   -0.3349 C.3        1 <1>        0.000
      6 N3          1.1808    0.3962   -0.5209 N.am       1 <1>        0.000
      7 C18         2.4748    0.8433   -0.4540 C.2        1 <1>        0.000
      8 C19         3.6792    0.0364   -0.9184 C.ar       1 <1>        0.000
      9 O1          2.8015    1.9295    0.0103 O.2        1 <1>        0.000
     10 C20         4.8180    0.0441   -0.0889 C.ar       1 <1>        0.000
     11 C21         3.8551   -0.6092   -2.1666 C.ar       1 <1>        0.000
     12 C22         6.0267   -0.5704   -0.4481 C.ar       1 <1>        0.000
     13 C23         5.0250   -1.3466   -2.4687 C.ar       1 <1>        0.000
     14 C24         6.0615   -1.4156   -1.5461 C.ar       1 <1>        0.000
     15 H          -2.1662   -0.7785    1.0391 H.spc      1 <1>        0.000
     16 H          -0.8605    0.1681    1.9026 H.spc      1 <1>        0.000
     17 H          -0.7482   -2.2172    0.2508 H.spc      1 <1>        0.000
     18 H           0.4032   -1.5498    1.5153 H.spc      1 <1>        0.000
     19 H          -1.9457    1.6002    0.3354 H.spc      1 <1>        0.000
     20 H          -1.7622    0.4125   -0.9601 H.spc      1 <1>        0.000
     21 H           1.6953   -1.5408   -0.2749 H.spc      1 <1>        0.000
     22 H           0.2752   -1.1731   -1.4121 H.spc      1 <1>        0.000
     23 H           0.3291    1.8975    0.5552 H.spc      1 <1>        0.000
     24 H          -0.0339    1.8318   -1.2962 H.spc      1 <1>        0.000
     25 H           4.7571    0.5500    0.8747 H.spc      1 <1>        0.000
     26 H           3.0671   -0.5362   -2.9161 H.spc      1 <1>        0.000
     27 H           6.9310   -0.3848    0.1314 H.spc      1 <1>        0.000
     28 H           5.1128   -1.8607   -3.4258 H.spc      1 <1>        0.000
     29 H           6.8834   -2.1184   -1.6826 H.spc      1 <1>        0.000
@<TRIPOS>BOND
     1   13   14 ar 
     2    1    3 1  
     3   12   14 ar 
     4   11   13 ar 
     5    1    2 1  
     6    7    8 1  
     7    3    5 1  
     8    4    6 1  
     9    5    6 1  
    10    8   10 ar 
    11    6    7 am 
    12    7    9 2  
    13   10   12 ar 
    14    8   11 ar 
    15    2    4 1  
    16    1   15 1  
    17    1   16 1  
    18    2   17 1  
    19    2   18 1  
    20    3   19 1  
    21    3   20 1  
    22    4   21 1  
    23    4   22 1  
    24    5   23 1  
    25    5   24 1  
    26   10   25 1  
    27   11   26 1  
    28   12   27 1  
    29   13   28 1  
    30   14   29 1  
# Name:          frag5-612-95/138278 -- energy: -2.648696
# Creation time: Sat Jun  5 12:53:47 2010


@<TRIPOS>MOLECULE
frag5-612-95/138278 -- energy: -2.648696
   29    30     1     1     1
SMALL
USER_CHARGES


@<TRIPOS>ATOM
      1 C13        -1.5045   -0.4656    0.4804 C.3        1 <1>        0.000
      2 C14        -0.7327   -1.1593   -0.6225 C.3        1 <1>        0.000
      3 C15        -0.5497    0.3329    1.3334 C.3        1 <1>        0.000
      4 C16         0.7392   -0.7973   -0.7906 C.3        1 <1>        0.000
      5 C17         0.3057    1.2758    0.5202 C.3        1 <1>        0.000
      6 N3          1.2093    0.4965   -0.3510 N.am       1 <1>        0.000
      7 C18         2.4565    0.9377   -0.6624 C.2        1 <1>        0.000
      8 C19         3.6730    0.0659   -0.9728 C.ar       1 <1>        0.000
      9 O1          2.6993    2.1376   -0.7050 O.2        1 <1>        0.000
     10 C20         4.9126    0.5265   -0.4800 C.ar       1 <1>        0.000
     11 C21         3.7376   -1.1215   -1.7323 C.ar       1 <1>        0.000
     12 C22         6.1162   -0.1499   -0.7084 C.ar       1 <1>        0.000
     13 C23         4.9222   -1.8600   -1.8787 C.ar       1 <1>        0.000
     14 C24         6.0972   -1.4092   -1.2929 C.ar       1 <1>        0.000
     15 H          -2.2463    0.2017    0.0417 H.spc      1 <1>        0.000
     16 H          -2.0079   -1.2104    1.0968 H.spc      1 <1>        0.000
     17 H          -1.2160   -0.8578   -1.5518 H.spc      1 <1>        0.000
     18 H          -0.7459   -2.2188   -0.3669 H.spc      1 <1>        0.000
     19 H           0.1129   -0.3679    1.8413 H.spc      1 <1>        0.000
     20 H          -1.1398    0.9301    2.0285 H.spc      1 <1>        0.000
     21 H           1.2729   -1.5125   -0.1647 H.spc      1 <1>        0.000
     22 H           0.9029   -0.7993   -1.8682 H.spc      1 <1>        0.000
     23 H           0.8970    1.8990    1.1911 H.spc      1 <1>        0.000
     24 H          -0.3350    1.9079   -0.0947 H.spc      1 <1>        0.000
     25 H           4.9334    1.4474    0.1028 H.spc      1 <1>        0.000
     26 H           2.8329   -1.4790   -2.2242 H.spc      1 <1>        0.000
     27 H           7.0642    0.3097   -0.4288 H.spc      1 <1>        0.000
     28 H           4.9195   -2.7870   -2.4521 H.spc      1 <1>        0.000
     29 H           6.9905   -2.0338   -1.2918 H.spc      1 <1>        0.000
@<TRIPOS>BOND
     1   13   14 ar 
     2    1    3 1  
     3   12   14 ar 
     4   11   13 ar 
     5    1    2 1  
     6    7    8 1  
     7    3    5 1  
     8    4    6 1  
     9    5    6 1  
    10    8   10 ar 
    11    6    7 am 
    12    7    9 2  
    13   10   12 ar 
    14    8   11 ar 
    15    2    4 1  
    16    1   15 1  
    17    1   16 1  
    18    2   17 1  
    19    2   18 1  
    20    3   19 1  
    21    3   20 1  
    22    4   21 1  
    23    4   22 1  
    24    5   23 1  
    25    5   24 1  
    26   10   25 1  
    27   11   26 1  
    28   12   27 1  
    29   13   28 1  
    30   14   29 1  
# Name:          frag5-612-95/138278 -- energy: -3.112093
# Creation time: Sat Jun  5 12:53:47 2010


@<TRIPOS>MOLECULE
frag5-612-95/138278 -- energy: -3.112093
   29    30     1     1     1
SMALL
USER_CHARGES


@<TRIPOS>ATOM
      1 C13        -0.3604   -0.5296    1.4378 C.3        1 <1>        0.000
      2 C14         0.3157   -1.4713    0.4693 C.3        1 <1>        0.000
      3 C15        -0.9617    0.6864    0.7823 C.3        1 <1>        0.000
      4 C16         0.7051   -0.8335   -0.8314 C.3        1 <1>        0.000
      5 C17        -0.0714    1.3188   -0.2665 C.3        1 <1>        0.000
      6 N3          1.0683    0.5399   -0.7502 N.am       1 <1>        0.000
      7 C18         2.3343    1.0551   -0.9411 C.2        1 <1>        0.000
      8 C19         3.5397    0.1308   -1.0946 C.ar       1 <1>        0.000
      9 O1          2.6718    2.2291   -0.9364 O.2        1 <1>        0.000
     10 C20         4.0716   -0.4934    0.0518 C.ar       1 <1>        0.000
     11 C21         4.3126   -0.0210   -2.2688 C.ar       1 <1>        0.000
     12 C22         5.2607   -1.2484    0.0209 C.ar       1 <1>        0.000
     13 C23         5.4037   -0.9231   -2.3336 C.ar       1 <1>        0.000
     14 C24         5.7920   -1.6300   -1.2019 C.ar       1 <1>        0.000
     15 H          -1.1734   -1.0792    1.9122 H.spc      1 <1>        0.000
     16 H           0.3998   -0.1803    2.1365 H.spc      1 <1>        0.000
     17 H          -0.3957   -2.2646    0.2400 H.spc      1 <1>        0.000
     18 H           1.2320   -1.8209    0.9449 H.spc      1 <1>        0.000
     19 H          -1.1230    1.4300    1.5628 H.spc      1 <1>        0.000
     20 H          -1.8763    0.3673    0.2826 H.spc      1 <1>        0.000
     21 H           1.5844   -1.3683   -1.1904 H.spc      1 <1>        0.000
     22 H          -0.1695   -0.8873   -1.4797 H.spc      1 <1>        0.000
     23 H           0.3585    2.2004    0.2089 H.spc      1 <1>        0.000
     24 H          -0.7097    1.4729   -1.1365 H.spc      1 <1>        0.000
     25 H           3.5425   -0.3879    0.9989 H.spc      1 <1>        0.000
     26 H           4.0624    0.5721   -3.1484 H.spc      1 <1>        0.000
     27 H           5.7582   -1.5298    0.9490 H.spc      1 <1>        0.000
     28 H           5.9392   -1.0627   -3.2727 H.spc      1 <1>        0.000
     29 H           6.4941   -2.4607   -1.2733 H.spc      1 <1>        0.000
@<TRIPOS>BOND
     1   13   14 ar 
     2    1    3 1  
     3   12   14 ar 
     4   11   13 ar 
     5    1    2 1  
     6    7    8 1  
     7    3    5 1  
     8    4    6 1  
     9    5    6 1  
    10    8   10 ar 
    11    6    7 am 
    12    7    9 2  
    13   10   12 ar 
    14    8   11 ar 
    15    2    4 1  
    16    1   15 1  
    17    1   16 1  
    18    2   17 1  
    19    2   18 1  
    20    3   19 1  
    21    3   20 1  
    22    4   21 1  
    23    4   22 1  
    24    5   23 1  
    25    5   24 1  
    26   10   25 1  
    27   11   26 1  
    28   12   27 1  
    29   13   28 1  
    30   14   29 1  
# Name:          frag5-612-95/138278 -- energy: -2.284504
# Creation time: Sat Jun  5 12:53:47 2010


@<TRIPOS>MOLECULE
frag5-612-95/138278 -- energy: -2.284504
   29    30     1     1     1
SMALL
USER_CHARGES


@<TRIPOS>ATOM
      1 C13        -1.3927   -0.6846    0.0127 C.3        1 <1>        0.000
      2 C14        -0.1479   -1.3272   -0.5118 C.3        1 <1>        0.000
      3 C15        -1.2411    0.7984    0.2591 C.3        1 <1>        0.000
      4 C16         1.0344   -0.8856    0.2793 C.3        1 <1>        0.000
      5 C17         0.1774    1.3432    0.3946 C.3        1 <1>        0.000
      6 N3          1.3309    0.4975    0.0845 N.am       1 <1>        0.000
      7 C18         2.5386    0.9939   -0.3615 C.2        1 <1>        0.000
      8 C19         3.6572    0.0762   -0.8429 C.ar       1 <1>        0.000
      9 O1          2.8677    2.1709   -0.4307 O.2        1 <1>        0.000
     10 C20         4.9745    0.4747   -0.5520 C.ar       1 <1>        0.000
     11 C21         3.5558   -1.0747   -1.6650 C.ar       1 <1>        0.000
     12 C22         6.0987   -0.2104   -1.0264 C.ar       1 <1>        0.000
     13 C23         4.6839   -1.8721   -1.9711 C.ar       1 <1>        0.000
     14 C24         5.9446   -1.4900   -1.5313 C.ar       1 <1>        0.000
     15 H          -2.1726   -0.8160   -0.7374 H.spc      1 <1>        0.000
     16 H          -1.6292   -1.1548    0.9672 H.spc      1 <1>        0.000
     17 H          -0.0085   -1.0359   -1.5529 H.spc      1 <1>        0.000
     18 H          -0.2454   -2.4099   -0.4318 H.spc      1 <1>        0.000
     19 H          -1.7235    0.9892    1.2177 H.spc      1 <1>        0.000
     20 H          -1.6629    1.2881   -0.6186 H.spc      1 <1>        0.000
     21 H           0.8109   -1.0381    1.3352 H.spc      1 <1>        0.000
     22 H           1.8968   -1.4658   -0.0490 H.spc      1 <1>        0.000
     23 H           0.2813    1.5594    1.4579 H.spc      1 <1>        0.000
     24 H           0.2279    2.1461   -0.3409 H.spc      1 <1>        0.000
     25 H           5.1263    1.3564    0.0706 H.spc      1 <1>        0.000
     26 H           2.5834   -1.3524   -2.0718 H.spc      1 <1>        0.000
     27 H           7.0828    0.2574   -0.9987 H.spc      1 <1>        0.000
     28 H           4.5634   -2.7864   -2.5522 H.spc      1 <1>        0.000
     29 H           6.7885   -2.1780   -1.5822 H.spc      1 <1>        0.000
@<TRIPOS>BOND
     1   13   14 ar 
     2    1    3 1  
     3   12   14 ar 
     4   11   13 ar 
     5    1    2 1  
     6    7    8 1  
     7    3    5 1  
     8    4    6 1  
     9    5    6 1  
    10    8   10 ar 
    11    6    7 am 
    12    7    9 2  
    13   10   12 ar 
    14    8   11 ar 
    15    2    4 1  
    16    1   15 1  
    17    1   16 1  
    18    2   17 1  
    19    2   18 1  
    20    3   19 1  
    21    3   20 1  
    22    4   21 1  
    23    4   22 1  
    24    5   23 1  
    25    5   24 1  
    26   10   25 1  
    27   11   26 1  
    28   12   27 1  
    29   13   28 1  
    30   14   29 1  
# Name:          frag5-612-95/138278 -- energy: -3.028476
# Creation time: Sat Jun  5 12:53:47 2010


@<TRIPOS>MOLECULE
frag5-612-95/138278 -- energy: -3.028476
   29    30     1     1     1
SMALL
USER_CHARGES


@<TRIPOS>ATOM
      1 C13        -1.0424   -0.9319   -0.3164 C.3        1 <1>        0.000
      2 C14        -0.9432    0.4574   -0.8724 C.3        1 <1>        0.000
      3 C15        -0.3568   -1.1294    0.9939 C.3        1 <1>        0.000
      4 C16         0.1525    1.2914   -0.2325 C.3        1 <1>        0.000
      5 C17         1.0665   -0.6523    0.8668 C.3        1 <1>        0.000
      6 N3          1.3332    0.5540    0.1394 N.am       1 <1>        0.000
      7 C18         2.5839    1.0387   -0.2177 C.2        1 <1>        0.000
      8 C19         3.6832    0.1320   -0.7208 C.ar       1 <1>        0.000
      9 O1          2.8828    2.2248   -0.2789 O.2        1 <1>        0.000
     10 C20         3.5650   -0.4405   -2.0079 C.ar       1 <1>        0.000
     11 C21         4.8874   -0.1787   -0.0442 C.ar       1 <1>        0.000
     12 C22         4.5410   -1.2855   -2.5573 C.ar       1 <1>        0.000
     13 C23         5.9289   -0.9082   -0.6523 C.ar       1 <1>        0.000
     14 C24         5.7998   -1.3618   -1.9621 C.ar       1 <1>        0.000
     15 H          -2.1012   -1.1339   -0.1541 H.spc      1 <1>        0.000
     16 H          -0.5566   -1.5954   -1.0319 H.spc      1 <1>        0.000
     17 H          -1.8917    0.9569   -0.6750 H.spc      1 <1>        0.000
     18 H          -0.7092    0.3689   -1.9333 H.spc      1 <1>        0.000
     19 H          -0.3721   -2.1848    1.2660 H.spc      1 <1>        0.000
     20 H          -0.8704   -0.5635    1.7711 H.spc      1 <1>        0.000
     21 H           0.4606    2.0305   -0.9720 H.spc      1 <1>        0.000
     22 H          -0.2622    1.7088    0.6850 H.spc      1 <1>        0.000
     23 H           1.5763   -1.4363    0.3068 H.spc      1 <1>        0.000
     24 H           1.3837   -0.4403    1.8879 H.spc      1 <1>        0.000
     25 H           2.6772   -0.2157   -2.5991 H.spc      1 <1>        0.000
     26 H           5.0137    0.1586    0.9846 H.spc      1 <1>        0.000
     27 H           4.3167   -1.8787   -3.4438 H.spc      1 <1>        0.000
     28 H           6.8409   -1.1185   -0.0936 H.spc      1 <1>        0.000
     29 H           6.6552   -1.7637   -2.5050 H.spc      1 <1>        0.000
@<TRIPOS>BOND
     1   13   14 ar 
     2    1    3 1  
     3   12   14 ar 
     4   11   13 ar 
     5    1    2 1  
     6    7    8 1  
     7    3    5 1  
     8    4    6 1  
     9    5    6 1  
    10    8   10 ar 
    11    6    7 am 
    12    7    9 2  
    13   10   12 ar 
    14    8   11 ar 
    15    2    4 1  
    16    1   15 1  
    17    1   16 1  
    18    2   17 1  
    19    2   18 1  
    20    3   19 1  
    21    3   20 1  
    22    4   21 1  
    23    4   22 1  
    24    5   23 1  
    25    5   24 1  
    26   10   25 1  
    27   11   26 1  
    28   12   27 1  
    29   13   28 1  
    30   14   29 1  
# Name:          frag5-612-95/138278 -- energy: -2.775302
# Creation time: Sat Jun  5 12:53:47 2010


@<TRIPOS>MOLECULE
frag5-612-95/138278 -- energy: -2.775302
   29    30     1     1     1
SMALL
USER_CHARGES


@<TRIPOS>ATOM
      1 C13        -1.3864   -0.4212    0.7812 C.3        1 <1>        0.000
      2 C14        -0.5370    0.7173    1.2450 C.3        1 <1>        0.000
      3 C15        -0.4739   -1.4558    0.1994 C.3        1 <1>        0.000
      4 C16         0.2377    1.3014    0.1012 C.3        1 <1>        0.000
      5 C17         0.7299   -0.9716   -0.5873 C.3        1 <1>        0.000
      6 N3          1.1931    0.3855   -0.4831 N.am       1 <1>        0.000
      7 C18         2.3946    0.9148   -0.9259 C.2        1 <1>        0.000
      8 C19         3.6237    0.0711   -1.0945 C.ar       1 <1>        0.000
      9 O1          2.6100    2.1022   -1.1328 O.2        1 <1>        0.000
     10 C20         4.4675   -0.1008    0.0240 C.ar       1 <1>        0.000
     11 C21         4.1477   -0.3858   -2.3223 C.ar       1 <1>        0.000
     12 C22         5.7171   -0.7359   -0.0676 C.ar       1 <1>        0.000
     13 C23         5.3203   -1.1680   -2.3800 C.ar       1 <1>        0.000
     14 C24         6.0375   -1.4433   -1.2198 C.ar       1 <1>        0.000
     15 H          -1.9532   -0.8378    1.6139 H.spc      1 <1>        0.000
     16 H          -2.1036   -0.0819    0.0338 H.spc      1 <1>        0.000
     17 H           0.1642    0.3510    1.9948 H.spc      1 <1>        0.000
     18 H          -1.1816    1.4896    1.6647 H.spc      1 <1>        0.000
     19 H          -1.0820   -2.0144   -0.5121 H.spc      1 <1>        0.000
     20 H          -0.0662   -1.9982    1.0524 H.spc      1 <1>        0.000
     21 H          -0.4789    1.5645   -0.6768 H.spc      1 <1>        0.000
     22 H           0.7975    2.1528    0.4882 H.spc      1 <1>        0.000
     23 H           0.4170   -1.0625   -1.6275 H.spc      1 <1>        0.000
     24 H           1.5564   -1.5617   -0.1913 H.spc      1 <1>        0.000
     25 H           4.1376    0.2726    0.9934 H.spc      1 <1>        0.000
     26 H           3.6341   -0.1282   -3.2486 H.spc      1 <1>        0.000
     27 H           6.4279   -0.6744    0.7565 H.spc      1 <1>        0.000
     28 H           5.6659   -1.5583   -3.3373 H.spc      1 <1>        0.000
     29 H           6.8287   -2.1931   -1.2150 H.spc      1 <1>        0.000
@<TRIPOS>BOND
     1   13   14 ar 
     2    1    3 1  
     3   12   14 ar 
     4   11   13 ar 
     5    1    2 1  
     6    7    8 1  
     7    3    5 1  
     8    4    6 1  
     9    5    6 1  
    10    8   10 ar 
    11    6    7 am 
    12    7    9 2  
    13   10   12 ar 
    14    8   11 ar 
    15    2    4 1  
    16    1   15 1  
    17    1   16 1  
    18    2   17 1  
    19    2   18 1  
    20    3   19 1  
    21    3   20 1  
    22    4   21 1  
    23    4   22 1  
    24    5   23 1  
    25    5   24 1  
    26   10   25 1  
    27   11   26 1  
    28   12   27 1  
    29   13   28 1  
    30   14   29 1  
# Name:          frag5-612-95/138278 -- energy: -2.547113
# Creation time: Sat Jun  5 12:53:47 2010


@<TRIPOS>MOLECULE
frag5-612-95/138278 -- energy: -2.547113
   29    30     1     1     1
SMALL
USER_CHARGES


@<TRIPOS>ATOM
      1 C13        -1.3215   -0.1602    1.0217 C.3        1 <1>        0.000
      2 C14        -0.0921   -0.9761    1.3003 C.3        1 <1>        0.000
      3 C15        -1.1394    1.0444    0.1501 C.3        1 <1>        0.000
      4 C16         0.9115   -1.0518    0.1895 C.3        1 <1>        0.000
      5 C17        -0.0677    0.8618   -0.8876 C.3        1 <1>        0.000
      6 N3          1.1613    0.1453   -0.5491 N.am       1 <1>        0.000
      7 C18         2.3827    0.7438   -0.7259 C.2        1 <1>        0.000
      8 C19         3.6732   -0.0147   -0.9348 C.ar       1 <1>        0.000
      9 O1          2.5765    1.9569   -0.8085 O.2        1 <1>        0.000
     10 C20         4.3196    0.1837   -2.1735 C.ar       1 <1>        0.000
     11 C21         4.3173   -0.9139   -0.0609 C.ar       1 <1>        0.000
     12 C22         5.5143   -0.4683   -2.5162 C.ar       1 <1>        0.000
     13 C23         5.6002   -1.4374   -0.3418 C.ar       1 <1>        0.000
     14 C24         6.2460   -1.1036   -1.5256 C.ar       1 <1>        0.000
     15 H          -2.0068   -0.8187    0.4879 H.spc      1 <1>        0.000
     16 H          -1.6612    0.2140    1.9874 H.spc      1 <1>        0.000
     17 H          -0.4345   -1.9963    1.4737 H.spc      1 <1>        0.000
     18 H           0.4129   -0.4931    2.1369 H.spc      1 <1>        0.000
     19 H          -0.8437    1.8757    0.7901 H.spc      1 <1>        0.000
     20 H          -2.0799    1.2221   -0.3715 H.spc      1 <1>        0.000
     21 H           1.8585   -1.3093    0.6639 H.spc      1 <1>        0.000
     22 H           0.5038   -1.7627   -0.5291 H.spc      1 <1>        0.000
     23 H           0.2619    1.8743   -1.1208 H.spc      1 <1>        0.000
     24 H          -0.5361    0.2510   -1.6593 H.spc      1 <1>        0.000
     25 H           3.8733    0.8706   -2.8926 H.spc      1 <1>        0.000
     26 H           3.8121   -1.2140    0.8571 H.spc      1 <1>        0.000
     27 H           5.8624   -0.4749   -3.5491 H.spc      1 <1>        0.000
     28 H           6.0836   -2.1044    0.3720 H.spc      1 <1>        0.000
     29 H           7.3010   -1.3354   -1.6715 H.spc      1 <1>        0.000
@<TRIPOS>BOND
     1   13   14 ar 
     2    1    3 1  
     3   12   14 ar 
     4   11   13 ar 
     5    1    2 1  
     6    7    8 1  
     7    3    5 1  
     8    4    6 1  
     9    5    6 1  
    10    8   10 ar 
    11    6    7 am 
    12    7    9 2  
    13   10   12 ar 
    14    8   11 ar 
    15    2    4 1  
    16    1   15 1  
    17    1   16 1  
    18    2   17 1  
    19    2   18 1  
    20    3   19 1  
    21    3   20 1  
    22    4   21 1  
    23    4   22 1  
    24    5   23 1  
    25    5   24 1  
    26   10   25 1  
    27   11   26 1  
    28   12   27 1  
    29   13   28 1  
    30   14   29 1  
# Name:          frag5-612-95/138278 -- energy: -3.154802
# Creation time: Sat Jun  5 12:53:47 2010


@<TRIPOS>MOLECULE
frag5-612-95/138278 -- energy: -3.154802
   29    30     1     1     1
SMALL
USER_CHARGES


@<TRIPOS>ATOM
      1 C13        -0.8464   -0.4398    1.4081 C.3        1 <1>        0.000
      2 C14         0.0300    0.7790    1.4579 C.3        1 <1>        0.000
      3 C15        -0.3335   -1.4587    0.4266 C.3        1 <1>        0.000
      4 C16         0.2944    1.2866    0.0740 C.3        1 <1>        0.000
      5 C17         0.4490   -0.9409   -0.7684 C.3        1 <1>        0.000
      6 N3          1.0825    0.3654   -0.7064 N.am       1 <1>        0.000
      7 C18         2.2206    0.8293   -1.3234 C.2        1 <1>        0.000
      8 C19         3.5251    0.0636   -1.2551 C.ar       1 <1>        0.000
      9 O1          2.3632    1.9248   -1.8659 O.2        1 <1>        0.000
     10 C20         3.8378   -0.7118   -0.1225 C.ar       1 <1>        0.000
     11 C21         4.6072    0.2899   -2.1375 C.ar       1 <1>        0.000
     12 C22         5.0925   -1.3246    0.0447 C.ar       1 <1>        0.000
     13 C23         5.7920   -0.4722   -2.0649 C.ar       1 <1>        0.000
     14 C24         5.9677   -1.3805   -1.0295 C.ar       1 <1>        0.000
     15 H          -0.8572   -0.8942    2.3988 H.spc      1 <1>        0.000
     16 H          -1.8431   -0.1319    1.0922 H.spc      1 <1>        0.000
     17 H           0.9779    0.5165    1.9276 H.spc      1 <1>        0.000
     18 H          -0.4744    1.5565    2.0316 H.spc      1 <1>        0.000
     19 H          -1.2185   -1.9424    0.0132 H.spc      1 <1>        0.000
     20 H           0.3616   -2.0845    0.9864 H.spc      1 <1>        0.000
     21 H          -0.6649    1.4186   -0.4264 H.spc      1 <1>        0.000
     22 H           0.8503    2.2205    0.1572 H.spc      1 <1>        0.000
     23 H          -0.2923   -0.8485   -1.5621 H.spc      1 <1>        0.000
     24 H           1.2765   -1.6417   -0.8785 H.spc      1 <1>        0.000
     25 H           3.0814   -0.8417    0.6515 H.spc      1 <1>        0.000
     26 H           4.5235    1.0722   -2.8919 H.spc      1 <1>        0.000
     27 H           5.3738   -1.7508    1.0077 H.spc      1 <1>        0.000
     28 H           6.5681   -0.3483   -2.8202 H.spc      1 <1>        0.000
     29 H           6.7709   -2.1167   -1.0602 H.spc      1 <1>        0.000
@<TRIPOS>BOND
     1   13   14 ar 
     2    1    3 1  
     3   12   14 ar 
     4   11   13 ar 
     5    1    2 1  
     6    7    8 1  
     7    3    5 1  
     8    4    6 1  
     9    5    6 1  
    10    8   10 ar 
    11    6    7 am 
    12    7    9 2  
    13   10   12 ar 
    14    8   11 ar 
    15    2    4 1  
    16    1   15 1  
    17    1   16 1  
    18    2   17 1  
    19    2   18 1  
    20    3   19 1  
    21    3   20 1  
    22    4   21 1  
    23    4   22 1  
    24    5   23 1  
    25    5   24 1  
    26   10   25 1  
    27   11   26 1  
    28   12   27 1  
    29   13   28 1  
    30   14   29 1  
