#      Rotatable Fragment
#      Build by yxyuan
#
# Name:          frag4-355-370/150395
# Creation time: Sat Jun  5 12:53:32 2010


@<TRIPOS>MOLECULE
frag4-355-370/150395
   18    18     1     1     1
SMALL
USER_CHARGES


@<TRIPOS>ATOM
      1 C17        -2.1798   -1.7250   -0.1648 C.3        1 <1>        0.000
      2 C19        -1.0077   -2.5101    0.2674 C.3        1 <1>        0.000
      3 C20        -3.4879   -2.3400   -0.4089 C.3        1 <1>        0.000
      4 C22        -1.0544   -3.9653    0.4377 C.3        1 <1>        0.000
      5 C24        -3.5121   -3.7144    0.1533 C.3        1 <1>        0.000
      6 C27        -2.2863   -4.5069   -0.1900 C.3        1 <1>        0.000
      7 H          -1.8875   -1.3522   -1.1465 H.spc      1 <1>        0.000
      8 H          -2.3653   -1.0605    0.6791 H.spc      1 <1>        0.000
      9 H          -0.8167   -2.1440    1.2762 H.spc      1 <1>        0.000
     10 H          -0.2980   -2.3742   -0.5487 H.spc      1 <1>        0.000
     11 H          -3.6685   -2.3873   -1.4828 H.spc      1 <1>        0.000
     12 H          -4.2622   -1.7413    0.0709 H.spc      1 <1>        0.000
     13 H          -1.0577   -4.2034    1.5014 H.spc      1 <1>        0.000
     14 H          -0.1815   -4.4117   -0.0386 H.spc      1 <1>        0.000
     15 H          -3.5603   -3.6292    1.2389 H.spc      1 <1>        0.000
     16 H          -4.3727   -4.2322   -0.2701 H.spc      1 <1>        0.000
     17 H          -2.1550   -4.4659   -1.2713 H.spc      1 <1>        0.000
     18 H          -2.4308   -5.5216    0.1810 H.spc      1 <1>        0.000
@<TRIPOS>BOND
     1    5    6 1  
     2    1    2 1  
     3    1    3 1  
     4    2    4 1  
     5    3    5 1  
     6    4    6 1  
     7    1    7 1  
     8    1    8 1  
     9    2    9 1  
    10    2   10 1  
    11    3   11 1  
    12    3   12 1  
    13    4   13 1  
    14    4   14 1  
    15    5   15 1  
    16    5   16 1  
    17    6   17 1  
    18    6   18 1  
# Name:          frag4-355-370/150395 -- energy: -0.965599
# Creation time: Sat Jun  5 12:53:32 2010


@<TRIPOS>MOLECULE
frag4-355-370/150395 -- energy: -0.965599
   18    18     1     1     1
SMALL
USER_CHARGES


@<TRIPOS>ATOM
      1 C17        -2.1798   -1.7250   -0.1648 C.3        1 <1>        0.000
      2 C19        -1.0077   -2.5101    0.2674 C.3        1 <1>        0.000
      3 C20        -3.4879   -2.3400   -0.4089 C.3        1 <1>        0.000
      4 C22        -1.0544   -3.9653    0.4377 C.3        1 <1>        0.000
      5 C24        -3.5121   -3.7144    0.1533 C.3        1 <1>        0.000
      6 C27        -2.2863   -4.5069   -0.1900 C.3        1 <1>        0.000
      7 H          -1.8875   -1.3522   -1.1465 H.spc      1 <1>        0.000
      8 H          -2.3653   -1.0605    0.6791 H.spc      1 <1>        0.000
      9 H          -0.8167   -2.1440    1.2762 H.spc      1 <1>        0.000
     10 H          -0.2980   -2.3742   -0.5487 H.spc      1 <1>        0.000
     11 H          -3.6685   -2.3873   -1.4828 H.spc      1 <1>        0.000
     12 H          -4.2622   -1.7413    0.0709 H.spc      1 <1>        0.000
     13 H          -1.0577   -4.2034    1.5014 H.spc      1 <1>        0.000
     14 H          -0.1815   -4.4117   -0.0386 H.spc      1 <1>        0.000
     15 H          -3.5603   -3.6292    1.2389 H.spc      1 <1>        0.000
     16 H          -4.3727   -4.2322   -0.2701 H.spc      1 <1>        0.000
     17 H          -2.1550   -4.4659   -1.2713 H.spc      1 <1>        0.000
     18 H          -2.4308   -5.5216    0.1810 H.spc      1 <1>        0.000
@<TRIPOS>BOND
     1    5    6 1  
     2    1    2 1  
     3    1    3 1  
     4    2    4 1  
     5    3    5 1  
     6    4    6 1  
     7    1    7 1  
     8    1    8 1  
     9    2    9 1  
    10    2   10 1  
    11    3   11 1  
    12    3   12 1  
    13    4   13 1  
    14    4   14 1  
    15    5   15 1  
    16    5   16 1  
    17    6   17 1  
    18    6   18 1  
