#      Rotatable Fragment
#      Build by yxyuan
#
# Name:          frag4-320-800/150395
# Creation time: Sat Jun  5 12:53:30 2010


@<TRIPOS>MOLECULE
frag4-320-800/150395
   17    17     1     1     1
SMALL
USER_CHARGES


@<TRIPOS>ATOM
      1 N1          2.0674    0.9615   -0.2613 N.3        1 <1>        0.000
      2 C2          1.0787    1.1506   -1.2854 C.3        1 <1>        0.000
      3 C3          1.8031    0.3463    1.0353 C.3        1 <1>        0.000
      4 C5         -0.3014    0.7921   -0.7215 C.3        1 <1>        0.000
      5 C6          0.7239   -0.7482    0.8830 C.3        1 <1>        0.000
      6 N2         -0.3875   -0.5229   -0.0598 N.4        1 <1>        0.000
      7 H           2.7116    0.2996   -0.6940 H.spc      1 <1>        0.000
      8 H           1.3051    0.5091   -2.1370 H.spc      1 <1>        0.000
      9 H           1.0829    2.1905   -1.6120 H.spc      1 <1>        0.000
     10 H           1.4495    1.1076    1.7307 H.spc      1 <1>        0.000
     11 H           2.7208   -0.1021    1.4159 H.spc      1 <1>        0.000
     12 H          -0.9870    0.7616   -1.5683 H.spc      1 <1>        0.000
     13 H          -0.5332    1.5397    0.0371 H.spc      1 <1>        0.000
     14 H           1.2548   -1.6162    0.4919 H.spc      1 <1>        0.000
     15 H           0.2529   -0.8191    1.8634 H.spc      1 <1>        0.000
     16 H          -1.2607   -0.5561    0.4663 H.spc      1 <1>        0.000
     17 H          -0.3425   -1.2435   -0.7803 H.spc      1 <1>        0.000
@<TRIPOS>BOND
     1    5    6 1  
     2    1    3 1  
     3    1    2 1  
     4    2    4 1  
     5    3    5 1  
     6    4    6 1  
     7    1    7 1  
     8    2    8 1  
     9    2    9 1  
    10    3   10 1  
    11    3   11 1  
    12    4   12 1  
    13    4   13 1  
    14    5   14 1  
    15    5   15 1  
    16    6   16 1  
    17    6   17 1  
# Name:          frag4-320-800/150395 -- energy: -1.080956
# Creation time: Sat Jun  5 12:53:30 2010


@<TRIPOS>MOLECULE
frag4-320-800/150395 -- energy: -1.080956
   17    17     1     1     1
SMALL
USER_CHARGES


@<TRIPOS>ATOM
      1 N1          2.0674    0.9615   -0.2613 N.3        1 <1>        0.000
      2 C2          1.0787    1.1506   -1.2854 C.3        1 <1>        0.000
      3 C3          1.8031    0.3463    1.0353 C.3        1 <1>        0.000
      4 C5         -0.3014    0.7921   -0.7215 C.3        1 <1>        0.000
      5 C6          0.7239   -0.7482    0.8830 C.3        1 <1>        0.000
      6 N2         -0.3875   -0.5229   -0.0598 N.4        1 <1>        0.000
      7 H           2.7116    0.2996   -0.6940 H.spc      1 <1>        0.000
      8 H           1.3051    0.5091   -2.1370 H.spc      1 <1>        0.000
      9 H           1.0829    2.1905   -1.6120 H.spc      1 <1>        0.000
     10 H           1.4495    1.1076    1.7307 H.spc      1 <1>        0.000
     11 H           2.7208   -0.1021    1.4159 H.spc      1 <1>        0.000
     12 H          -0.9870    0.7616   -1.5683 H.spc      1 <1>        0.000
     13 H          -0.5332    1.5397    0.0371 H.spc      1 <1>        0.000
     14 H           1.2548   -1.6162    0.4919 H.spc      1 <1>        0.000
     15 H           0.2529   -0.8191    1.8634 H.spc      1 <1>        0.000
     16 H          -1.2607   -0.5561    0.4663 H.spc      1 <1>        0.000
     17 H          -0.3425   -1.2435   -0.7803 H.spc      1 <1>        0.000
@<TRIPOS>BOND
     1    5    6 1  
     2    1    3 1  
     3    1    2 1  
     4    2    4 1  
     5    3    5 1  
     6    4    6 1  
     7    1    7 1  
     8    2    8 1  
     9    2    9 1  
    10    3   10 1  
    11    3   11 1  
    12    4   12 1  
    13    4   13 1  
    14    5   14 1  
    15    5   15 1  
    16    6   16 1  
    17    6   17 1  
