#      Rotatable Fragment
#      Build by yxyuan
#
# Name:          frag4-380-76/48856
# Creation time: Sat Jun  5 12:53:35 2010


@<TRIPOS>MOLECULE
frag4-380-76/48856
    8     8     1     1     1
SMALL
USER_CHARGES


@<TRIPOS>ATOM
      1 N2          3.8201   -1.0889   -1.5561 N.3        1 <1>        0.000
      2 C20         3.2191   -1.0840   -2.9143 C.3        1 <1>        0.000
      3 C21         2.8943   -2.1886   -1.9296 C.3        1 <1>        0.000
      4 H           4.7463   -0.9906   -1.1403 H.spc      1 <1>        0.000
      5 H           3.5323   -0.9728   -3.9524 H.spc      1 <1>        0.000
      6 H           2.6986   -0.3969   -3.5814 H.spc      1 <1>        0.000
      7 H           2.0209   -2.7016   -1.5269 H.spc      1 <1>        0.000
      8 H           2.8546   -3.2774   -1.8979 H.spc      1 <1>        0.000
@<TRIPOS>BOND
     1    1    3 1  
     2    1    2 1  
     3    2    3 1  
     4    1    4 1  
     5    2    5 1  
     6    2    6 1  
     7    3    7 1  
     8    3    8 1  
# Name:          frag4-380-76/48856 -- energy: -0.055214
# Creation time: Sat Jun  5 12:53:35 2010


@<TRIPOS>MOLECULE
frag4-380-76/48856 -- energy: -0.055214
    8     8     1     1     1
SMALL
USER_CHARGES


@<TRIPOS>ATOM
      1 N2          3.8201   -1.0889   -1.5561 N.3        1 <1>        0.000
      2 C20         3.2191   -1.0840   -2.9143 C.3        1 <1>        0.000
      3 C21         2.8943   -2.1886   -1.9296 C.3        1 <1>        0.000
      4 H           4.7463   -0.9906   -1.1403 H.spc      1 <1>        0.000
      5 H           3.5323   -0.9728   -3.9524 H.spc      1 <1>        0.000
      6 H           2.6986   -0.3969   -3.5814 H.spc      1 <1>        0.000
      7 H           2.0209   -2.7016   -1.5269 H.spc      1 <1>        0.000
      8 H           2.8546   -3.2774   -1.8979 H.spc      1 <1>        0.000
@<TRIPOS>BOND
     1    1    3 1  
     2    1    2 1  
     3    2    3 1  
     4    1    4 1  
     5    2    5 1  
     6    2    6 1  
     7    3    7 1  
     8    3    8 1  
