#      Rotatable Fragment
#      Build by yxyuan
#
# Name:          frag5-642-81/138278
# Creation time: Sat Jun  5 12:53:49 2010


@<TRIPOS>MOLECULE
frag5-642-81/138278
   22    22     1     1     1
SMALL
USER_CHARGES


@<TRIPOS>ATOM
      1 C14        -0.0869   -2.7369   -0.2400 C.3        1 <1>        0.000
      2 C17         1.1672   -3.5183    0.0384 C.3        1 <1>        0.000
      3 C18         0.2886   -1.4864   -0.9734 C.3        1 <1>        0.000
      4 C19         2.4941   -2.7652   -0.0376 C.3        1 <1>        0.000
      5 C20         1.2824   -0.6401   -0.2213 C.3        1 <1>        0.000
      6 N3          2.5232   -1.3114   -0.0026 N.pl3      1 <1>        0.000
      7 C21         3.6725   -0.6302    0.1195 C.cat      1 <1>        0.000
      8 N4          3.6605    0.6169    0.5826 N.pl3      1 <1>        0.000
      9 N5          4.7870   -1.1557   -0.1877 N.pl3      1 <1>        0.000
     10 H          -0.7712   -3.3325   -0.8442 H.spc      1 <1>        0.000
     11 H          -0.5851   -2.4850    0.6962 H.spc      1 <1>        0.000
     12 H           1.0798   -3.8582    1.0704 H.spc      1 <1>        0.000
     13 H           1.2169   -4.2822   -0.7375 H.spc      1 <1>        0.000
     14 H           0.7486   -1.7798   -1.9170 H.spc      1 <1>        0.000
     15 H          -0.6172   -0.8951   -1.1078 H.spc      1 <1>        0.000
     16 H           3.0243   -3.0653    0.8662 H.spc      1 <1>        0.000
     17 H           2.8888   -3.0172   -1.0219 H.spc      1 <1>        0.000
     18 H           1.4837    0.2497   -0.8179 H.spc      1 <1>        0.000
     19 H           0.8528   -0.4050    0.7525 H.spc      1 <1>        0.000
     20 H           4.5353    1.1314    0.6848 H.spc      1 <1>        0.000
     21 H           2.7765    1.0585    0.8355 H.spc      1 <1>        0.000
     22 H           5.6497   -0.6228   -0.0775 H.spc      1 <1>        0.000
@<TRIPOS>BOND
     1    7    8 ar 
     2    6    7 ar 
     3    5    6 1  
     4    3    5 1  
     5    7    9 ar 
     6    4    6 1  
     7    2    4 1  
     8    1    3 1  
     9    1    2 1  
    10    1   10 1  
    11    1   11 1  
    12    2   12 1  
    13    2   13 1  
    14    3   14 1  
    15    3   15 1  
    16    4   16 1  
    17    4   17 1  
    18    5   18 1  
    19    5   19 1  
    20    8   20 1  
    21    8   21 1  
    22    9   22 1  
# Name:          frag5-642-81/138278
# Creation time: Sat Jun  5 12:53:49 2010


@<TRIPOS>MOLECULE
frag5-642-81/138278
   22    22     1     1     1
SMALL
USER_CHARGES


@<TRIPOS>ATOM
      1 C14         0.1142   -2.8152   -0.0642 C.3        1 <1>        0.000
      2 C17         1.4961   -3.4490   -0.1313 C.3        1 <1>        0.000
      3 C18         0.1765   -1.3097    0.0992 C.3        1 <1>        0.000
      4 C19         2.5459   -2.6468   -0.8552 C.3        1 <1>        0.000
      5 C20         1.2726   -0.6556   -0.7138 C.3        1 <1>        0.000
      6 N3          2.5530   -1.2594   -0.5070 N.pl3      1 <1>        0.000
      7 C21         3.5571   -0.7073    0.2047 C.cat      1 <1>        0.000
      8 N4          3.8651    0.5595   -0.0450 N.pl3      1 <1>        0.000
      9 N5          4.2083   -1.3440    1.0907 N.pl3      1 <1>        0.000
     10 H          -0.4020   -3.0319   -0.9994 H.spc      1 <1>        0.000
     11 H          -0.4042   -3.2273    0.8016 H.spc      1 <1>        0.000
     12 H           1.8399   -3.5513    0.8980 H.spc      1 <1>        0.000
     13 H           1.3825   -4.3811   -0.6849 H.spc      1 <1>        0.000
     14 H          -0.7737   -0.9041   -0.2481 H.spc      1 <1>        0.000
     15 H           0.3821   -1.1037    1.1496 H.spc      1 <1>        0.000
     16 H           3.5171   -3.0568   -0.5782 H.spc      1 <1>        0.000
     17 H           2.3288   -2.7136   -1.9213 H.spc      1 <1>        0.000
     18 H           1.0177   -0.7669   -1.7677 H.spc      1 <1>        0.000
     19 H           1.3414    0.3869   -0.4030 H.spc      1 <1>        0.000
     20 H           4.6183    1.0127    0.4724 H.spc      1 <1>        0.000
     21 H           3.3486    1.0797   -0.7542 H.spc      1 <1>        0.000
     22 H           4.9597   -0.8813    1.6023 H.spc      1 <1>        0.000
@<TRIPOS>BOND
     1    7    8 ar 
     2    6    7 ar 
     3    5    6 1  
     4    3    5 1  
     5    7    9 ar 
     6    4    6 1  
     7    2    4 1  
     8    1    3 1  
     9    1    2 1  
    10    1   10 1  
    11    1   11 1  
    12    2   12 1  
    13    2   13 1  
    14    3   14 1  
    15    3   15 1  
    16    4   16 1  
    17    4   17 1  
    18    5   18 1  
    19    5   19 1  
    20    8   20 1  
    21    8   21 1  
    22    9   22 1  
# Name:          frag5-642-81/138278
# Creation time: Sat Jun  5 12:53:49 2010


@<TRIPOS>MOLECULE
frag5-642-81/138278
   22    22     1     1     1
SMALL
USER_CHARGES


@<TRIPOS>ATOM
      1 C14         0.1140   -2.8223   -0.6348 C.3        1 <1>        0.000
      2 C17         0.0402   -1.3202   -0.4662 C.3        1 <1>        0.000
      3 C18         1.5108   -3.3800   -0.6667 C.3        1 <1>        0.000
      4 C19         1.1955   -0.6417    0.2336 C.3        1 <1>        0.000
      5 C20         2.3308   -2.7218    0.4054 C.3        1 <1>        0.000
      6 N3          2.4667   -1.3066    0.2223 N.pl3      1 <1>        0.000
      7 C21         3.6647   -0.7066    0.0592 C.cat      1 <1>        0.000
      8 N4          3.6920    0.5434   -0.4017 N.pl3      1 <1>        0.000
      9 N5          4.7742   -1.2715    0.3269 N.pl3      1 <1>        0.000
     10 H          -0.3859   -3.2645    0.2270 H.spc      1 <1>        0.000
     11 H          -0.3450   -3.0580   -1.5949 H.spc      1 <1>        0.000
     12 H           0.0265   -0.9109   -1.4763 H.spc      1 <1>        0.000
     13 H          -0.8324   -1.1369    0.1607 H.spc      1 <1>        0.000
     14 H           1.4789   -4.4557   -0.4938 H.spc      1 <1>        0.000
     15 H           1.9596   -3.1861   -1.6409 H.spc      1 <1>        0.000
     16 H           1.3516    0.2944   -0.3026 H.spc      1 <1>        0.000
     17 H           0.9066   -0.5833    1.2830 H.spc      1 <1>        0.000
     18 H           1.8239   -2.8850    1.3564 H.spc      1 <1>        0.000
     19 H           3.3296   -3.1570    0.3718 H.spc      1 <1>        0.000
     20 H           4.5845    1.0200   -0.5307 H.spc      1 <1>        0.000
     21 H           2.8204    1.0236   -0.6255 H.spc      1 <1>        0.000
     22 H           5.6499   -0.7676    0.1869 H.spc      1 <1>        0.000
@<TRIPOS>BOND
     1    7    8 ar 
     2    6    7 ar 
     3    5    6 1  
     4    3    5 1  
     5    7    9 ar 
     6    4    6 1  
     7    2    4 1  
     8    1    3 1  
     9    1    2 1  
    10    1   10 1  
    11    1   11 1  
    12    2   12 1  
    13    2   13 1  
    14    3   14 1  
    15    3   15 1  
    16    4   16 1  
    17    4   17 1  
    18    5   18 1  
    19    5   19 1  
    20    8   20 1  
    21    8   21 1  
    22    9   22 1  
# Name:          frag5-642-81/138278 -- energy: -1.816740
# Creation time: Sat Jun  5 12:53:49 2010


@<TRIPOS>MOLECULE
frag5-642-81/138278 -- energy: -1.816740
   22    22     1     1     1
SMALL
USER_CHARGES


@<TRIPOS>ATOM
      1 C14        -0.0869   -2.7369   -0.2400 C.3        1 <1>        0.000
      2 C17         1.1672   -3.5183    0.0384 C.3        1 <1>        0.000
      3 C18         0.2886   -1.4864   -0.9734 C.3        1 <1>        0.000
      4 C19         2.4941   -2.7652   -0.0376 C.3        1 <1>        0.000
      5 C20         1.2824   -0.6401   -0.2213 C.3        1 <1>        0.000
      6 N3          2.5232   -1.3114   -0.0026 N.pl3      1 <1>        0.000
      7 C21         3.6725   -0.6302    0.1195 C.cat      1 <1>        0.000
      8 N4          3.6605    0.6169    0.5826 N.pl3      1 <1>        0.000
      9 N5          4.7870   -1.1557   -0.1877 N.pl3      1 <1>        0.000
     10 H          -0.7712   -3.3325   -0.8442 H.spc      1 <1>        0.000
     11 H          -0.5851   -2.4850    0.6962 H.spc      1 <1>        0.000
     12 H           1.0798   -3.8582    1.0704 H.spc      1 <1>        0.000
     13 H           1.2169   -4.2822   -0.7375 H.spc      1 <1>        0.000
     14 H           0.7486   -1.7798   -1.9170 H.spc      1 <1>        0.000
     15 H          -0.6172   -0.8951   -1.1078 H.spc      1 <1>        0.000
     16 H           3.0243   -3.0653    0.8662 H.spc      1 <1>        0.000
     17 H           2.8888   -3.0172   -1.0219 H.spc      1 <1>        0.000
     18 H           1.4837    0.2497   -0.8179 H.spc      1 <1>        0.000
     19 H           0.8528   -0.4050    0.7525 H.spc      1 <1>        0.000
     20 H           4.5353    1.1314    0.6848 H.spc      1 <1>        0.000
     21 H           2.7765    1.0585    0.8355 H.spc      1 <1>        0.000
     22 H           5.6497   -0.6228   -0.0775 H.spc      1 <1>        0.000
@<TRIPOS>BOND
     1    7    8 ar 
     2    6    7 ar 
     3    5    6 1  
     4    3    5 1  
     5    7    9 ar 
     6    4    6 1  
     7    2    4 1  
     8    1    3 1  
     9    1    2 1  
    10    1   10 1  
    11    1   11 1  
    12    2   12 1  
    13    2   13 1  
    14    3   14 1  
    15    3   15 1  
    16    4   16 1  
    17    4   17 1  
    18    5   18 1  
    19    5   19 1  
    20    8   20 1  
    21    8   21 1  
    22    9   22 1  
# Name:          frag5-642-81/138278 -- energy: -2.285868
# Creation time: Sat Jun  5 12:53:49 2010


@<TRIPOS>MOLECULE
frag5-642-81/138278 -- energy: -2.285868
   22    22     1     1     1
SMALL
USER_CHARGES


@<TRIPOS>ATOM
      1 C14         0.1142   -2.8152   -0.0642 C.3        1 <1>        0.000
      2 C17         1.4961   -3.4490   -0.1313 C.3        1 <1>        0.000
      3 C18         0.1765   -1.3097    0.0992 C.3        1 <1>        0.000
      4 C19         2.5459   -2.6468   -0.8552 C.3        1 <1>        0.000
      5 C20         1.2726   -0.6556   -0.7138 C.3        1 <1>        0.000
      6 N3          2.5530   -1.2594   -0.5070 N.pl3      1 <1>        0.000
      7 C21         3.5571   -0.7073    0.2047 C.cat      1 <1>        0.000
      8 N4          3.8651    0.5595   -0.0450 N.pl3      1 <1>        0.000
      9 N5          4.2083   -1.3440    1.0907 N.pl3      1 <1>        0.000
     10 H          -0.4020   -3.0319   -0.9994 H.spc      1 <1>        0.000
     11 H          -0.4042   -3.2273    0.8016 H.spc      1 <1>        0.000
     12 H           1.8399   -3.5513    0.8980 H.spc      1 <1>        0.000
     13 H           1.3825   -4.3811   -0.6849 H.spc      1 <1>        0.000
     14 H          -0.7737   -0.9041   -0.2481 H.spc      1 <1>        0.000
     15 H           0.3821   -1.1037    1.1496 H.spc      1 <1>        0.000
     16 H           3.5171   -3.0568   -0.5782 H.spc      1 <1>        0.000
     17 H           2.3288   -2.7136   -1.9213 H.spc      1 <1>        0.000
     18 H           1.0177   -0.7669   -1.7677 H.spc      1 <1>        0.000
     19 H           1.3414    0.3869   -0.4030 H.spc      1 <1>        0.000
     20 H           4.6183    1.0127    0.4724 H.spc      1 <1>        0.000
     21 H           3.3486    1.0797   -0.7542 H.spc      1 <1>        0.000
     22 H           4.9597   -0.8813    1.6023 H.spc      1 <1>        0.000
@<TRIPOS>BOND
     1    7    8 ar 
     2    6    7 ar 
     3    5    6 1  
     4    3    5 1  
     5    7    9 ar 
     6    4    6 1  
     7    2    4 1  
     8    1    3 1  
     9    1    2 1  
    10    1   10 1  
    11    1   11 1  
    12    2   12 1  
    13    2   13 1  
    14    3   14 1  
    15    3   15 1  
    16    4   16 1  
    17    4   17 1  
    18    5   18 1  
    19    5   19 1  
    20    8   20 1  
    21    8   21 1  
    22    9   22 1  
# Name:          frag5-642-81/138278 -- energy: 0.838568
# Creation time: Sat Jun  5 12:53:49 2010


@<TRIPOS>MOLECULE
frag5-642-81/138278 -- energy: 0.838568
   22    22     1     1     1
SMALL
USER_CHARGES


@<TRIPOS>ATOM
      1 C14         0.1140   -2.8223   -0.6348 C.3        1 <1>        0.000
      2 C17         0.0402   -1.3202   -0.4662 C.3        1 <1>        0.000
      3 C18         1.5108   -3.3800   -0.6667 C.3        1 <1>        0.000
      4 C19         1.1955   -0.6417    0.2336 C.3        1 <1>        0.000
      5 C20         2.3308   -2.7218    0.4054 C.3        1 <1>        0.000
      6 N3          2.4667   -1.3066    0.2223 N.pl3      1 <1>        0.000
      7 C21         3.6647   -0.7066    0.0592 C.cat      1 <1>        0.000
      8 N4          3.6920    0.5434   -0.4017 N.pl3      1 <1>        0.000
      9 N5          4.7742   -1.2715    0.3269 N.pl3      1 <1>        0.000
     10 H          -0.3859   -3.2645    0.2270 H.spc      1 <1>        0.000
     11 H          -0.3450   -3.0580   -1.5949 H.spc      1 <1>        0.000
     12 H           0.0265   -0.9109   -1.4763 H.spc      1 <1>        0.000
     13 H          -0.8324   -1.1369    0.1607 H.spc      1 <1>        0.000
     14 H           1.4789   -4.4557   -0.4938 H.spc      1 <1>        0.000
     15 H           1.9596   -3.1861   -1.6409 H.spc      1 <1>        0.000
     16 H           1.3516    0.2944   -0.3026 H.spc      1 <1>        0.000
     17 H           0.9066   -0.5833    1.2830 H.spc      1 <1>        0.000
     18 H           1.8239   -2.8850    1.3564 H.spc      1 <1>        0.000
     19 H           3.3296   -3.1570    0.3718 H.spc      1 <1>        0.000
     20 H           4.5845    1.0200   -0.5307 H.spc      1 <1>        0.000
     21 H           2.8204    1.0236   -0.6255 H.spc      1 <1>        0.000
     22 H           5.6499   -0.7676    0.1869 H.spc      1 <1>        0.000
@<TRIPOS>BOND
     1    7    8 ar 
     2    6    7 ar 
     3    5    6 1  
     4    3    5 1  
     5    7    9 ar 
     6    4    6 1  
     7    2    4 1  
     8    1    3 1  
     9    1    2 1  
    10    1   10 1  
    11    1   11 1  
    12    2   12 1  
    13    2   13 1  
    14    3   14 1  
    15    3   15 1  
    16    4   16 1  
    17    4   17 1  
    18    5   18 1  
    19    5   19 1  
    20    8   20 1  
    21    8   21 1  
    22    9   22 1  
