#      Rotatable Fragment
#      Build by yxyuan
#
# Name:          frag5-544-68/41815
# Creation time: Sat Jun  5 12:52:52 2010


@<TRIPOS>MOLECULE
frag5-544-68/41815
   17    18     1     1     1
SMALL
USER_CHARGES


@<TRIPOS>ATOM
      1 O1         -0.3227    1.6020    0.1512 O.3        1 <1>        0.000
      2 C6          1.0410    1.5683    0.1339 C.3        1 <1>        0.000
      3 C7          1.7699    0.6691    1.0183 C.2        1 <1>        0.000
      4 C8          3.1048    0.6207    1.0722 C.2        1 <1>        0.000
      5 C9          3.8775    1.5183    0.1333 C.2        1 <1>        0.000
      6 N1          5.1474    1.3061    0.3659 N.2        1 <1>        0.000
      7 C10         5.2843    0.3539    1.3683 C.2        1 <1>        0.000
      8 C11         4.0874   -0.0734    1.8039 C.2        1 <1>        0.000
      9 C15         3.1955    2.3973   -0.7964 C.2        1 <1>        0.000
     10 C16         1.8456    2.3830   -0.7756 C.2        1 <1>        0.000
     11 H          -0.6482    0.9941    0.8191 H.spc      1 <1>        0.000
     12 H           0.1465    2.1900    0.1719 H.spc      1 <1>        0.000
     13 H           1.1998    0.0041    1.6670 H.spc      1 <1>        0.000
     14 H           6.2407   -0.0011    1.7523 H.spc      1 <1>        0.000
     15 H           3.9100   -0.8186    2.5793 H.spc      1 <1>        0.000
     16 H           3.7477    3.0407   -1.4813 H.spc      1 <1>        0.000
     17 H           1.3198    3.0221   -1.4849 H.spc      1 <1>        0.000
@<TRIPOS>BOND
     1    6    7 1  
     2    9   10 2  
     3    7    8 2  
     4    1    2 1  
     5    2    3 1  
     6    2   10 1  
     7    3    4 2  
     8    4    5 1  
     9    4    8 1  
    10    5    6 2  
    11    5    9 1  
    12    1   11 1  
    13    2   12 1  
    14    3   13 1  
    15    7   14 1  
    16    8   15 1  
    17    9   16 1  
    18   10   17 1  
# Name:          frag5-544-68/41815 -- energy: 1.834303
# Creation time: Sat Jun  5 12:52:52 2010


@<TRIPOS>MOLECULE
frag5-544-68/41815 -- energy: 1.834303
   17    18     1     1     1
SMALL
USER_CHARGES


@<TRIPOS>ATOM
      1 O1         -0.3227    1.6020    0.1512 O.3        1 <1>        0.000
      2 C6          1.0410    1.5683    0.1339 C.3        1 <1>        0.000
      3 C7          1.7699    0.6691    1.0183 C.2        1 <1>        0.000
      4 C8          3.1048    0.6207    1.0722 C.2        1 <1>        0.000
      5 C9          3.8775    1.5183    0.1333 C.2        1 <1>        0.000
      6 N1          5.1474    1.3061    0.3659 N.2        1 <1>        0.000
      7 C10         5.2843    0.3539    1.3683 C.2        1 <1>        0.000
      8 C11         4.0874   -0.0734    1.8039 C.2        1 <1>        0.000
      9 C15         3.1955    2.3973   -0.7964 C.2        1 <1>        0.000
     10 C16         1.8456    2.3830   -0.7756 C.2        1 <1>        0.000
     11 H          -0.6482    0.9941    0.8191 H.spc      1 <1>        0.000
     12 H           0.1465    2.1900    0.1719 H.spc      1 <1>        0.000
     13 H           1.1998    0.0041    1.6670 H.spc      1 <1>        0.000
     14 H           6.2407   -0.0011    1.7523 H.spc      1 <1>        0.000
     15 H           3.9100   -0.8186    2.5793 H.spc      1 <1>        0.000
     16 H           3.7477    3.0407   -1.4813 H.spc      1 <1>        0.000
     17 H           1.3198    3.0221   -1.4849 H.spc      1 <1>        0.000
@<TRIPOS>BOND
     1    6    7 1  
     2    9   10 2  
     3    7    8 2  
     4    1    2 1  
     5    2    3 1  
     6    2   10 1  
     7    3    4 2  
     8    4    5 1  
     9    4    8 1  
    10    5    6 2  
    11    5    9 1  
    12    1   11 1  
    13    2   12 1  
    14    3   13 1  
    15    7   14 1  
    16    8   15 1  
    17    9   16 1  
    18   10   17 1  
