#      Rotatable Fragment
#      Build by yxyuan
#
# Name:          frag3-153-22/96164
# Creation time: Sat Jun  5 12:53:06 2010


@<TRIPOS>MOLECULE
frag3-153-22/96164
   10     9     1     1     1
SMALL
USER_CHARGES


@<TRIPOS>ATOM
      1 C1          1.4621   -0.1007   -0.1144 C.2        1 <1>        0.000
      2 C2          0.2622    0.4423    0.1299 C.2        1 <1>        0.000
      3 C5         -1.0458   -0.2275   -0.0515 C.2        1 <1>        0.000
      4 N1         -1.4045   -1.3636    0.4041 N.2        1 <1>        0.000
      5 O1         -0.3848   -1.9019    1.1978 O.3        1 <1>        0.000
      6 H           1.5324   -1.1248   -0.4808 H.spc      1 <1>        0.000
      7 H           2.3682    0.4816    0.0532 H.spc      1 <1>        0.000
      8 H           0.2474    1.4692    0.4949 H.spc      1 <1>        0.000
      9 H          -1.7867    0.3118   -0.6417 H.spc      1 <1>        0.000
     10 H          -0.6619   -2.7562    1.5368 H.spc      1 <1>        0.000
@<TRIPOS>BOND
     1    1    2 2  
     2    2    3 1  
     3    3    4 2  
     4    4    5 1  
     5    1    6 1  
     6    1    7 1  
     7    2    8 1  
     8    3    9 1  
     9    5   10 1  
# Name:          frag3-153-22/96164
# Creation time: Sat Jun  5 12:53:06 2010


@<TRIPOS>MOLECULE
frag3-153-22/96164
   10     9     1     1     1
SMALL
USER_CHARGES


@<TRIPOS>ATOM
      1 C1          1.4383    0.6378   -0.4691 C.2        1 <1>        0.000
      2 C2          0.5926   -0.0560    0.2861 C.2        1 <1>        0.000
      3 C5         -0.8049   -0.3610   -0.0738 C.2        1 <1>        0.000
      4 N1         -1.4862   -1.3257    0.4223 N.2        1 <1>        0.000
      5 O1         -0.8506   -2.0465    1.4004 O.3        1 <1>        0.000
      6 H           1.1135    1.0280   -1.4337 H.spc      1 <1>        0.000
      7 H           2.4566    0.8166   -0.1238 H.spc      1 <1>        0.000
      8 H           0.9593   -0.4274    1.2430 H.spc      1 <1>        0.000
      9 H          -1.2907    0.2775   -0.8116 H.spc      1 <1>        0.000
     10 H          -1.4324   -2.7438    1.7116 H.spc      1 <1>        0.000
@<TRIPOS>BOND
     1    1    2 2  
     2    2    3 1  
     3    3    4 2  
     4    4    5 1  
     5    1    6 1  
     6    1    7 1  
     7    2    8 1  
     8    3    9 1  
     9    5   10 1  
# Name:          frag3-153-22/96164 -- energy: -0.307150
# Creation time: Sat Jun  5 12:53:06 2010


@<TRIPOS>MOLECULE
frag3-153-22/96164 -- energy: -0.307150
   10     9     1     1     1
SMALL
USER_CHARGES


@<TRIPOS>ATOM
      1 C1          1.4621   -0.1007   -0.1144 C.2        1 <1>        0.000
      2 C2          0.2622    0.4423    0.1299 C.2        1 <1>        0.000
      3 C5         -1.0458   -0.2275   -0.0515 C.2        1 <1>        0.000
      4 N1         -1.4045   -1.3636    0.4041 N.2        1 <1>        0.000
      5 O1         -0.3848   -1.9019    1.1978 O.3        1 <1>        0.000
      6 H           1.5324   -1.1248   -0.4808 H.spc      1 <1>        0.000
      7 H           2.3682    0.4816    0.0532 H.spc      1 <1>        0.000
      8 H           0.2474    1.4692    0.4949 H.spc      1 <1>        0.000
      9 H          -1.7867    0.3118   -0.6417 H.spc      1 <1>        0.000
     10 H          -0.6619   -2.7562    1.5368 H.spc      1 <1>        0.000
@<TRIPOS>BOND
     1    1    2 2  
     2    2    3 1  
     3    3    4 2  
     4    4    5 1  
     5    1    6 1  
     6    1    7 1  
     7    2    8 1  
     8    3    9 1  
     9    5   10 1  
# Name:          frag3-153-22/96164 -- energy: -0.275890
# Creation time: Sat Jun  5 12:53:06 2010


@<TRIPOS>MOLECULE
frag3-153-22/96164 -- energy: -0.275890
   10     9     1     1     1
SMALL
USER_CHARGES


@<TRIPOS>ATOM
      1 C1          1.4383    0.6378   -0.4691 C.2        1 <1>        0.000
      2 C2          0.5926   -0.0560    0.2861 C.2        1 <1>        0.000
      3 C5         -0.8049   -0.3610   -0.0738 C.2        1 <1>        0.000
      4 N1         -1.4862   -1.3257    0.4223 N.2        1 <1>        0.000
      5 O1         -0.8506   -2.0465    1.4004 O.3        1 <1>        0.000
      6 H           1.1135    1.0280   -1.4337 H.spc      1 <1>        0.000
      7 H           2.4566    0.8166   -0.1238 H.spc      1 <1>        0.000
      8 H           0.9593   -0.4274    1.2430 H.spc      1 <1>        0.000
      9 H          -1.2907    0.2775   -0.8116 H.spc      1 <1>        0.000
     10 H          -1.4324   -2.7438    1.7116 H.spc      1 <1>        0.000
@<TRIPOS>BOND
     1    1    2 2  
     2    2    3 1  
     3    3    4 2  
     4    4    5 1  
     5    1    6 1  
     6    1    7 1  
     7    2    8 1  
     8    3    9 1  
     9    5   10 1  
