#      Rotatable Fragment
#      Build by yxyuan
#
# Name:          frag5-599-110/138278
# Creation time: Sat Jun  5 12:53:46 2010


@<TRIPOS>MOLECULE
frag5-599-110/138278
   17    17     1     1     1
SMALL
USER_CHARGES


@<TRIPOS>ATOM
      1 N1          2.3683   -1.9716    0.3537 N.am       1 <1>        0.000
      2 C8          1.8334   -0.6842    0.4781 C.2        1 <1>        0.000
      3 C9          0.3696   -0.4412    0.2176 C.ar       1 <1>        0.000
      4 O2          2.5102    0.2911    0.8011 O.2        1 <1>        0.000
      5 C10        -0.0727    0.8664   -0.1374 C.ar       1 <1>        0.000
      6 C11        -0.5541   -1.4900    0.3177 C.ar       1 <1>        0.000
      7 C12        -1.4824    1.0325   -0.3778 C.ar       1 <1>        0.000
      8 O3          0.7604    1.9186   -0.2554 O.3        1 <1>        0.000
      9 C13        -1.9290   -1.2776    0.0717 C.ar       1 <1>        0.000
     10 C14        -2.3973   -0.0118   -0.2778 C.ar       1 <1>        0.000
     11 H           3.3594   -2.1316    0.5337 H.spc      1 <1>        0.000
     12 H           1.7670   -2.7498    0.0830 H.spc      1 <1>        0.000
     13 H          -0.2061   -2.4864    0.5899 H.spc      1 <1>        0.000
     14 H          -1.8502    2.0216   -0.6507 H.spc      1 <1>        0.000
     15 H           0.2568    2.6981   -0.5009 H.spc      1 <1>        0.000
     16 H          -2.6286   -2.1092    0.1557 H.spc      1 <1>        0.000
     17 H          -3.4572    0.1565   -0.4687 H.spc      1 <1>        0.000
@<TRIPOS>BOND
     1    7   10 ar 
     2    9   10 ar 
     3    1    2 am 
     4    2    3 1  
     5    2    4 2  
     6    3    5 ar 
     7    3    6 ar 
     8    5    7 ar 
     9    5    8 1  
    10    6    9 ar 
    11    1   11 1  
    12    1   12 1  
    13    6   13 1  
    14    7   14 1  
    15    8   15 1  
    16    9   16 1  
    17   10   17 1  
# Name:          frag5-599-110/138278
# Creation time: Sat Jun  5 12:53:46 2010


@<TRIPOS>MOLECULE
frag5-599-110/138278
   17    17     1     1     1
SMALL
USER_CHARGES


@<TRIPOS>ATOM
      1 N1          2.2706   -1.4884    1.4613 N.am       1 <1>        0.000
      2 C8          1.8417   -0.7041    0.3747 C.2        1 <1>        0.000
      3 C9          0.3801   -0.4549    0.1468 C.ar       1 <1>        0.000
      4 O2          2.6300   -0.1909   -0.4190 O.2        1 <1>        0.000
      5 C10        -0.1030    0.8827    0.0773 C.ar       1 <1>        0.000
      6 C11        -0.5120   -1.5260   -0.0018 C.ar       1 <1>        0.000
      7 C12        -1.5143    1.0621   -0.1453 C.ar       1 <1>        0.000
      8 O3          0.7011    1.9606    0.2107 O.3        1 <1>        0.000
      9 C13        -1.8917   -1.3035   -0.2206 C.ar       1 <1>        0.000
     10 C14        -2.3960   -0.0052   -0.2925 C.ar       1 <1>        0.000
     11 H           3.2665   -1.6486    1.6130 H.spc      1 <1>        0.000
     12 H           1.5857   -1.8968    2.0973 H.spc      1 <1>        0.000
     13 H          -0.1361   -2.5477    0.0522 H.spc      1 <1>        0.000
     14 H          -1.9090    2.0766   -0.2009 H.spc      1 <1>        0.000
     15 H           0.1771    2.7611    0.1318 H.spc      1 <1>        0.000
     16 H          -2.5655   -2.1528   -0.3338 H.spc      1 <1>        0.000
     17 H          -3.4586    0.1702   -0.4605 H.spc      1 <1>        0.000
@<TRIPOS>BOND
     1    7   10 ar 
     2    9   10 ar 
     3    1    2 am 
     4    2    3 1  
     5    2    4 2  
     6    3    5 ar 
     7    3    6 ar 
     8    5    7 ar 
     9    5    8 1  
    10    6    9 ar 
    11    1   11 1  
    12    1   12 1  
    13    6   13 1  
    14    7   14 1  
    15    8   15 1  
    16    9   16 1  
    17   10   17 1  
# Name:          frag5-599-110/138278
# Creation time: Sat Jun  5 12:53:46 2010


@<TRIPOS>MOLECULE
frag5-599-110/138278
   17    17     1     1     1
SMALL
USER_CHARGES


@<TRIPOS>ATOM
      1 N1          2.5303   -0.0567    1.4064 N.am       1 <1>        0.000
      2 C8          1.8256   -0.7442    0.3966 C.2        1 <1>        0.000
      3 C9          0.3706   -0.4732    0.1667 C.ar       1 <1>        0.000
      4 O2          2.3672   -1.5762   -0.3306 O.2        1 <1>        0.000
      5 C10        -0.0785    0.8678    0.0049 C.ar       1 <1>        0.000
      6 C11        -0.5527   -1.5269    0.1052 C.ar       1 <1>        0.000
      7 C12        -1.4866    1.0718   -0.2165 C.ar       1 <1>        0.000
      8 O3          0.7576    1.9307    0.0509 O.3        1 <1>        0.000
      9 C13        -1.9287   -1.2822   -0.1153 C.ar       1 <1>        0.000
     10 C14        -2.3984    0.0213   -0.2767 C.ar       1 <1>        0.000
     11 H           3.5224   -0.2427    1.5529 H.spc      1 <1>        0.000
     12 H           2.0478    0.6265    1.9902 H.spc      1 <1>        0.000
     13 H          -0.2043   -2.5522    0.2294 H.spc      1 <1>        0.000
     14 H          -1.8537    2.0904   -0.3421 H.spc      1 <1>        0.000
     15 H           0.2548    2.7379   -0.0805 H.spc      1 <1>        0.000
     16 H          -2.6267   -2.1182   -0.1594 H.spc      1 <1>        0.000
     17 H          -3.4578    0.2136   -0.4465 H.spc      1 <1>        0.000
@<TRIPOS>BOND
     1    7   10 ar 
     2    9   10 ar 
     3    1    2 am 
     4    2    3 1  
     5    2    4 2  
     6    3    5 ar 
     7    3    6 ar 
     8    5    7 ar 
     9    5    8 1  
    10    6    9 ar 
    11    1   11 1  
    12    1   12 1  
    13    6   13 1  
    14    7   14 1  
    15    8   15 1  
    16    9   16 1  
    17   10   17 1  
# Name:          frag5-599-110/138278
# Creation time: Sat Jun  5 12:53:46 2010


@<TRIPOS>MOLECULE
frag5-599-110/138278
   17    17     1     1     1
SMALL
USER_CHARGES


@<TRIPOS>ATOM
      1 N1          2.7801   -0.4166   -0.4088 N.am       1 <1>        0.000
      2 C8          1.8063   -0.7004    0.5651 C.2        1 <1>        0.000
      3 C9          0.3542   -0.4410    0.2842 C.ar       1 <1>        0.000
      4 O2          2.0899   -1.1678    1.6667 O.2        1 <1>        0.000
      5 C10        -0.0308    0.7732   -0.3531 C.ar       1 <1>        0.000
      6 C11        -0.6221   -1.3826    0.6377 C.ar       1 <1>        0.000
      7 C12        -1.4356    0.9673   -0.6021 C.ar       1 <1>        0.000
      8 O3          0.8573    1.7220   -0.7211 O.3        1 <1>        0.000
      9 C13        -1.9915   -1.1504    0.3724 C.ar       1 <1>        0.000
     10 C14        -2.4014    0.0286   -0.2495 C.ar       1 <1>        0.000
     11 H           3.7647   -0.5982   -0.2136 H.spc      1 <1>        0.000
     12 H           2.5019   -0.0292   -1.3104 H.spc      1 <1>        0.000
     13 H          -0.3206   -2.3096    1.1254 H.spc      1 <1>        0.000
     14 H          -1.7568    1.8889   -1.0876 H.spc      1 <1>        0.000
     15 H           0.3905    2.4539   -1.1309 H.spc      1 <1>        0.000
     16 H          -2.7320   -1.8983    0.6560 H.spc      1 <1>        0.000
     17 H          -3.4561    0.2114   -0.4553 H.spc      1 <1>        0.000
@<TRIPOS>BOND
     1    7   10 ar 
     2    9   10 ar 
     3    1    2 am 
     4    2    3 1  
     5    2    4 2  
     6    3    5 ar 
     7    3    6 ar 
     8    5    7 ar 
     9    5    8 1  
    10    6    9 ar 
    11    1   11 1  
    12    1   12 1  
    13    6   13 1  
    14    7   14 1  
    15    8   15 1  
    16    9   16 1  
    17   10   17 1  
# Name:          frag5-599-110/138278 -- energy: -0.509976
# Creation time: Sat Jun  5 12:53:46 2010


@<TRIPOS>MOLECULE
frag5-599-110/138278 -- energy: -0.509976
   17    17     1     1     1
SMALL
USER_CHARGES


@<TRIPOS>ATOM
      1 N1          2.3683   -1.9716    0.3537 N.am       1 <1>        0.000
      2 C8          1.8334   -0.6842    0.4781 C.2        1 <1>        0.000
      3 C9          0.3696   -0.4412    0.2176 C.ar       1 <1>        0.000
      4 O2          2.5102    0.2911    0.8011 O.2        1 <1>        0.000
      5 C10        -0.0727    0.8664   -0.1374 C.ar       1 <1>        0.000
      6 C11        -0.5541   -1.4900    0.3177 C.ar       1 <1>        0.000
      7 C12        -1.4824    1.0325   -0.3778 C.ar       1 <1>        0.000
      8 O3          0.7604    1.9186   -0.2554 O.3        1 <1>        0.000
      9 C13        -1.9290   -1.2776    0.0717 C.ar       1 <1>        0.000
     10 C14        -2.3973   -0.0118   -0.2778 C.ar       1 <1>        0.000
     11 H           3.3594   -2.1316    0.5337 H.spc      1 <1>        0.000
     12 H           1.7670   -2.7498    0.0830 H.spc      1 <1>        0.000
     13 H          -0.2061   -2.4864    0.5899 H.spc      1 <1>        0.000
     14 H          -1.8502    2.0216   -0.6507 H.spc      1 <1>        0.000
     15 H           0.2568    2.6981   -0.5009 H.spc      1 <1>        0.000
     16 H          -2.6286   -2.1092    0.1557 H.spc      1 <1>        0.000
     17 H          -3.4572    0.1565   -0.4687 H.spc      1 <1>        0.000
@<TRIPOS>BOND
     1    7   10 ar 
     2    9   10 ar 
     3    1    2 am 
     4    2    3 1  
     5    2    4 2  
     6    3    5 ar 
     7    3    6 ar 
     8    5    7 ar 
     9    5    8 1  
    10    6    9 ar 
    11    1   11 1  
    12    1   12 1  
    13    6   13 1  
    14    7   14 1  
    15    8   15 1  
    16    9   16 1  
    17   10   17 1  
# Name:          frag5-599-110/138278 -- energy: -0.993554
# Creation time: Sat Jun  5 12:53:46 2010


@<TRIPOS>MOLECULE
frag5-599-110/138278 -- energy: -0.993554
   17    17     1     1     1
SMALL
USER_CHARGES


@<TRIPOS>ATOM
      1 N1          2.2706   -1.4884    1.4613 N.am       1 <1>        0.000
      2 C8          1.8417   -0.7041    0.3747 C.2        1 <1>        0.000
      3 C9          0.3801   -0.4549    0.1468 C.ar       1 <1>        0.000
      4 O2          2.6300   -0.1909   -0.4190 O.2        1 <1>        0.000
      5 C10        -0.1030    0.8827    0.0773 C.ar       1 <1>        0.000
      6 C11        -0.5120   -1.5260   -0.0018 C.ar       1 <1>        0.000
      7 C12        -1.5143    1.0621   -0.1453 C.ar       1 <1>        0.000
      8 O3          0.7011    1.9606    0.2107 O.3        1 <1>        0.000
      9 C13        -1.8917   -1.3035   -0.2206 C.ar       1 <1>        0.000
     10 C14        -2.3960   -0.0052   -0.2925 C.ar       1 <1>        0.000
     11 H           3.2665   -1.6486    1.6130 H.spc      1 <1>        0.000
     12 H           1.5857   -1.8968    2.0973 H.spc      1 <1>        0.000
     13 H          -0.1361   -2.5477    0.0522 H.spc      1 <1>        0.000
     14 H          -1.9090    2.0766   -0.2009 H.spc      1 <1>        0.000
     15 H           0.1771    2.7611    0.1318 H.spc      1 <1>        0.000
     16 H          -2.5655   -2.1528   -0.3338 H.spc      1 <1>        0.000
     17 H          -3.4586    0.1702   -0.4605 H.spc      1 <1>        0.000
@<TRIPOS>BOND
     1    7   10 ar 
     2    9   10 ar 
     3    1    2 am 
     4    2    3 1  
     5    2    4 2  
     6    3    5 ar 
     7    3    6 ar 
     8    5    7 ar 
     9    5    8 1  
    10    6    9 ar 
    11    1   11 1  
    12    1   12 1  
    13    6   13 1  
    14    7   14 1  
    15    8   15 1  
    16    9   16 1  
    17   10   17 1  
# Name:          frag5-599-110/138278 -- energy: -1.043188
# Creation time: Sat Jun  5 12:53:46 2010


@<TRIPOS>MOLECULE
frag5-599-110/138278 -- energy: -1.043188
   17    17     1     1     1
SMALL
USER_CHARGES


@<TRIPOS>ATOM
      1 N1          2.5303   -0.0567    1.4064 N.am       1 <1>        0.000
      2 C8          1.8256   -0.7442    0.3966 C.2        1 <1>        0.000
      3 C9          0.3706   -0.4732    0.1667 C.ar       1 <1>        0.000
      4 O2          2.3672   -1.5762   -0.3306 O.2        1 <1>        0.000
      5 C10        -0.0785    0.8678    0.0049 C.ar       1 <1>        0.000
      6 C11        -0.5527   -1.5269    0.1052 C.ar       1 <1>        0.000
      7 C12        -1.4866    1.0718   -0.2165 C.ar       1 <1>        0.000
      8 O3          0.7576    1.9307    0.0509 O.3        1 <1>        0.000
      9 C13        -1.9287   -1.2822   -0.1153 C.ar       1 <1>        0.000
     10 C14        -2.3984    0.0213   -0.2767 C.ar       1 <1>        0.000
     11 H           3.5224   -0.2427    1.5529 H.spc      1 <1>        0.000
     12 H           2.0478    0.6265    1.9902 H.spc      1 <1>        0.000
     13 H          -0.2043   -2.5522    0.2294 H.spc      1 <1>        0.000
     14 H          -1.8537    2.0904   -0.3421 H.spc      1 <1>        0.000
     15 H           0.2548    2.7379   -0.0805 H.spc      1 <1>        0.000
     16 H          -2.6267   -2.1182   -0.1594 H.spc      1 <1>        0.000
     17 H          -3.4578    0.2136   -0.4465 H.spc      1 <1>        0.000
@<TRIPOS>BOND
     1    7   10 ar 
     2    9   10 ar 
     3    1    2 am 
     4    2    3 1  
     5    2    4 2  
     6    3    5 ar 
     7    3    6 ar 
     8    5    7 ar 
     9    5    8 1  
    10    6    9 ar 
    11    1   11 1  
    12    1   12 1  
    13    6   13 1  
    14    7   14 1  
    15    8   15 1  
    16    9   16 1  
    17   10   17 1  
# Name:          frag5-599-110/138278 -- energy: -0.965863
# Creation time: Sat Jun  5 12:53:46 2010


@<TRIPOS>MOLECULE
frag5-599-110/138278 -- energy: -0.965863
   17    17     1     1     1
SMALL
USER_CHARGES


@<TRIPOS>ATOM
      1 N1          2.7801   -0.4166   -0.4088 N.am       1 <1>        0.000
      2 C8          1.8063   -0.7004    0.5651 C.2        1 <1>        0.000
      3 C9          0.3542   -0.4410    0.2842 C.ar       1 <1>        0.000
      4 O2          2.0899   -1.1678    1.6667 O.2        1 <1>        0.000
      5 C10        -0.0308    0.7732   -0.3531 C.ar       1 <1>        0.000
      6 C11        -0.6221   -1.3826    0.6377 C.ar       1 <1>        0.000
      7 C12        -1.4356    0.9673   -0.6021 C.ar       1 <1>        0.000
      8 O3          0.8573    1.7220   -0.7211 O.3        1 <1>        0.000
      9 C13        -1.9915   -1.1504    0.3724 C.ar       1 <1>        0.000
     10 C14        -2.4014    0.0286   -0.2495 C.ar       1 <1>        0.000
     11 H           3.7647   -0.5982   -0.2136 H.spc      1 <1>        0.000
     12 H           2.5019   -0.0292   -1.3104 H.spc      1 <1>        0.000
     13 H          -0.3206   -2.3096    1.1254 H.spc      1 <1>        0.000
     14 H          -1.7568    1.8889   -1.0876 H.spc      1 <1>        0.000
     15 H           0.3905    2.4539   -1.1309 H.spc      1 <1>        0.000
     16 H          -2.7320   -1.8983    0.6560 H.spc      1 <1>        0.000
     17 H          -3.4561    0.2114   -0.4553 H.spc      1 <1>        0.000
@<TRIPOS>BOND
     1    7   10 ar 
     2    9   10 ar 
     3    1    2 am 
     4    2    3 1  
     5    2    4 2  
     6    3    5 ar 
     7    3    6 ar 
     8    5    7 ar 
     9    5    8 1  
    10    6    9 ar 
    11    1   11 1  
    12    1   12 1  
    13    6   13 1  
    14    7   14 1  
    15    8   15 1  
    16    9   16 1  
    17   10   17 1  
