#      Rotatable Fragment
#      Build by yxyuan
#
# Name:          frag3-207-8/96164
# Creation time: Sat Jun  5 12:53:10 2010


@<TRIPOS>MOLECULE
frag3-207-8/96164
   13    12     1     1     1
SMALL
USER_CHARGES


@<TRIPOS>ATOM
      1 C4         -2.9250    0.3144   -0.1495 C.2        1 <1>        0.000
      2 N2         -1.6429    0.4493    0.3334 N.am       1 <1>        0.000
      3 O2         -3.3291   -0.1703   -1.2046 O.2        1 <1>        0.000
      4 C9         -1.1553    0.9088    1.4980 C.2        1 <1>        0.000
      5 C13         0.0977    0.9616    1.9503 C.2        1 <1>        0.000
      6 O4          1.3702    0.6374    1.5341 O.3        1 <1>        0.000
      7 C22         1.4396    0.1291    0.2727 C.2        1 <1>        0.000
      8 O5          0.5743   -0.2420   -0.5203 O.2        1 <1>        0.000
      9 H          -3.7054    0.6981    0.5076 H.spc      1 <1>        0.000
     10 H          -0.9232    0.1403   -0.3200 H.spc      1 <1>        0.000
     11 H          -1.9056    1.3020    2.1840 H.spc      1 <1>        0.000
     12 H           0.1228    1.3909    2.9519 H.spc      1 <1>        0.000
     13 H           2.4564    0.0323   -0.1078 H.spc      1 <1>        0.000
@<TRIPOS>BOND
     1    1    2 am 
     2    1    3 2  
     3    2    4 1  
     4    4    5 2  
     5    5    6 1  
     6    6    7 1  
     7    7    8 2  
     8    1    9 1  
     9    2   10 1  
    10    4   11 1  
    11    5   12 1  
    12    7   13 1  
# Name:          frag3-207-8/96164
# Creation time: Sat Jun  5 12:53:10 2010


@<TRIPOS>MOLECULE
frag3-207-8/96164
   13    12     1     1     1
SMALL
USER_CHARGES


@<TRIPOS>ATOM
      1 C4         -2.6494    0.2217   -0.6740 C.2        1 <1>        0.000
      2 N2         -1.5201    0.6718   -0.0626 N.am       1 <1>        0.000
      3 O2         -3.6968   -0.2228   -0.2349 O.2        1 <1>        0.000
      4 C9         -1.2117    0.9179    1.2284 C.2        1 <1>        0.000
      5 C13        -0.0651    0.8218    1.9166 C.2        1 <1>        0.000
      6 O4          1.2378    0.4335    1.7161 O.3        1 <1>        0.000
      7 C22         1.4764    0.0404    0.4397 C.2        1 <1>        0.000
      8 O5          0.8585    0.1042   -0.6153 O.2        1 <1>        0.000
      9 H          -2.6105    0.2670   -1.7624 H.spc      1 <1>        0.000
     10 H          -0.7538    0.8610   -0.7086 H.spc      1 <1>        0.000
     11 H          -2.0567    1.2603    1.8257 H.spc      1 <1>        0.000
     12 H          -0.2101    1.1510    2.9455 H.spc      1 <1>        0.000
     13 H           2.4452   -0.4462    0.3271 H.spc      1 <1>        0.000
@<TRIPOS>BOND
     1    1    2 am 
     2    1    3 2  
     3    2    4 1  
     4    4    5 2  
     5    5    6 1  
     6    6    7 1  
     7    7    8 2  
     8    1    9 1  
     9    2   10 1  
    10    4   11 1  
    11    5   12 1  
    12    7   13 1  
# Name:          frag3-207-8/96164
# Creation time: Sat Jun  5 12:53:10 2010


@<TRIPOS>MOLECULE
frag3-207-8/96164
   13    12     1     1     1
SMALL
USER_CHARGES


@<TRIPOS>ATOM
      1 C4         -2.5555    0.2043   -0.1260 C.2        1 <1>        0.000
      2 N2         -2.1962    1.2735    0.6498 N.am       1 <1>        0.000
      3 O2         -1.9808   -0.8164   -0.4819 O.2        1 <1>        0.000
      4 C9         -1.0977    1.5450    1.4152 C.2        1 <1>        0.000
      5 C13         0.0101    0.8391    1.7037 C.2        1 <1>        0.000
      6 O4          0.4237   -0.4096    1.3163 O.3        1 <1>        0.000
      7 C22         0.9076   -0.2798    0.0330 C.2        1 <1>        0.000
      8 O5          0.9185    0.6323   -0.7960 O.2        1 <1>        0.000
      9 H          -3.5731    0.2776   -0.5097 H.spc      1 <1>        0.000
     10 H          -2.8909    2.0203    0.6580 H.spc      1 <1>        0.000
     11 H          -1.1243    2.5282    1.8850 H.spc      1 <1>        0.000
     12 H           0.7062    1.3534    2.3664 H.spc      1 <1>        0.000
     13 H           1.3889   -1.1875   -0.3310 H.spc      1 <1>        0.000
@<TRIPOS>BOND
     1    1    2 am 
     2    1    3 2  
     3    2    4 1  
     4    4    5 2  
     5    5    6 1  
     6    6    7 1  
     7    7    8 2  
     8    1    9 1  
     9    2   10 1  
    10    4   11 1  
    11    5   12 1  
    12    7   13 1  
# Name:          frag3-207-8/96164
# Creation time: Sat Jun  5 12:53:10 2010


@<TRIPOS>MOLECULE
frag3-207-8/96164
   13    12     1     1     1
SMALL
USER_CHARGES


@<TRIPOS>ATOM
      1 C4         -3.1655   -0.1209   -0.0054 C.2        1 <1>        0.000
      2 N2         -2.1501    0.0437    0.8919 N.am       1 <1>        0.000
      3 O2         -3.5889    0.6296   -0.8748 O.2        1 <1>        0.000
      4 C9         -1.3990    1.1497    1.1252 C.2        1 <1>        0.000
      5 C13        -0.0749    1.1722    1.3207 C.2        1 <1>        0.000
      6 O4          0.8015    0.1314    1.3004 O.3        1 <1>        0.000
      7 C22         1.5135    0.3087    0.1558 C.2        1 <1>        0.000
      8 O5          2.4930   -0.3259   -0.1998 O.2        1 <1>        0.000
      9 H          -3.6842   -1.0771    0.0635 H.spc      1 <1>        0.000
     10 H          -1.9264   -0.7719    1.4621 H.spc      1 <1>        0.000
     11 H          -1.9211    2.1060    1.1562 H.spc      1 <1>        0.000
     12 H           0.3577    2.1521    1.5225 H.spc      1 <1>        0.000
     13 H           1.1742    1.0995   -0.5133 H.spc      1 <1>        0.000
@<TRIPOS>BOND
     1    1    2 am 
     2    1    3 2  
     3    2    4 1  
     4    4    5 2  
     5    5    6 1  
     6    6    7 1  
     7    7    8 2  
     8    1    9 1  
     9    2   10 1  
    10    4   11 1  
    11    5   12 1  
    12    7   13 1  
# Name:          frag3-207-8/96164
# Creation time: Sat Jun  5 12:53:10 2010


@<TRIPOS>MOLECULE
frag3-207-8/96164
   13    12     1     1     1
SMALL
USER_CHARGES


@<TRIPOS>ATOM
      1 C4         -2.7067    0.4756   -0.3896 C.2        1 <1>        0.000
      2 N2         -2.4909    0.3083    0.9628 N.am       1 <1>        0.000
      3 O2         -3.7265    0.4854   -1.0626 O.2        1 <1>        0.000
      4 C9         -1.3048    0.3857    1.6358 C.2        1 <1>        0.000
      5 C13        -0.0267    0.6388    1.3042 C.2        1 <1>        0.000
      6 O4          0.6069    0.9391    0.1118 O.3        1 <1>        0.000
      7 C22         1.8459    0.3329    0.2104 C.2        1 <1>        0.000
      8 O5          2.2324   -0.5774    0.9412 O.2        1 <1>        0.000
      9 H          -1.7948    0.6279   -0.9670 H.spc      1 <1>        0.000
     10 H          -3.3152    0.1023    1.5272 H.spc      1 <1>        0.000
     11 H          -1.4235    0.1958    2.7025 H.spc      1 <1>        0.000
     12 H           0.6540    0.5989    2.1546 H.spc      1 <1>        0.000
     13 H           2.6021    0.7254   -0.4695 H.spc      1 <1>        0.000
@<TRIPOS>BOND
     1    1    2 am 
     2    1    3 2  
     3    2    4 1  
     4    4    5 2  
     5    5    6 1  
     6    6    7 1  
     7    7    8 2  
     8    1    9 1  
     9    2   10 1  
    10    4   11 1  
    11    5   12 1  
    12    7   13 1  
# Name:          frag3-207-8/96164
# Creation time: Sat Jun  5 12:53:10 2010


@<TRIPOS>MOLECULE
frag3-207-8/96164
   13    12     1     1     1
SMALL
USER_CHARGES


@<TRIPOS>ATOM
      1 C4         -3.2398   -0.1906   -0.0527 C.2        1 <1>        0.000
      2 N2         -1.9706   -0.1558    0.4975 N.am       1 <1>        0.000
      3 O2         -3.9119    0.6700   -0.6025 O.2        1 <1>        0.000
      4 C9         -1.1554    0.9338    0.6274 C.2        1 <1>        0.000
      5 C13         0.0572    1.1780    1.1488 C.2        1 <1>        0.000
      6 O4          0.9980    0.3805    1.7794 O.3        1 <1>        0.000
      7 C22         1.8329   -0.0457    0.7579 C.2        1 <1>        0.000
      8 O5          1.8191    0.2181   -0.4418 O.2        1 <1>        0.000
      9 H          -3.7294   -1.1620    0.0167 H.spc      1 <1>        0.000
     10 H          -1.6025   -1.0414    0.8447 H.spc      1 <1>        0.000
     11 H          -1.6031    1.8308    0.1996 H.spc      1 <1>        0.000
     12 H           0.3653    2.2195    1.0569 H.spc      1 <1>        0.000
     13 H           2.6284   -0.7228    1.0689 H.spc      1 <1>        0.000
@<TRIPOS>BOND
     1    1    2 am 
     2    1    3 2  
     3    2    4 1  
     4    4    5 2  
     5    5    6 1  
     6    6    7 1  
     7    7    8 2  
     8    1    9 1  
     9    2   10 1  
    10    4   11 1  
    11    5   12 1  
    12    7   13 1  
# Name:          frag3-207-8/96164
# Creation time: Sat Jun  5 12:53:10 2010


@<TRIPOS>MOLECULE
frag3-207-8/96164
   13    12     1     1     1
SMALL
USER_CHARGES


@<TRIPOS>ATOM
      1 C4         -3.0824    0.3356    0.0287 C.2        1 <1>        0.000
      2 N2         -2.5505    1.0307    1.0803 N.am       1 <1>        0.000
      3 O2         -2.6224   -0.2843   -0.9094 O.2        1 <1>        0.000
      4 C9         -1.2931    1.1885    1.5651 C.2        1 <1>        0.000
      5 C13        -0.1155    0.6660    1.2052 C.2        1 <1>        0.000
      6 O4          0.1692   -0.2060    0.1932 O.3        1 <1>        0.000
      7 C22         1.4941   -0.0825   -0.0568 C.2        1 <1>        0.000
      8 O5          2.4303    0.3405    0.6076 O.2        1 <1>        0.000
      9 H          -4.1724    0.3387    0.0338 H.spc      1 <1>        0.000
     10 H          -3.2519    1.5415    1.6166 H.spc      1 <1>        0.000
     11 H          -1.2305    1.8731    2.4110 H.spc      1 <1>        0.000
     12 H           0.7385    0.9810    1.8049 H.spc      1 <1>        0.000
     13 H           1.7848   -0.4293   -1.0484 H.spc      1 <1>        0.000
@<TRIPOS>BOND
     1    1    2 am 
     2    1    3 2  
     3    2    4 1  
     4    4    5 2  
     5    5    6 1  
     6    6    7 1  
     7    7    8 2  
     8    1    9 1  
     9    2   10 1  
    10    4   11 1  
    11    5   12 1  
    12    7   13 1  
# Name:          frag3-207-8/96164
# Creation time: Sat Jun  5 12:53:10 2010


@<TRIPOS>MOLECULE
frag3-207-8/96164
   13    12     1     1     1
SMALL
USER_CHARGES


@<TRIPOS>ATOM
      1 C4         -2.4699    0.1245   -0.2525 C.2        1 <1>        0.000
      2 N2         -2.1600   -0.1041    1.0673 N.am       1 <1>        0.000
      3 O2         -2.1468    0.9844   -1.0597 O.2        1 <1>        0.000
      4 C9         -1.1844    0.3968    1.8742 C.2        1 <1>        0.000
      5 C13        -0.0266    1.0251    1.6044 C.2        1 <1>        0.000
      6 O4          0.5329    1.3615    0.4000 O.3        1 <1>        0.000
      7 C22         0.8652    0.1659   -0.1924 C.2        1 <1>        0.000
      8 O5          1.0192   -0.9656    0.2727 O.2        1 <1>        0.000
      9 H          -3.1488   -0.6200   -0.6683 H.spc      1 <1>        0.000
     10 H          -2.7759   -0.7740    1.5280 H.spc      1 <1>        0.000
     11 H          -1.3783    0.2635    2.9385 H.spc      1 <1>        0.000
     12 H           0.5571    1.3110    2.4794 H.spc      1 <1>        0.000
     13 H           1.0208    0.2301   -1.2693 H.spc      1 <1>        0.000
@<TRIPOS>BOND
     1    1    2 am 
     2    1    3 2  
     3    2    4 1  
     4    4    5 2  
     5    5    6 1  
     6    6    7 1  
     7    7    8 2  
     8    1    9 1  
     9    2   10 1  
    10    4   11 1  
    11    5   12 1  
    12    7   13 1  
# Name:          frag3-207-8/96164
# Creation time: Sat Jun  5 12:53:10 2010


@<TRIPOS>MOLECULE
frag3-207-8/96164
   13    12     1     1     1
SMALL
USER_CHARGES


@<TRIPOS>ATOM
      1 C4         -3.4228    0.8782   -0.2400 C.2        1 <1>        0.000
      2 N2         -2.1840    1.0634    0.3433 N.am       1 <1>        0.000
      3 O2         -4.1146   -0.1209   -0.3820 O.2        1 <1>        0.000
      4 C9         -1.2830    0.0998    0.6995 C.2        1 <1>        0.000
      5 C13         0.0049    0.0713    1.0763 C.2        1 <1>        0.000
      6 O4          0.9632    1.0519    1.2629 O.3        1 <1>        0.000
      7 C22         2.1385    0.4863    0.8006 C.2        1 <1>        0.000
      8 O5          2.3274   -0.5417    0.1535 O.2        1 <1>        0.000
      9 H          -3.8640    1.7876   -0.6478 H.spc      1 <1>        0.000
     10 H          -1.9112    2.0285    0.5290 H.spc      1 <1>        0.000
     11 H          -1.7209   -0.8979    0.6702 H.spc      1 <1>        0.000
     12 H           0.3729   -0.9348    1.2774 H.spc      1 <1>        0.000
     13 H           3.0424    1.0418    1.0505 H.spc      1 <1>        0.000
@<TRIPOS>BOND
     1    1    2 am 
     2    1    3 2  
     3    2    4 1  
     4    4    5 2  
     5    5    6 1  
     6    6    7 1  
     7    7    8 2  
     8    1    9 1  
     9    2   10 1  
    10    4   11 1  
    11    5   12 1  
    12    7   13 1  
# Name:          frag3-207-8/96164
# Creation time: Sat Jun  5 12:53:10 2010


@<TRIPOS>MOLECULE
frag3-207-8/96164
   13    12     1     1     1
SMALL
USER_CHARGES


@<TRIPOS>ATOM
      1 C4         -2.6031    0.6153   -0.3067 C.2        1 <1>        0.000
      2 N2         -2.3603    0.2971    0.9971 N.am       1 <1>        0.000
      3 O2         -3.4650    0.1693   -1.0547 O.2        1 <1>        0.000
      4 C9         -1.3401    0.5885    1.8539 C.2        1 <1>        0.000
      5 C13        -0.0501    0.9157    1.6561 C.2        1 <1>        0.000
      6 O4          0.6467    1.0187    0.4833 O.3        1 <1>        0.000
      7 C22         1.4365   -0.0940    0.4939 C.2        1 <1>        0.000
      8 O5          2.1650   -0.5221   -0.4088 O.2        1 <1>        0.000
      9 H          -1.9428    1.3660   -0.7409 H.spc      1 <1>        0.000
     10 H          -3.0916   -0.2763    1.4175 H.spc      1 <1>        0.000
     11 H          -1.6258    0.5485    2.9050 H.spc      1 <1>        0.000
     12 H           0.5215    1.1292    2.5593 H.spc      1 <1>        0.000
     13 H           1.4236   -0.6789    1.4136 H.spc      1 <1>        0.000
@<TRIPOS>BOND
     1    1    2 am 
     2    1    3 2  
     3    2    4 1  
     4    4    5 2  
     5    5    6 1  
     6    6    7 1  
     7    7    8 2  
     8    1    9 1  
     9    2   10 1  
    10    4   11 1  
    11    5   12 1  
    12    7   13 1  
# Name:          frag3-207-8/96164
# Creation time: Sat Jun  5 12:53:10 2010


@<TRIPOS>MOLECULE
frag3-207-8/96164
   13    12     1     1     1
SMALL
USER_CHARGES


@<TRIPOS>ATOM
      1 C4         -2.2164   -0.1497   -0.1371 C.2        1 <1>        0.000
      2 N2         -2.0319    1.0250    0.5325 N.am       1 <1>        0.000
      3 O2         -3.1183   -0.4609   -0.9076 O.2        1 <1>        0.000
      4 C9         -1.0811    1.4811    1.3909 C.2        1 <1>        0.000
      5 C13         0.0960    0.9828    1.8171 C.2        1 <1>        0.000
      6 O4          0.8000   -0.1701    1.5533 O.3        1 <1>        0.000
      7 C22         1.2351   -0.0937    0.2481 C.2        1 <1>        0.000
      8 O5          0.7463    0.3739   -0.7832 O.2        1 <1>        0.000
      9 H          -1.4598   -0.9149    0.0364 H.spc      1 <1>        0.000
     10 H          -2.7662    1.7089    0.3494 H.spc      1 <1>        0.000
     11 H          -1.3211    2.4519    1.8245 H.spc      1 <1>        0.000
     12 H           0.6022    1.6368    2.5272 H.spc      1 <1>        0.000
     13 H           2.2175   -0.5403    0.0949 H.spc      1 <1>        0.000
@<TRIPOS>BOND
     1    1    2 am 
     2    1    3 2  
     3    2    4 1  
     4    4    5 2  
     5    5    6 1  
     6    6    7 1  
     7    7    8 2  
     8    1    9 1  
     9    2   10 1  
    10    4   11 1  
    11    5   12 1  
    12    7   13 1  
# Name:          frag3-207-8/96164
# Creation time: Sat Jun  5 12:53:10 2010


@<TRIPOS>MOLECULE
frag3-207-8/96164
   13    12     1     1     1
SMALL
USER_CHARGES


@<TRIPOS>ATOM
      1 C4         -3.5969   -0.0705   -0.0537 C.2        1 <1>        0.000
      2 N2         -2.2645   -0.1743    0.3007 N.am       1 <1>        0.000
      3 O2         -4.3035    0.9000   -0.2882 O.2        1 <1>        0.000
      4 C9         -1.3733    0.8464    0.4793 C.2        1 <1>        0.000
      5 C13        -0.0901    0.9553    0.8573 C.2        1 <1>        0.000
      6 O4          0.8736    0.0326    1.2263 O.3        1 <1>        0.000
      7 C22         2.0032    0.4072    0.5176 C.2        1 <1>        0.000
      8 O5          3.1811    0.0918    0.6748 O.2        1 <1>        0.000
      9 H          -4.1112   -1.0277   -0.1398 H.spc      1 <1>        0.000
     10 H          -1.9065   -1.1185    0.4450 H.spc      1 <1>        0.000
     11 H          -1.8168    1.8174    0.2591 H.spc      1 <1>        0.000
     12 H           0.2677    1.9847    0.8781 H.spc      1 <1>        0.000
     13 H           1.8184    1.0903   -0.3114 H.spc      1 <1>        0.000
@<TRIPOS>BOND
     1    1    2 am 
     2    1    3 2  
     3    2    4 1  
     4    4    5 2  
     5    5    6 1  
     6    6    7 1  
     7    7    8 2  
     8    1    9 1  
     9    2   10 1  
    10    4   11 1  
    11    5   12 1  
    12    7   13 1  
# Name:          frag3-207-8/96164
# Creation time: Sat Jun  5 12:53:10 2010


@<TRIPOS>MOLECULE
frag3-207-8/96164
   13    12     1     1     1
SMALL
USER_CHARGES


@<TRIPOS>ATOM
      1 C4         -2.8210    0.4242   -0.0592 C.2        1 <1>        0.000
      2 N2         -2.5697    0.6964    1.2586 N.am       1 <1>        0.000
      3 O2         -2.1086    0.1514   -1.0164 O.2        1 <1>        0.000
      4 C9         -1.4116    0.7609    1.9743 C.2        1 <1>        0.000
      5 C13        -0.1182    0.8552    1.6157 C.2        1 <1>        0.000
      6 O4          0.4898    0.9538    0.3896 O.3        1 <1>        0.000
      7 C22         1.0384   -0.2689    0.1709 C.2        1 <1>        0.000
      8 O5          1.9305   -0.5845   -0.6194 O.2        1 <1>        0.000
      9 H          -3.8814    0.4575   -0.3094 H.spc      1 <1>        0.000
     10 H          -3.4072    0.8869    1.8087 H.spc      1 <1>        0.000
     11 H          -1.5636    0.7299    3.0532 H.spc      1 <1>        0.000
     12 H           0.5761    0.8528    2.4559 H.spc      1 <1>        0.000
     13 H           0.6356   -1.0812    0.7759 H.spc      1 <1>        0.000
@<TRIPOS>BOND
     1    1    2 am 
     2    1    3 2  
     3    2    4 1  
     4    4    5 2  
     5    5    6 1  
     6    6    7 1  
     7    7    8 2  
     8    1    9 1  
     9    2   10 1  
    10    4   11 1  
    11    5   12 1  
    12    7   13 1  
# Name:          frag3-207-8/96164
# Creation time: Sat Jun  5 12:53:10 2010


@<TRIPOS>MOLECULE
frag3-207-8/96164
   13    12     1     1     1
SMALL
USER_CHARGES


@<TRIPOS>ATOM
      1 C4         -2.8412    0.3591   -0.0240 C.2        1 <1>        0.000
      2 N2         -2.4716    1.1297    1.0494 N.am       1 <1>        0.000
      3 O2         -2.2805   -0.4162   -0.7744 O.2        1 <1>        0.000
      4 C9         -1.3303    1.3705    1.7418 C.2        1 <1>        0.000
      5 C13        -0.1254    0.8184    1.6432 C.2        1 <1>        0.000
      6 O4          0.2244   -0.1797    0.7722 O.3        1 <1>        0.000
      7 C22         1.3164    0.2580    0.0853 C.2        1 <1>        0.000
      8 O5          1.9377   -0.3513   -0.7795 O.2        1 <1>        0.000
      9 H          -3.8989    0.4691   -0.2632 H.spc      1 <1>        0.000
     10 H          -3.2593    1.6586    1.4238 H.spc      1 <1>        0.000
     11 H          -1.4154    2.1443    2.5048 H.spc      1 <1>        0.000
     12 H           0.6503    1.1913    2.3120 H.spc      1 <1>        0.000
     13 H           1.6769    1.2570    0.3304 H.spc      1 <1>        0.000
@<TRIPOS>BOND
     1    1    2 am 
     2    1    3 2  
     3    2    4 1  
     4    4    5 2  
     5    5    6 1  
     6    6    7 1  
     7    7    8 2  
     8    1    9 1  
     9    2   10 1  
    10    4   11 1  
    11    5   12 1  
    12    7   13 1  
# Name:          frag3-207-8/96164
# Creation time: Sat Jun  5 12:53:10 2010


@<TRIPOS>MOLECULE
frag3-207-8/96164
   13    12     1     1     1
SMALL
USER_CHARGES


@<TRIPOS>ATOM
      1 C4         -3.5498    0.5216   -0.0991 C.2        1 <1>        0.000
      2 N2         -2.2809    0.1072    0.2888 N.am       1 <1>        0.000
      3 O2         -4.4711   -0.0868   -0.6223 O.2        1 <1>        0.000
      4 C9         -1.2054    0.9097    0.5587 C.2        1 <1>        0.000
      5 C13         0.1081    0.7295    0.7626 C.2        1 <1>        0.000
      6 O4          0.9234   -0.3966    0.7559 O.3        1 <1>        0.000
      7 C22         2.2194    0.1142    0.7461 C.2        1 <1>        0.000
      8 O5          2.6858    1.0897    1.3235 O.2        1 <1>        0.000
      9 H          -3.7595    1.5729    0.0979 H.spc      1 <1>        0.000
     10 H          -2.1364   -0.8982    0.3819 H.spc      1 <1>        0.000
     11 H          -1.4875    1.9605    0.6246 H.spc      1 <1>        0.000
     12 H           0.6452    1.6534    0.9771 H.spc      1 <1>        0.000
     13 H           2.9281   -0.4390    0.1298 H.spc      1 <1>        0.000
@<TRIPOS>BOND
     1    1    2 am 
     2    1    3 2  
     3    2    4 1  
     4    4    5 2  
     5    5    6 1  
     6    6    7 1  
     7    7    8 2  
     8    1    9 1  
     9    2   10 1  
    10    4   11 1  
    11    5   12 1  
    12    7   13 1  
# Name:          frag3-207-8/96164
# Creation time: Sat Jun  5 12:53:10 2010


@<TRIPOS>MOLECULE
frag3-207-8/96164
   13    12     1     1     1
SMALL
USER_CHARGES


@<TRIPOS>ATOM
      1 C4         -2.8879    0.5283   -0.2755 C.2        1 <1>        0.000
      2 N2         -1.9502    0.3280    0.6785 N.am       1 <1>        0.000
      3 O2         -3.5393   -0.2570   -0.9444 O.2        1 <1>        0.000
      4 C9         -1.2540    1.1675    1.4997 C.2        1 <1>        0.000
      5 C13         0.0279    1.0476    1.8365 C.2        1 <1>        0.000
      6 O4          0.9843    0.1490    1.4532 O.3        1 <1>        0.000
      7 C22         1.1615    0.3263    0.1147 C.2        1 <1>        0.000
      8 O5          1.8874   -0.3011   -0.6487 O.2        1 <1>        0.000
      9 H          -3.0990    1.5772   -0.4835 H.spc      1 <1>        0.000
     10 H          -1.7140   -0.6552    0.8123 H.spc      1 <1>        0.000
     11 H          -1.7983    2.0141    1.9181 H.spc      1 <1>        0.000
     12 H           0.3775    1.7996    2.5438 H.spc      1 <1>        0.000
     13 H           0.5821    1.1314   -0.3372 H.spc      1 <1>        0.000
@<TRIPOS>BOND
     1    1    2 am 
     2    1    3 2  
     3    2    4 1  
     4    4    5 2  
     5    5    6 1  
     6    6    7 1  
     7    7    8 2  
     8    1    9 1  
     9    2   10 1  
    10    4   11 1  
    11    5   12 1  
    12    7   13 1  
# Name:          frag3-207-8/96164 -- energy: -1.401690
# Creation time: Sat Jun  5 12:53:10 2010


@<TRIPOS>MOLECULE
frag3-207-8/96164 -- energy: -1.401690
   13    12     1     1     1
SMALL
USER_CHARGES


@<TRIPOS>ATOM
      1 C4         -2.5555    0.2043   -0.1260 C.2        1 <1>        0.000
      2 N2         -2.1962    1.2735    0.6498 N.am       1 <1>        0.000
      3 O2         -1.9808   -0.8164   -0.4819 O.2        1 <1>        0.000
      4 C9         -1.0977    1.5450    1.4152 C.2        1 <1>        0.000
      5 C13         0.0101    0.8391    1.7037 C.2        1 <1>        0.000
      6 O4          0.4237   -0.4096    1.3163 O.3        1 <1>        0.000
      7 C22         0.9076   -0.2798    0.0330 C.2        1 <1>        0.000
      8 O5          0.9185    0.6323   -0.7960 O.2        1 <1>        0.000
      9 H          -3.5731    0.2776   -0.5097 H.spc      1 <1>        0.000
     10 H          -2.8909    2.0203    0.6580 H.spc      1 <1>        0.000
     11 H          -1.1243    2.5282    1.8850 H.spc      1 <1>        0.000
     12 H           0.7062    1.3534    2.3664 H.spc      1 <1>        0.000
     13 H           1.3889   -1.1875   -0.3310 H.spc      1 <1>        0.000
@<TRIPOS>BOND
     1    1    2 am 
     2    1    3 2  
     3    2    4 1  
     4    4    5 2  
     5    5    6 1  
     6    6    7 1  
     7    7    8 2  
     8    1    9 1  
     9    2   10 1  
    10    4   11 1  
    11    5   12 1  
    12    7   13 1  
# Name:          frag3-207-8/96164 -- energy: -0.556260
# Creation time: Sat Jun  5 12:53:10 2010


@<TRIPOS>MOLECULE
frag3-207-8/96164 -- energy: -0.556260
   13    12     1     1     1
SMALL
USER_CHARGES


@<TRIPOS>ATOM
      1 C4         -3.1655   -0.1209   -0.0054 C.2        1 <1>        0.000
      2 N2         -2.1501    0.0437    0.8919 N.am       1 <1>        0.000
      3 O2         -3.5889    0.6296   -0.8748 O.2        1 <1>        0.000
      4 C9         -1.3990    1.1497    1.1252 C.2        1 <1>        0.000
      5 C13        -0.0749    1.1722    1.3207 C.2        1 <1>        0.000
      6 O4          0.8015    0.1314    1.3004 O.3        1 <1>        0.000
      7 C22         1.5135    0.3087    0.1558 C.2        1 <1>        0.000
      8 O5          2.4930   -0.3259   -0.1998 O.2        1 <1>        0.000
      9 H          -3.6842   -1.0771    0.0635 H.spc      1 <1>        0.000
     10 H          -1.9264   -0.7719    1.4621 H.spc      1 <1>        0.000
     11 H          -1.9211    2.1060    1.1562 H.spc      1 <1>        0.000
     12 H           0.3577    2.1521    1.5225 H.spc      1 <1>        0.000
     13 H           1.1742    1.0995   -0.5133 H.spc      1 <1>        0.000
@<TRIPOS>BOND
     1    1    2 am 
     2    1    3 2  
     3    2    4 1  
     4    4    5 2  
     5    5    6 1  
     6    6    7 1  
     7    7    8 2  
     8    1    9 1  
     9    2   10 1  
    10    4   11 1  
    11    5   12 1  
    12    7   13 1  
# Name:          frag3-207-8/96164 -- energy: -0.225198
# Creation time: Sat Jun  5 12:53:10 2010


@<TRIPOS>MOLECULE
frag3-207-8/96164 -- energy: -0.225198
   13    12     1     1     1
SMALL
USER_CHARGES


@<TRIPOS>ATOM
      1 C4         -2.7067    0.4756   -0.3896 C.2        1 <1>        0.000
      2 N2         -2.4909    0.3083    0.9628 N.am       1 <1>        0.000
      3 O2         -3.7265    0.4854   -1.0626 O.2        1 <1>        0.000
      4 C9         -1.3048    0.3857    1.6358 C.2        1 <1>        0.000
      5 C13        -0.0267    0.6388    1.3042 C.2        1 <1>        0.000
      6 O4          0.6069    0.9391    0.1118 O.3        1 <1>        0.000
      7 C22         1.8459    0.3329    0.2104 C.2        1 <1>        0.000
      8 O5          2.2324   -0.5774    0.9412 O.2        1 <1>        0.000
      9 H          -1.7948    0.6279   -0.9670 H.spc      1 <1>        0.000
     10 H          -3.3152    0.1023    1.5272 H.spc      1 <1>        0.000
     11 H          -1.4235    0.1958    2.7025 H.spc      1 <1>        0.000
     12 H           0.6540    0.5989    2.1546 H.spc      1 <1>        0.000
     13 H           2.6021    0.7254   -0.4695 H.spc      1 <1>        0.000
@<TRIPOS>BOND
     1    1    2 am 
     2    1    3 2  
     3    2    4 1  
     4    4    5 2  
     5    5    6 1  
     6    6    7 1  
     7    7    8 2  
     8    1    9 1  
     9    2   10 1  
    10    4   11 1  
    11    5   12 1  
    12    7   13 1  
# Name:          frag3-207-8/96164 -- energy: -0.601116
# Creation time: Sat Jun  5 12:53:10 2010


@<TRIPOS>MOLECULE
frag3-207-8/96164 -- energy: -0.601116
   13    12     1     1     1
SMALL
USER_CHARGES


@<TRIPOS>ATOM
      1 C4         -3.2398   -0.1906   -0.0527 C.2        1 <1>        0.000
      2 N2         -1.9706   -0.1558    0.4975 N.am       1 <1>        0.000
      3 O2         -3.9119    0.6700   -0.6025 O.2        1 <1>        0.000
      4 C9         -1.1554    0.9338    0.6274 C.2        1 <1>        0.000
      5 C13         0.0572    1.1780    1.1488 C.2        1 <1>        0.000
      6 O4          0.9980    0.3805    1.7794 O.3        1 <1>        0.000
      7 C22         1.8329   -0.0457    0.7579 C.2        1 <1>        0.000
      8 O5          1.8191    0.2181   -0.4418 O.2        1 <1>        0.000
      9 H          -3.7294   -1.1620    0.0167 H.spc      1 <1>        0.000
     10 H          -1.6025   -1.0414    0.8447 H.spc      1 <1>        0.000
     11 H          -1.6031    1.8308    0.1996 H.spc      1 <1>        0.000
     12 H           0.3653    2.2195    1.0569 H.spc      1 <1>        0.000
     13 H           2.6284   -0.7228    1.0689 H.spc      1 <1>        0.000
@<TRIPOS>BOND
     1    1    2 am 
     2    1    3 2  
     3    2    4 1  
     4    4    5 2  
     5    5    6 1  
     6    6    7 1  
     7    7    8 2  
     8    1    9 1  
     9    2   10 1  
    10    4   11 1  
    11    5   12 1  
    12    7   13 1  
# Name:          frag3-207-8/96164 -- energy: 0.046851
# Creation time: Sat Jun  5 12:53:10 2010


@<TRIPOS>MOLECULE
frag3-207-8/96164 -- energy: 0.046851
   13    12     1     1     1
SMALL
USER_CHARGES


@<TRIPOS>ATOM
      1 C4         -3.0824    0.3356    0.0287 C.2        1 <1>        0.000
      2 N2         -2.5505    1.0307    1.0803 N.am       1 <1>        0.000
      3 O2         -2.6224   -0.2843   -0.9094 O.2        1 <1>        0.000
      4 C9         -1.2931    1.1885    1.5651 C.2        1 <1>        0.000
      5 C13        -0.1155    0.6660    1.2052 C.2        1 <1>        0.000
      6 O4          0.1692   -0.2060    0.1932 O.3        1 <1>        0.000
      7 C22         1.4941   -0.0825   -0.0568 C.2        1 <1>        0.000
      8 O5          2.4303    0.3405    0.6076 O.2        1 <1>        0.000
      9 H          -4.1724    0.3387    0.0338 H.spc      1 <1>        0.000
     10 H          -3.2519    1.5415    1.6166 H.spc      1 <1>        0.000
     11 H          -1.2305    1.8731    2.4110 H.spc      1 <1>        0.000
     12 H           0.7385    0.9810    1.8049 H.spc      1 <1>        0.000
     13 H           1.7848   -0.4293   -1.0484 H.spc      1 <1>        0.000
@<TRIPOS>BOND
     1    1    2 am 
     2    1    3 2  
     3    2    4 1  
     4    4    5 2  
     5    5    6 1  
     6    6    7 1  
     7    7    8 2  
     8    1    9 1  
     9    2   10 1  
    10    4   11 1  
    11    5   12 1  
    12    7   13 1  
# Name:          frag3-207-8/96164 -- energy: -1.282874
# Creation time: Sat Jun  5 12:53:10 2010


@<TRIPOS>MOLECULE
frag3-207-8/96164 -- energy: -1.282874
   13    12     1     1     1
SMALL
USER_CHARGES


@<TRIPOS>ATOM
      1 C4         -2.4699    0.1245   -0.2525 C.2        1 <1>        0.000
      2 N2         -2.1600   -0.1041    1.0673 N.am       1 <1>        0.000
      3 O2         -2.1468    0.9844   -1.0597 O.2        1 <1>        0.000
      4 C9         -1.1844    0.3968    1.8742 C.2        1 <1>        0.000
      5 C13        -0.0266    1.0251    1.6044 C.2        1 <1>        0.000
      6 O4          0.5329    1.3615    0.4000 O.3        1 <1>        0.000
      7 C22         0.8652    0.1659   -0.1924 C.2        1 <1>        0.000
      8 O5          1.0192   -0.9656    0.2727 O.2        1 <1>        0.000
      9 H          -3.1488   -0.6200   -0.6683 H.spc      1 <1>        0.000
     10 H          -2.7759   -0.7740    1.5280 H.spc      1 <1>        0.000
     11 H          -1.3783    0.2635    2.9385 H.spc      1 <1>        0.000
     12 H           0.5571    1.3110    2.4794 H.spc      1 <1>        0.000
     13 H           1.0208    0.2301   -1.2693 H.spc      1 <1>        0.000
@<TRIPOS>BOND
     1    1    2 am 
     2    1    3 2  
     3    2    4 1  
     4    4    5 2  
     5    5    6 1  
     6    6    7 1  
     7    7    8 2  
     8    1    9 1  
     9    2   10 1  
    10    4   11 1  
    11    5   12 1  
    12    7   13 1  
# Name:          frag3-207-8/96164 -- energy: -0.006341
# Creation time: Sat Jun  5 12:53:10 2010


@<TRIPOS>MOLECULE
frag3-207-8/96164 -- energy: -0.006341
   13    12     1     1     1
SMALL
USER_CHARGES


@<TRIPOS>ATOM
      1 C4         -3.4228    0.8782   -0.2400 C.2        1 <1>        0.000
      2 N2         -2.1840    1.0634    0.3433 N.am       1 <1>        0.000
      3 O2         -4.1146   -0.1209   -0.3820 O.2        1 <1>        0.000
      4 C9         -1.2830    0.0998    0.6995 C.2        1 <1>        0.000
      5 C13         0.0049    0.0713    1.0763 C.2        1 <1>        0.000
      6 O4          0.9632    1.0519    1.2629 O.3        1 <1>        0.000
      7 C22         2.1385    0.4863    0.8006 C.2        1 <1>        0.000
      8 O5          2.3274   -0.5417    0.1535 O.2        1 <1>        0.000
      9 H          -3.8640    1.7876   -0.6478 H.spc      1 <1>        0.000
     10 H          -1.9112    2.0285    0.5290 H.spc      1 <1>        0.000
     11 H          -1.7209   -0.8979    0.6702 H.spc      1 <1>        0.000
     12 H           0.3729   -0.9348    1.2774 H.spc      1 <1>        0.000
     13 H           3.0424    1.0418    1.0505 H.spc      1 <1>        0.000
@<TRIPOS>BOND
     1    1    2 am 
     2    1    3 2  
     3    2    4 1  
     4    4    5 2  
     5    5    6 1  
     6    6    7 1  
     7    7    8 2  
     8    1    9 1  
     9    2   10 1  
    10    4   11 1  
    11    5   12 1  
    12    7   13 1  
# Name:          frag3-207-8/96164 -- energy: -0.508670
# Creation time: Sat Jun  5 12:53:10 2010


@<TRIPOS>MOLECULE
frag3-207-8/96164 -- energy: -0.508670
   13    12     1     1     1
SMALL
USER_CHARGES


@<TRIPOS>ATOM
      1 C4         -2.6031    0.6153   -0.3067 C.2        1 <1>        0.000
      2 N2         -2.3603    0.2971    0.9971 N.am       1 <1>        0.000
      3 O2         -3.4650    0.1693   -1.0547 O.2        1 <1>        0.000
      4 C9         -1.3401    0.5885    1.8539 C.2        1 <1>        0.000
      5 C13        -0.0501    0.9157    1.6561 C.2        1 <1>        0.000
      6 O4          0.6467    1.0187    0.4833 O.3        1 <1>        0.000
      7 C22         1.4365   -0.0940    0.4939 C.2        1 <1>        0.000
      8 O5          2.1650   -0.5221   -0.4088 O.2        1 <1>        0.000
      9 H          -1.9428    1.3660   -0.7409 H.spc      1 <1>        0.000
     10 H          -3.0916   -0.2763    1.4175 H.spc      1 <1>        0.000
     11 H          -1.6258    0.5485    2.9050 H.spc      1 <1>        0.000
     12 H           0.5215    1.1292    2.5593 H.spc      1 <1>        0.000
     13 H           1.4236   -0.6789    1.4136 H.spc      1 <1>        0.000
@<TRIPOS>BOND
     1    1    2 am 
     2    1    3 2  
     3    2    4 1  
     4    4    5 2  
     5    5    6 1  
     6    6    7 1  
     7    7    8 2  
     8    1    9 1  
     9    2   10 1  
    10    4   11 1  
    11    5   12 1  
    12    7   13 1  
# Name:          frag3-207-8/96164 -- energy: -1.430679
# Creation time: Sat Jun  5 12:53:10 2010


@<TRIPOS>MOLECULE
frag3-207-8/96164 -- energy: -1.430679
   13    12     1     1     1
SMALL
USER_CHARGES


@<TRIPOS>ATOM
      1 C4         -2.2164   -0.1497   -0.1371 C.2        1 <1>        0.000
      2 N2         -2.0319    1.0250    0.5325 N.am       1 <1>        0.000
      3 O2         -3.1183   -0.4609   -0.9076 O.2        1 <1>        0.000
      4 C9         -1.0811    1.4811    1.3909 C.2        1 <1>        0.000
      5 C13         0.0960    0.9828    1.8171 C.2        1 <1>        0.000
      6 O4          0.8000   -0.1701    1.5533 O.3        1 <1>        0.000
      7 C22         1.2351   -0.0937    0.2481 C.2        1 <1>        0.000
      8 O5          0.7463    0.3739   -0.7832 O.2        1 <1>        0.000
      9 H          -1.4598   -0.9149    0.0364 H.spc      1 <1>        0.000
     10 H          -2.7662    1.7089    0.3494 H.spc      1 <1>        0.000
     11 H          -1.3211    2.4519    1.8245 H.spc      1 <1>        0.000
     12 H           0.6022    1.6368    2.5272 H.spc      1 <1>        0.000
     13 H           2.2175   -0.5403    0.0949 H.spc      1 <1>        0.000
@<TRIPOS>BOND
     1    1    2 am 
     2    1    3 2  
     3    2    4 1  
     4    4    5 2  
     5    5    6 1  
     6    6    7 1  
     7    7    8 2  
     8    1    9 1  
     9    2   10 1  
    10    4   11 1  
    11    5   12 1  
    12    7   13 1  
# Name:          frag3-207-8/96164 -- energy: -0.257265
# Creation time: Sat Jun  5 12:53:10 2010


@<TRIPOS>MOLECULE
frag3-207-8/96164 -- energy: -0.257265
   13    12     1     1     1
SMALL
USER_CHARGES


@<TRIPOS>ATOM
      1 C4         -3.5969   -0.0705   -0.0537 C.2        1 <1>        0.000
      2 N2         -2.2645   -0.1743    0.3007 N.am       1 <1>        0.000
      3 O2         -4.3035    0.9000   -0.2882 O.2        1 <1>        0.000
      4 C9         -1.3733    0.8464    0.4793 C.2        1 <1>        0.000
      5 C13        -0.0901    0.9553    0.8573 C.2        1 <1>        0.000
      6 O4          0.8736    0.0326    1.2263 O.3        1 <1>        0.000
      7 C22         2.0032    0.4072    0.5176 C.2        1 <1>        0.000
      8 O5          3.1811    0.0918    0.6748 O.2        1 <1>        0.000
      9 H          -4.1112   -1.0277   -0.1398 H.spc      1 <1>        0.000
     10 H          -1.9065   -1.1185    0.4450 H.spc      1 <1>        0.000
     11 H          -1.8168    1.8174    0.2591 H.spc      1 <1>        0.000
     12 H           0.2677    1.9847    0.8781 H.spc      1 <1>        0.000
     13 H           1.8184    1.0903   -0.3114 H.spc      1 <1>        0.000
@<TRIPOS>BOND
     1    1    2 am 
     2    1    3 2  
     3    2    4 1  
     4    4    5 2  
     5    5    6 1  
     6    6    7 1  
     7    7    8 2  
     8    1    9 1  
     9    2   10 1  
    10    4   11 1  
    11    5   12 1  
    12    7   13 1  
# Name:          frag3-207-8/96164 -- energy: -0.939053
# Creation time: Sat Jun  5 12:53:10 2010


@<TRIPOS>MOLECULE
frag3-207-8/96164 -- energy: -0.939053
   13    12     1     1     1
SMALL
USER_CHARGES


@<TRIPOS>ATOM
      1 C4         -2.8210    0.4242   -0.0592 C.2        1 <1>        0.000
      2 N2         -2.5697    0.6964    1.2586 N.am       1 <1>        0.000
      3 O2         -2.1086    0.1514   -1.0164 O.2        1 <1>        0.000
      4 C9         -1.4116    0.7609    1.9743 C.2        1 <1>        0.000
      5 C13        -0.1182    0.8552    1.6157 C.2        1 <1>        0.000
      6 O4          0.4898    0.9538    0.3896 O.3        1 <1>        0.000
      7 C22         1.0384   -0.2689    0.1709 C.2        1 <1>        0.000
      8 O5          1.9305   -0.5845   -0.6194 O.2        1 <1>        0.000
      9 H          -3.8814    0.4575   -0.3094 H.spc      1 <1>        0.000
     10 H          -3.4072    0.8869    1.8087 H.spc      1 <1>        0.000
     11 H          -1.5636    0.7299    3.0532 H.spc      1 <1>        0.000
     12 H           0.5761    0.8528    2.4559 H.spc      1 <1>        0.000
     13 H           0.6356   -1.0812    0.7759 H.spc      1 <1>        0.000
@<TRIPOS>BOND
     1    1    2 am 
     2    1    3 2  
     3    2    4 1  
     4    4    5 2  
     5    5    6 1  
     6    6    7 1  
     7    7    8 2  
     8    1    9 1  
     9    2   10 1  
    10    4   11 1  
    11    5   12 1  
    12    7   13 1  
# Name:          frag3-207-8/96164 -- energy: -0.853231
# Creation time: Sat Jun  5 12:53:10 2010


@<TRIPOS>MOLECULE
frag3-207-8/96164 -- energy: -0.853231
   13    12     1     1     1
SMALL
USER_CHARGES


@<TRIPOS>ATOM
      1 C4         -2.8412    0.3591   -0.0240 C.2        1 <1>        0.000
      2 N2         -2.4716    1.1297    1.0494 N.am       1 <1>        0.000
      3 O2         -2.2805   -0.4162   -0.7744 O.2        1 <1>        0.000
      4 C9         -1.3303    1.3705    1.7418 C.2        1 <1>        0.000
      5 C13        -0.1254    0.8184    1.6432 C.2        1 <1>        0.000
      6 O4          0.2244   -0.1797    0.7722 O.3        1 <1>        0.000
      7 C22         1.3164    0.2580    0.0853 C.2        1 <1>        0.000
      8 O5          1.9377   -0.3513   -0.7795 O.2        1 <1>        0.000
      9 H          -3.8989    0.4691   -0.2632 H.spc      1 <1>        0.000
     10 H          -3.2593    1.6586    1.4238 H.spc      1 <1>        0.000
     11 H          -1.4154    2.1443    2.5048 H.spc      1 <1>        0.000
     12 H           0.6503    1.1913    2.3120 H.spc      1 <1>        0.000
     13 H           1.6769    1.2570    0.3304 H.spc      1 <1>        0.000
@<TRIPOS>BOND
     1    1    2 am 
     2    1    3 2  
     3    2    4 1  
     4    4    5 2  
     5    5    6 1  
     6    6    7 1  
     7    7    8 2  
     8    1    9 1  
     9    2   10 1  
    10    4   11 1  
    11    5   12 1  
    12    7   13 1  
# Name:          frag3-207-8/96164 -- energy: 0.604869
# Creation time: Sat Jun  5 12:53:10 2010


@<TRIPOS>MOLECULE
frag3-207-8/96164 -- energy: 0.604869
   13    12     1     1     1
SMALL
USER_CHARGES


@<TRIPOS>ATOM
      1 C4         -3.5498    0.5216   -0.0991 C.2        1 <1>        0.000
      2 N2         -2.2809    0.1072    0.2888 N.am       1 <1>        0.000
      3 O2         -4.4711   -0.0868   -0.6223 O.2        1 <1>        0.000
      4 C9         -1.2054    0.9097    0.5587 C.2        1 <1>        0.000
      5 C13         0.1081    0.7295    0.7626 C.2        1 <1>        0.000
      6 O4          0.9234   -0.3966    0.7559 O.3        1 <1>        0.000
      7 C22         2.2194    0.1142    0.7461 C.2        1 <1>        0.000
      8 O5          2.6858    1.0897    1.3235 O.2        1 <1>        0.000
      9 H          -3.7595    1.5729    0.0979 H.spc      1 <1>        0.000
     10 H          -2.1364   -0.8982    0.3819 H.spc      1 <1>        0.000
     11 H          -1.4875    1.9605    0.6246 H.spc      1 <1>        0.000
     12 H           0.6452    1.6534    0.9771 H.spc      1 <1>        0.000
     13 H           2.9281   -0.4390    0.1298 H.spc      1 <1>        0.000
@<TRIPOS>BOND
     1    1    2 am 
     2    1    3 2  
     3    2    4 1  
     4    4    5 2  
     5    5    6 1  
     6    6    7 1  
     7    7    8 2  
     8    1    9 1  
     9    2   10 1  
    10    4   11 1  
    11    5   12 1  
    12    7   13 1  
# Name:          frag3-207-8/96164 -- energy: -0.701014
# Creation time: Sat Jun  5 12:53:10 2010


@<TRIPOS>MOLECULE
frag3-207-8/96164 -- energy: -0.701014
   13    12     1     1     1
SMALL
USER_CHARGES


@<TRIPOS>ATOM
      1 C4         -2.8879    0.5283   -0.2755 C.2        1 <1>        0.000
      2 N2         -1.9502    0.3280    0.6785 N.am       1 <1>        0.000
      3 O2         -3.5393   -0.2570   -0.9444 O.2        1 <1>        0.000
      4 C9         -1.2540    1.1675    1.4997 C.2        1 <1>        0.000
      5 C13         0.0279    1.0476    1.8365 C.2        1 <1>        0.000
      6 O4          0.9843    0.1490    1.4532 O.3        1 <1>        0.000
      7 C22         1.1615    0.3263    0.1147 C.2        1 <1>        0.000
      8 O5          1.8874   -0.3011   -0.6487 O.2        1 <1>        0.000
      9 H          -3.0990    1.5772   -0.4835 H.spc      1 <1>        0.000
     10 H          -1.7140   -0.6552    0.8123 H.spc      1 <1>        0.000
     11 H          -1.7983    2.0141    1.9181 H.spc      1 <1>        0.000
     12 H           0.3775    1.7996    2.5438 H.spc      1 <1>        0.000
     13 H           0.5821    1.1314   -0.3372 H.spc      1 <1>        0.000
@<TRIPOS>BOND
     1    1    2 am 
     2    1    3 2  
     3    2    4 1  
     4    4    5 2  
     5    5    6 1  
     6    6    7 1  
     7    7    8 2  
     8    1    9 1  
     9    2   10 1  
    10    4   11 1  
    11    5   12 1  
    12    7   13 1  
