#      Rotatable Fragment
#      Build by yxyuan
#
# Name:          frag4-465-104/150395
# Creation time: Sat Jun  5 12:53:37 2010


@<TRIPOS>MOLECULE
frag4-465-104/150395
   20    21     1     1     1
SMALL
USER_CHARGES


@<TRIPOS>ATOM
      1 C1         -2.4430    0.6884   -0.0090 C.ar       1 <1>        0.000
      2 C2         -2.3398   -0.7334    0.0200 C.ar       1 <1>        0.000
      3 C3         -1.1047    1.5053   -0.0161 C.2        1 <1>        0.000
      4 C4         -3.6904    1.3202   -0.0242 C.ar       1 <1>        0.000
      5 C5         -3.5251   -1.4761   -0.0029 C.ar       1 <1>        0.000
      6 C6         -0.9683   -1.5473    0.0750 C.3        1 <1>        0.000
      7 C7          0.1958    1.0493    0.0526 C.2        1 <1>        0.000
      8 C8         -4.8568    0.5518   -0.0156 C.ar       1 <1>        0.000
      9 C9         -4.7720   -0.8436   -0.0141 C.ar       1 <1>        0.000
     10 C10         0.3573   -0.5420    0.1750 C.3        1 <1>        0.000
     11 H          -1.2177    2.5872   -0.0851 H.spc      1 <1>        0.000
     12 H          -3.7523    2.4083   -0.0427 H.spc      1 <1>        0.000
     13 H          -3.4758   -2.5649   -0.0122 H.spc      1 <1>        0.000
     14 H          -0.9836   -2.1776    0.9641 H.spc      1 <1>        0.000
     15 H          -0.8831   -2.1304   -0.8420 H.spc      1 <1>        0.000
     16 H           1.0526    1.7226    0.0256 H.spc      1 <1>        0.000
     17 H          -5.8316    1.0394   -0.0101 H.spc      1 <1>        0.000
     18 H          -5.6831   -1.4419   -0.0217 H.spc      1 <1>        0.000
     19 H           0.9623   -0.8143   -0.6898 H.spc      1 <1>        0.000
     20 H           0.7290   -0.6935    1.1884 H.spc      1 <1>        0.000
@<TRIPOS>BOND
     1    5    9 ar 
     2    4    8 ar 
     3    6   10 1  
     4    7   10 1  
     5    3    7 2  
     6    1    2 ar 
     7    1    3 1  
     8    1    4 ar 
     9    2    5 ar 
    10    2    6 1  
    11    8    9 ar 
    12    3   11 1  
    13    4   12 1  
    14    5   13 1  
    15    6   14 1  
    16    6   15 1  
    17    7   16 1  
    18    8   17 1  
    19    9   18 1  
    20   10   19 1  
    21   10   20 1  
# Name:          frag4-465-104/150395 -- energy: -1.173155
# Creation time: Sat Jun  5 12:53:37 2010


@<TRIPOS>MOLECULE
frag4-465-104/150395 -- energy: -1.173155
   20    21     1     1     1
SMALL
USER_CHARGES


@<TRIPOS>ATOM
      1 C1         -2.4430    0.6884   -0.0090 C.ar       1 <1>        0.000
      2 C2         -2.3398   -0.7334    0.0200 C.ar       1 <1>        0.000
      3 C3         -1.1047    1.5053   -0.0161 C.2        1 <1>        0.000
      4 C4         -3.6904    1.3202   -0.0242 C.ar       1 <1>        0.000
      5 C5         -3.5251   -1.4761   -0.0029 C.ar       1 <1>        0.000
      6 C6         -0.9683   -1.5473    0.0750 C.3        1 <1>        0.000
      7 C7          0.1958    1.0493    0.0526 C.2        1 <1>        0.000
      8 C8         -4.8568    0.5518   -0.0156 C.ar       1 <1>        0.000
      9 C9         -4.7720   -0.8436   -0.0141 C.ar       1 <1>        0.000
     10 C10         0.3573   -0.5420    0.1750 C.3        1 <1>        0.000
     11 H          -1.2177    2.5872   -0.0851 H.spc      1 <1>        0.000
     12 H          -3.7523    2.4083   -0.0427 H.spc      1 <1>        0.000
     13 H          -3.4758   -2.5649   -0.0122 H.spc      1 <1>        0.000
     14 H          -0.9836   -2.1776    0.9641 H.spc      1 <1>        0.000
     15 H          -0.8831   -2.1304   -0.8420 H.spc      1 <1>        0.000
     16 H           1.0526    1.7226    0.0256 H.spc      1 <1>        0.000
     17 H          -5.8316    1.0394   -0.0101 H.spc      1 <1>        0.000
     18 H          -5.6831   -1.4419   -0.0217 H.spc      1 <1>        0.000
     19 H           0.9623   -0.8143   -0.6898 H.spc      1 <1>        0.000
     20 H           0.7290   -0.6935    1.1884 H.spc      1 <1>        0.000
@<TRIPOS>BOND
     1    5    9 ar 
     2    4    8 ar 
     3    6   10 1  
     4    7   10 1  
     5    3    7 2  
     6    1    2 ar 
     7    1    3 1  
     8    1    4 ar 
     9    2    5 ar 
    10    2    6 1  
    11    8    9 ar 
    12    3   11 1  
    13    4   12 1  
    14    5   13 1  
    15    6   14 1  
    16    6   15 1  
    17    7   16 1  
    18    8   17 1  
    19    9   18 1  
    20   10   19 1  
    21   10   20 1  
