#      Rotatable Fragment
#      Build by yxyuan
#
# Name:          frag3-158-12/31924
# Creation time: Sat Jun  5 12:52:05 2010


@<TRIPOS>MOLECULE
frag3-158-12/31924
    6     5     1     1     1
SMALL
USER_CHARGES


@<TRIPOS>ATOM
      1 Br1         1.8512    0.1825   -1.1133 Br         1 <1>        0.000
      2 C1          0.4716    0.3469    0.1487 C.2        1 <1>        0.000
      3 C2         -0.6642   -0.3217    0.0292 C.2        1 <1>        0.000
      4 H           0.6095    1.0105    1.0024 H.spc      1 <1>        0.000
      5 H          -0.8171   -0.9891   -0.8189 H.spc      1 <1>        0.000
      6 H          -1.4468   -0.2050    0.7789 H.spc      1 <1>        0.000
@<TRIPOS>BOND
     1    2    3 2  
     2    1    2 1  
     3    2    4 1  
     4    3    5 1  
     5    3    6 1  
# Name:          frag3-158-12/31924 -- energy: -0.122442
# Creation time: Sat Jun  5 12:52:05 2010


@<TRIPOS>MOLECULE
frag3-158-12/31924 -- energy: -0.122442
    6     5     1     1     1
SMALL
USER_CHARGES


@<TRIPOS>ATOM
      1 Br1         1.8512    0.1825   -1.1133 Br         1 <1>        0.000
      2 C1          0.4716    0.3469    0.1487 C.2        1 <1>        0.000
      3 C2         -0.6642   -0.3217    0.0292 C.2        1 <1>        0.000
      4 H           0.6095    1.0105    1.0024 H.spc      1 <1>        0.000
      5 H          -0.8171   -0.9891   -0.8189 H.spc      1 <1>        0.000
      6 H          -1.4468   -0.2050    0.7789 H.spc      1 <1>        0.000
@<TRIPOS>BOND
     1    2    3 2  
     2    1    2 1  
     3    2    4 1  
     4    3    5 1  
     5    3    6 1  
