#      Rotatable Fragment
#      Build by yxyuan
#
# Name:          frag5-512-438/138278
# Creation time: Sat Jun  5 12:53:40 2010


@<TRIPOS>MOLECULE
frag5-512-438/138278
   12    12     1     1     1
SMALL
USER_CHARGES


@<TRIPOS>ATOM
      1 C15         0.8532    1.0303   -0.0036 C.ar       1 <1>        0.000
      2 C16         1.3407   -0.2756   -0.0840 C.ar       1 <1>        0.000
      3 C17        -0.5216    1.2664    0.0811 C.ar       1 <1>        0.000
      4 C18         0.4502   -1.3487   -0.0822 C.ar       1 <1>        0.000
      5 Cl1         3.0638   -0.5674   -0.1847 Cl         1 <1>        0.000
      6 C19        -1.4110    0.1893    0.0834 C.ar       1 <1>        0.000
      7 Cl2        -1.1260    2.9070    0.1848 Cl         1 <1>        0.000
      8 C20        -0.9252   -1.1170    0.0032 C.ar       1 <1>        0.000
      9 H           1.5484    1.8698   -0.0069 H.spc      1 <1>        0.000
     10 H           0.8274   -2.3693   -0.1475 H.spc      1 <1>        0.000
     11 H          -2.4842    0.3687    0.1478 H.spc      1 <1>        0.000
     12 H          -1.6196   -1.9572    0.0072 H.spc      1 <1>        0.000
@<TRIPOS>BOND
     1    1    2 ar 
     2    1    3 ar 
     3    2    4 ar 
     4    2    5 1  
     5    3    6 ar 
     6    3    7 1  
     7    4    8 ar 
     8    6    8 ar 
     9    1    9 1  
    10    4   10 1  
    11    6   11 1  
    12    8   12 1  
# Name:          frag5-512-438/138278 -- energy: -0.297526
# Creation time: Sat Jun  5 12:53:40 2010


@<TRIPOS>MOLECULE
frag5-512-438/138278 -- energy: -0.297526
   12    12     1     1     1
SMALL
USER_CHARGES


@<TRIPOS>ATOM
      1 C15         0.8532    1.0303   -0.0036 C.ar       1 <1>        0.000
      2 C16         1.3407   -0.2756   -0.0840 C.ar       1 <1>        0.000
      3 C17        -0.5216    1.2664    0.0811 C.ar       1 <1>        0.000
      4 C18         0.4502   -1.3487   -0.0822 C.ar       1 <1>        0.000
      5 Cl1         3.0638   -0.5674   -0.1847 Cl         1 <1>        0.000
      6 C19        -1.4110    0.1893    0.0834 C.ar       1 <1>        0.000
      7 Cl2        -1.1260    2.9070    0.1848 Cl         1 <1>        0.000
      8 C20        -0.9252   -1.1170    0.0032 C.ar       1 <1>        0.000
      9 H           1.5484    1.8698   -0.0069 H.spc      1 <1>        0.000
     10 H           0.8274   -2.3693   -0.1475 H.spc      1 <1>        0.000
     11 H          -2.4842    0.3687    0.1478 H.spc      1 <1>        0.000
     12 H          -1.6196   -1.9572    0.0072 H.spc      1 <1>        0.000
@<TRIPOS>BOND
     1    1    2 ar 
     2    1    3 ar 
     3    2    4 ar 
     4    2    5 1  
     5    3    6 ar 
     6    3    7 1  
     7    4    8 ar 
     8    6    8 ar 
     9    1    9 1  
    10    4   10 1  
    11    6   11 1  
    12    8   12 1  
