#      Rotatable Fragment
#      Build by yxyuan
#
# Name:          frag3-111-149/96164
# Creation time: Sat Jun  5 12:52:44 2010


@<TRIPOS>MOLECULE
frag3-111-149/96164
    7     6     1     1     1
SMALL
USER_CHARGES


@<TRIPOS>ATOM
      1 N1          1.0272   -0.3326   -0.0738 N.pl3      1 <1>        0.000
      2 C13        -0.1954    0.2624   -0.1199 C.2        1 <1>        0.000
      3 N2         -1.3314   -0.3029   -0.1960 N.2        1 <1>        0.000
      4 H           1.1008   -1.3496   -0.1002 H.spc      1 <1>        0.000
      5 H           1.8703    0.2383   -0.0128 H.spc      1 <1>        0.000
      6 H          -0.2016    1.3519   -0.0878 H.spc      1 <1>        0.000
      7 H          -1.3935   -1.3205   -0.2295 H.spc      1 <1>        0.000
@<TRIPOS>BOND
     1    1    2 1  
     2    2    3 2  
     3    1    4 1  
     4    1    5 1  
     5    2    6 1  
     6    3    7 1  
# Name:          frag3-111-149/96164 -- energy: -0.164331
# Creation time: Sat Jun  5 12:52:44 2010


@<TRIPOS>MOLECULE
frag3-111-149/96164 -- energy: -0.164331
    7     6     1     1     1
SMALL
USER_CHARGES


@<TRIPOS>ATOM
      1 N1          1.0272   -0.3326   -0.0738 N.pl3      1 <1>        0.000
      2 C13        -0.1954    0.2624   -0.1199 C.2        1 <1>        0.000
      3 N2         -1.3314   -0.3029   -0.1960 N.2        1 <1>        0.000
      4 H           1.1008   -1.3496   -0.1002 H.spc      1 <1>        0.000
      5 H           1.8703    0.2383   -0.0128 H.spc      1 <1>        0.000
      6 H          -0.2016    1.3519   -0.0878 H.spc      1 <1>        0.000
      7 H          -1.3935   -1.3205   -0.2295 H.spc      1 <1>        0.000
@<TRIPOS>BOND
     1    1    2 1  
     2    2    3 2  
     3    1    4 1  
     4    1    5 1  
     5    2    6 1  
     6    3    7 1  
