#      Rotatable Fragment
#      Build by yxyuan
#
# Name:          frag4-428-135/150395
# Creation time: Sat Jun  5 12:53:35 2010


@<TRIPOS>MOLECULE
frag4-428-135/150395
   20    20     1     1     1
SMALL
USER_CHARGES


@<TRIPOS>ATOM
      1 N1          2.0886   -0.3935   -0.0826 N.3        1 <1>        0.000
      2 C2          3.0087    0.4953    0.4451 C.3        1 <1>        0.000
      3 C3          2.3866   -1.7940   -0.0784 C.3        1 <1>        0.000
      4 C5          4.0922    1.2009   -0.2705 C.3        1 <1>        0.000
      5 C6          3.7792   -2.1724   -0.5514 C.3        1 <1>        0.000
      6 C8          5.0423    0.2264   -0.9227 C.3        1 <1>        0.000
      7 C9          5.0188   -1.2739   -0.6146 C.3        1 <1>        0.000
      8 H           2.0215   -0.1441   -1.0694 H.spc      1 <1>        0.000
      9 H           3.5796   -0.1568    1.1061 H.spc      1 <1>        0.000
     10 H           2.3633    1.3270    0.7276 H.spc      1 <1>        0.000
     11 H           1.6875   -2.2604   -0.7725 H.spc      1 <1>        0.000
     12 H           2.3130   -2.1221    0.9584 H.spc      1 <1>        0.000
     13 H           3.6477    1.8246   -1.0461 H.spc      1 <1>        0.000
     14 H           4.6497    1.8014    0.4483 H.spc      1 <1>        0.000
     15 H           4.0757   -2.8916    0.2121 H.spc      1 <1>        0.000
     16 H           3.6004   -2.3640   -1.6094 H.spc      1 <1>        0.000
     17 H           4.7680    0.2725   -1.9766 H.spc      1 <1>        0.000
     18 H           6.0195    0.5440   -0.5591 H.spc      1 <1>        0.000
     19 H           5.5453   -1.6844   -1.4762 H.spc      1 <1>        0.000
     20 H           5.3574   -1.2918    0.4213 H.spc      1 <1>        0.000
@<TRIPOS>BOND
     1    5    7 1  
     2    6    7 1  
     3    4    6 1  
     4    1    2 1  
     5    1    3 1  
     6    2    4 1  
     7    3    5 1  
     8    1    8 1  
     9    2    9 1  
    10    2   10 1  
    11    3   11 1  
    12    3   12 1  
    13    4   13 1  
    14    4   14 1  
    15    5   15 1  
    16    5   16 1  
    17    6   17 1  
    18    6   18 1  
    19    7   19 1  
    20    7   20 1  
# Name:          frag4-428-135/150395 -- energy: -1.581120
# Creation time: Sat Jun  5 12:53:35 2010


@<TRIPOS>MOLECULE
frag4-428-135/150395 -- energy: -1.581120
   20    20     1     1     1
SMALL
USER_CHARGES


@<TRIPOS>ATOM
      1 N1          2.0886   -0.3935   -0.0826 N.3        1 <1>        0.000
      2 C2          3.0087    0.4953    0.4451 C.3        1 <1>        0.000
      3 C3          2.3866   -1.7940   -0.0784 C.3        1 <1>        0.000
      4 C5          4.0922    1.2009   -0.2705 C.3        1 <1>        0.000
      5 C6          3.7792   -2.1724   -0.5514 C.3        1 <1>        0.000
      6 C8          5.0423    0.2264   -0.9227 C.3        1 <1>        0.000
      7 C9          5.0188   -1.2739   -0.6146 C.3        1 <1>        0.000
      8 H           2.0215   -0.1441   -1.0694 H.spc      1 <1>        0.000
      9 H           3.5796   -0.1568    1.1061 H.spc      1 <1>        0.000
     10 H           2.3633    1.3270    0.7276 H.spc      1 <1>        0.000
     11 H           1.6875   -2.2604   -0.7725 H.spc      1 <1>        0.000
     12 H           2.3130   -2.1221    0.9584 H.spc      1 <1>        0.000
     13 H           3.6477    1.8246   -1.0461 H.spc      1 <1>        0.000
     14 H           4.6497    1.8014    0.4483 H.spc      1 <1>        0.000
     15 H           4.0757   -2.8916    0.2121 H.spc      1 <1>        0.000
     16 H           3.6004   -2.3640   -1.6094 H.spc      1 <1>        0.000
     17 H           4.7680    0.2725   -1.9766 H.spc      1 <1>        0.000
     18 H           6.0195    0.5440   -0.5591 H.spc      1 <1>        0.000
     19 H           5.5453   -1.6844   -1.4762 H.spc      1 <1>        0.000
     20 H           5.3574   -1.2918    0.4213 H.spc      1 <1>        0.000
@<TRIPOS>BOND
     1    5    7 1  
     2    6    7 1  
     3    4    6 1  
     4    1    2 1  
     5    1    3 1  
     6    2    4 1  
     7    3    5 1  
     8    1    8 1  
     9    2    9 1  
    10    2   10 1  
    11    3   11 1  
    12    3   12 1  
    13    4   13 1  
    14    4   14 1  
    15    5   15 1  
    16    5   16 1  
    17    6   17 1  
    18    6   18 1  
    19    7   19 1  
    20    7   20 1  
