#      Rotatable Fragment
#      Build by yxyuan
#
# Name:          frag5-686-60/138278
# Creation time: Sat Jun  5 12:51:56 2010


@<TRIPOS>MOLECULE
frag5-686-60/138278
   15    16     1     1     1
SMALL
USER_CHARGES


@<TRIPOS>ATOM
      1 C16        -0.6365   -1.3852    0.0593 C.ar       1 <1>        0.000
      2 C18         0.5603   -0.6752   -0.0341 C.ar       1 <1>        0.000
      3 C19        -0.6533   -2.7664    0.3341 C.ar       1 <1>        0.000
      4 C20         1.7427   -1.3843    0.1480 C.ar       1 <1>        0.000
      5 C21         0.5509   -3.4585    0.5189 C.ar       1 <1>        0.000
      6 Cl1        -2.1724   -3.6145    0.4444 Cl         1 <1>        0.000
      7 C23         1.7371   -2.7464    0.4177 C.ar       1 <1>        0.000
      8 O4          3.0143   -0.8692    0.0940 O.3        1 <1>        0.000
      9 O5          3.0048   -3.2530    0.5641 O.3        1 <1>        0.000
     10 C24         3.7533   -2.1240    0.0249 C.3        1 <1>        0.000
     11 H          -1.5804   -0.8591   -0.0836 H.spc      1 <1>        0.000
     12 H           0.5686    0.3948   -0.2419 H.spc      1 <1>        0.000
     13 H           0.5555   -4.5266    0.7361 H.spc      1 <1>        0.000
     14 H           3.9594   -2.3319   -1.0251 H.spc      1 <1>        0.000
     15 H           4.6593   -2.0102    0.6201 H.spc      1 <1>        0.000
@<TRIPOS>BOND
     1    9   10 1  
     2    1    2 ar 
     3    1    3 ar 
     4    2    4 ar 
     5    3    5 ar 
     6    3    6 1  
     7    4    7 ar 
     8    4    8 1  
     9    5    7 ar 
    10    7    9 1  
    11    8   10 1  
    12    1   11 1  
    13    2   12 1  
    14    5   13 1  
    15   10   14 1  
    16   10   15 1  
# Name:          frag5-686-60/138278 -- energy: -0.629593
# Creation time: Sat Jun  5 12:51:56 2010


@<TRIPOS>MOLECULE
frag5-686-60/138278 -- energy: -0.629593
   15    16     1     1     1
SMALL
USER_CHARGES


@<TRIPOS>ATOM
      1 C16        -0.6365   -1.3852    0.0593 C.ar       1 <1>        0.000
      2 C18         0.5603   -0.6752   -0.0341 C.ar       1 <1>        0.000
      3 C19        -0.6533   -2.7664    0.3341 C.ar       1 <1>        0.000
      4 C20         1.7427   -1.3843    0.1480 C.ar       1 <1>        0.000
      5 C21         0.5509   -3.4585    0.5189 C.ar       1 <1>        0.000
      6 Cl1        -2.1724   -3.6145    0.4444 Cl         1 <1>        0.000
      7 C23         1.7371   -2.7464    0.4177 C.ar       1 <1>        0.000
      8 O4          3.0143   -0.8692    0.0940 O.3        1 <1>        0.000
      9 O5          3.0048   -3.2530    0.5641 O.3        1 <1>        0.000
     10 C24         3.7533   -2.1240    0.0249 C.3        1 <1>        0.000
     11 H          -1.5804   -0.8591   -0.0836 H.spc      1 <1>        0.000
     12 H           0.5686    0.3948   -0.2419 H.spc      1 <1>        0.000
     13 H           0.5555   -4.5266    0.7361 H.spc      1 <1>        0.000
     14 H           3.9594   -2.3319   -1.0251 H.spc      1 <1>        0.000
     15 H           4.6593   -2.0102    0.6201 H.spc      1 <1>        0.000
@<TRIPOS>BOND
     1    9   10 1  
     2    1    2 ar 
     3    1    3 ar 
     4    2    4 ar 
     5    3    5 ar 
     6    3    6 1  
     7    4    7 ar 
     8    4    8 1  
     9    5    7 ar 
    10    7    9 1  
    11    8   10 1  
    12    1   11 1  
    13    2   12 1  
    14    5   13 1  
    15   10   14 1  
    16   10   15 1  
