#      Rotatable Fragment
#      Build by yxyuan
#
# Name:          frag4-299-2419/150395
# Creation time: Sat Jun  5 12:53:30 2010


@<TRIPOS>MOLECULE
frag4-299-2419/150395
   15    15     1     1     1
SMALL
USER_CHARGES


@<TRIPOS>ATOM
      1 C3          1.1625   -0.4366    0.7300 C.3        1 <1>        0.000
      2 C7          0.0969    0.1659   -0.1305 C.3        1 <1>        0.000
      3 C8          1.1315   -1.9050    0.4254 C.3        1 <1>        0.000
      4 C9         -0.5673   -0.9269   -0.9100 C.3        1 <1>        0.000
      5 C10        -0.2187   -2.1789   -0.1704 C.3        1 <1>        0.000
      6 H           0.9832   -0.2417    1.7873 H.spc      1 <1>        0.000
      7 H           2.1406   -0.0034    0.5209 H.spc      1 <1>        0.000
      8 H           0.5391    0.8912   -0.8135 H.spc      1 <1>        0.000
      9 H          -0.6382    0.6748    0.4930 H.spc      1 <1>        0.000
     10 H           1.2917   -2.4973    1.3263 H.spc      1 <1>        0.000
     11 H           1.9293   -2.1808   -0.2642 H.spc      1 <1>        0.000
     12 H          -0.2270   -0.9555   -1.9451 H.spc      1 <1>        0.000
     13 H          -1.6451   -0.7810   -0.9813 H.spc      1 <1>        0.000
     14 H          -0.9588   -2.4204    0.5925 H.spc      1 <1>        0.000
     15 H          -0.2050   -3.0489   -0.8269 H.spc      1 <1>        0.000
@<TRIPOS>BOND
     1    1    2 1  
     2    1    3 1  
     3    2    4 1  
     4    3    5 1  
     5    4    5 1  
     6    1    6 1  
     7    1    7 1  
     8    2    8 1  
     9    2    9 1  
    10    3   10 1  
    11    3   11 1  
    12    4   12 1  
    13    4   13 1  
    14    5   14 1  
    15    5   15 1  
# Name:          frag4-299-2419/150395 -- energy: -1.015463
# Creation time: Sat Jun  5 12:53:30 2010


@<TRIPOS>MOLECULE
frag4-299-2419/150395 -- energy: -1.015463
   15    15     1     1     1
SMALL
USER_CHARGES


@<TRIPOS>ATOM
      1 C3          1.1625   -0.4366    0.7300 C.3        1 <1>        0.000
      2 C7          0.0969    0.1659   -0.1305 C.3        1 <1>        0.000
      3 C8          1.1315   -1.9050    0.4254 C.3        1 <1>        0.000
      4 C9         -0.5673   -0.9269   -0.9100 C.3        1 <1>        0.000
      5 C10        -0.2187   -2.1789   -0.1704 C.3        1 <1>        0.000
      6 H           0.9832   -0.2417    1.7873 H.spc      1 <1>        0.000
      7 H           2.1406   -0.0034    0.5209 H.spc      1 <1>        0.000
      8 H           0.5391    0.8912   -0.8135 H.spc      1 <1>        0.000
      9 H          -0.6382    0.6748    0.4930 H.spc      1 <1>        0.000
     10 H           1.2917   -2.4973    1.3263 H.spc      1 <1>        0.000
     11 H           1.9293   -2.1808   -0.2642 H.spc      1 <1>        0.000
     12 H          -0.2270   -0.9555   -1.9451 H.spc      1 <1>        0.000
     13 H          -1.6451   -0.7810   -0.9813 H.spc      1 <1>        0.000
     14 H          -0.9588   -2.4204    0.5925 H.spc      1 <1>        0.000
     15 H          -0.2050   -3.0489   -0.8269 H.spc      1 <1>        0.000
@<TRIPOS>BOND
     1    1    2 1  
     2    1    3 1  
     3    2    4 1  
     4    3    5 1  
     5    4    5 1  
     6    1    6 1  
     7    1    7 1  
     8    2    8 1  
     9    2    9 1  
    10    3   10 1  
    11    3   11 1  
    12    4   12 1  
    13    4   13 1  
    14    5   14 1  
    15    5   15 1  
