#      Rotatable Fragment
#      Build by yxyuan
#
# Name:          frag4-457-107/150395
# Creation time: Sat Jun  5 12:53:37 2010


@<TRIPOS>MOLECULE
frag4-457-107/150395
   21    21     1     1     1
SMALL
USER_CHARGES


@<TRIPOS>ATOM
      1 N3          2.2446    0.1307    0.1109 N.4        1 <1>        0.000
      2 C20         3.4689   -0.1744    0.8398 C.3        1 <1>        0.000
      3 C21         1.9670    1.5222   -0.2059 C.3        1 <1>        0.000
      4 C22         4.7946   -0.0956    0.1290 C.3        1 <1>        0.000
      5 C23         2.8041    2.1198   -1.3128 C.3        1 <1>        0.000
      6 C24         5.1712    1.2982   -0.3410 C.3        1 <1>        0.000
      7 C25         4.2991    1.8436   -1.4641 C.3        1 <1>        0.000
      8 H           1.4844   -0.1639    0.7239 H.spc      1 <1>        0.000
      9 H           2.3425   -0.3374   -0.7900 H.spc      1 <1>        0.000
     10 H           3.5257    0.5882    1.6165 H.spc      1 <1>        0.000
     11 H           3.3686   -1.2223    1.1227 H.spc      1 <1>        0.000
     12 H           0.9319    1.5617   -0.5451 H.spc      1 <1>        0.000
     13 H           2.1901    2.0949    0.6943 H.spc      1 <1>        0.000
     14 H           4.7198   -0.7236   -0.7587 H.spc      1 <1>        0.000
     15 H           5.5583   -0.4111    0.8398 H.spc      1 <1>        0.000
     16 H           2.3771    1.6790   -2.2136 H.spc      1 <1>        0.000
     17 H           2.7684    3.1887   -1.1026 H.spc      1 <1>        0.000
     18 H           6.1889    1.2404   -0.7270 H.spc      1 <1>        0.000
     19 H           5.0480    1.9663    0.5114 H.spc      1 <1>        0.000
     20 H           4.7147    2.8366   -1.6356 H.spc      1 <1>        0.000
     21 H           4.3259    1.0439   -2.2043 H.spc      1 <1>        0.000
@<TRIPOS>BOND
     1    5    7 1  
     2    3    5 1  
     3    2    4 1  
     4    4    6 1  
     5    1    2 1  
     6    1    3 1  
     7    6    7 1  
     8    1    8 1  
     9    1    9 1  
    10    2   10 1  
    11    2   11 1  
    12    3   12 1  
    13    3   13 1  
    14    4   14 1  
    15    4   15 1  
    16    5   16 1  
    17    5   17 1  
    18    6   18 1  
    19    6   19 1  
    20    7   20 1  
    21    7   21 1  
# Name:          frag4-457-107/150395
# Creation time: Sat Jun  5 12:53:37 2010


@<TRIPOS>MOLECULE
frag4-457-107/150395
   21    21     1     1     1
SMALL
USER_CHARGES


@<TRIPOS>ATOM
      1 N3          2.3142    0.0828    0.2393 N.4        1 <1>        0.000
      2 C20         2.0032    1.1124   -0.7376 C.3        1 <1>        0.000
      3 C21         3.5247    0.2344    1.0097 C.3        1 <1>        0.000
      4 C22         2.8657    2.3215   -1.0826 C.3        1 <1>        0.000
      5 C23         4.7619   -0.0694    0.2292 C.3        1 <1>        0.000
      6 C24         4.3614    2.1819   -0.8920 C.3        1 <1>        0.000
      7 C25         4.9182    0.7808   -1.0102 C.3        1 <1>        0.000
      8 H           2.4379   -0.7753   -0.2980 H.spc      1 <1>        0.000
      9 H           1.5531    0.1110    0.9178 H.spc      1 <1>        0.000
     10 H           2.0287    0.5484   -1.6700 H.spc      1 <1>        0.000
     11 H           1.1279    1.5844   -0.2914 H.spc      1 <1>        0.000
     12 H           3.5838    1.2745    1.3303 H.spc      1 <1>        0.000
     13 H           3.4775   -0.4695    1.8406 H.spc      1 <1>        0.000
     14 H           2.5531    3.1122   -0.4006 H.spc      1 <1>        0.000
     15 H           2.7183    2.4956   -2.1485 H.spc      1 <1>        0.000
     16 H           5.6152    0.1351    0.8759 H.spc      1 <1>        0.000
     17 H           4.6985   -1.1088   -0.0929 H.spc      1 <1>        0.000
     18 H           4.5716    2.5094    0.1262 H.spc      1 <1>        0.000
     19 H           4.8265    2.7637   -1.6878 H.spc      1 <1>        0.000
     20 H           4.3623    0.2853   -1.8062 H.spc      1 <1>        0.000
     21 H           5.9881    0.8797   -1.1934 H.spc      1 <1>        0.000
@<TRIPOS>BOND
     1    5    7 1  
     2    3    5 1  
     3    2    4 1  
     4    4    6 1  
     5    1    2 1  
     6    1    3 1  
     7    6    7 1  
     8    1    8 1  
     9    1    9 1  
    10    2   10 1  
    11    2   11 1  
    12    3   12 1  
    13    3   13 1  
    14    4   14 1  
    15    4   15 1  
    16    5   16 1  
    17    5   17 1  
    18    6   18 1  
    19    6   19 1  
    20    7   20 1  
    21    7   21 1  
# Name:          frag4-457-107/150395 -- energy: -2.450571
# Creation time: Sat Jun  5 12:53:37 2010


@<TRIPOS>MOLECULE
frag4-457-107/150395 -- energy: -2.450571
   21    21     1     1     1
SMALL
USER_CHARGES


@<TRIPOS>ATOM
      1 N3          2.2446    0.1307    0.1109 N.4        1 <1>        0.000
      2 C20         3.4689   -0.1744    0.8398 C.3        1 <1>        0.000
      3 C21         1.9670    1.5222   -0.2059 C.3        1 <1>        0.000
      4 C22         4.7946   -0.0956    0.1290 C.3        1 <1>        0.000
      5 C23         2.8041    2.1198   -1.3128 C.3        1 <1>        0.000
      6 C24         5.1712    1.2982   -0.3410 C.3        1 <1>        0.000
      7 C25         4.2991    1.8436   -1.4641 C.3        1 <1>        0.000
      8 H           1.4844   -0.1639    0.7239 H.spc      1 <1>        0.000
      9 H           2.3425   -0.3374   -0.7900 H.spc      1 <1>        0.000
     10 H           3.5257    0.5882    1.6165 H.spc      1 <1>        0.000
     11 H           3.3686   -1.2223    1.1227 H.spc      1 <1>        0.000
     12 H           0.9319    1.5617   -0.5451 H.spc      1 <1>        0.000
     13 H           2.1901    2.0949    0.6943 H.spc      1 <1>        0.000
     14 H           4.7198   -0.7236   -0.7587 H.spc      1 <1>        0.000
     15 H           5.5583   -0.4111    0.8398 H.spc      1 <1>        0.000
     16 H           2.3771    1.6790   -2.2136 H.spc      1 <1>        0.000
     17 H           2.7684    3.1887   -1.1026 H.spc      1 <1>        0.000
     18 H           6.1889    1.2404   -0.7270 H.spc      1 <1>        0.000
     19 H           5.0480    1.9663    0.5114 H.spc      1 <1>        0.000
     20 H           4.7147    2.8366   -1.6356 H.spc      1 <1>        0.000
     21 H           4.3259    1.0439   -2.2043 H.spc      1 <1>        0.000
@<TRIPOS>BOND
     1    5    7 1  
     2    3    5 1  
     3    2    4 1  
     4    4    6 1  
     5    1    2 1  
     6    1    3 1  
     7    6    7 1  
     8    1    8 1  
     9    1    9 1  
    10    2   10 1  
    11    2   11 1  
    12    3   12 1  
    13    3   13 1  
    14    4   14 1  
    15    4   15 1  
    16    5   16 1  
    17    5   17 1  
    18    6   18 1  
    19    6   19 1  
    20    7   20 1  
    21    7   21 1  
# Name:          frag4-457-107/150395 -- energy: -1.733426
# Creation time: Sat Jun  5 12:53:37 2010


@<TRIPOS>MOLECULE
frag4-457-107/150395 -- energy: -1.733426
   21    21     1     1     1
SMALL
USER_CHARGES


@<TRIPOS>ATOM
      1 N3          2.3142    0.0828    0.2393 N.4        1 <1>        0.000
      2 C20         2.0032    1.1124   -0.7376 C.3        1 <1>        0.000
      3 C21         3.5247    0.2344    1.0097 C.3        1 <1>        0.000
      4 C22         2.8657    2.3215   -1.0826 C.3        1 <1>        0.000
      5 C23         4.7619   -0.0694    0.2292 C.3        1 <1>        0.000
      6 C24         4.3614    2.1819   -0.8920 C.3        1 <1>        0.000
      7 C25         4.9182    0.7808   -1.0102 C.3        1 <1>        0.000
      8 H           2.4379   -0.7753   -0.2980 H.spc      1 <1>        0.000
      9 H           1.5531    0.1110    0.9178 H.spc      1 <1>        0.000
     10 H           2.0287    0.5484   -1.6700 H.spc      1 <1>        0.000
     11 H           1.1279    1.5844   -0.2914 H.spc      1 <1>        0.000
     12 H           3.5838    1.2745    1.3303 H.spc      1 <1>        0.000
     13 H           3.4775   -0.4695    1.8406 H.spc      1 <1>        0.000
     14 H           2.5531    3.1122   -0.4006 H.spc      1 <1>        0.000
     15 H           2.7183    2.4956   -2.1485 H.spc      1 <1>        0.000
     16 H           5.6152    0.1351    0.8759 H.spc      1 <1>        0.000
     17 H           4.6985   -1.1088   -0.0929 H.spc      1 <1>        0.000
     18 H           4.5716    2.5094    0.1262 H.spc      1 <1>        0.000
     19 H           4.8265    2.7637   -1.6878 H.spc      1 <1>        0.000
     20 H           4.3623    0.2853   -1.8062 H.spc      1 <1>        0.000
     21 H           5.9881    0.8797   -1.1934 H.spc      1 <1>        0.000
@<TRIPOS>BOND
     1    5    7 1  
     2    3    5 1  
     3    2    4 1  
     4    4    6 1  
     5    1    2 1  
     6    1    3 1  
     7    6    7 1  
     8    1    8 1  
     9    1    9 1  
    10    2   10 1  
    11    2   11 1  
    12    3   12 1  
    13    3   13 1  
    14    4   14 1  
    15    4   15 1  
    16    5   16 1  
    17    5   17 1  
    18    6   18 1  
    19    6   19 1  
    20    7   20 1  
    21    7   21 1  
