#      Rotatable Fragment
#      Build by yxyuan
#
# Name:          frag5-601-106/138278
# Creation time: Sat Jun  5 12:53:46 2010


@<TRIPOS>MOLECULE
frag5-601-106/138278
   15    15     1     1     1
SMALL
USER_CHARGES


@<TRIPOS>ATOM
      1 N1          3.2486   -0.8425   -0.0373 N.pl3      1 <1>        0.000
      2 C21         3.2301    0.5130    0.0040 C.ar       1 <1>        0.000
      3 C22         2.0144    1.2092   -0.0123 C.ar       1 <1>        0.000
      4 C23         4.4237    1.2458    0.0624 C.ar       1 <1>        0.000
      5 C24         1.9917    2.6043    0.0246 C.ar       1 <1>        0.000
      6 C25         4.4042    2.6417    0.1002 C.ar       1 <1>        0.000
      7 C26         3.1845    3.3324    0.0729 C.ar       1 <1>        0.000
      8 O3          3.1343    4.7262    0.0906 O.3        1 <1>        0.000
      9 H           2.3727   -1.3634   -0.0806 H.spc      1 <1>        0.000
     10 H           4.1384   -1.3410   -0.0250 H.spc      1 <1>        0.000
     11 H           1.0764    0.6555   -0.0542 H.spc      1 <1>        0.000
     12 H           5.3783    0.7199    0.0785 H.spc      1 <1>        0.000
     13 H           1.0370    3.1302    0.0157 H.spc      1 <1>        0.000
     14 H           5.3411    3.1964    0.1511 H.spc      1 <1>        0.000
     15 H           4.0273    5.0770    0.1241 H.spc      1 <1>        0.000
@<TRIPOS>BOND
     1    7    8 1  
     2    1    2 1  
     3    2    3 ar 
     4    2    4 ar 
     5    3    5 ar 
     6    4    6 ar 
     7    5    7 ar 
     8    6    7 ar 
     9    1    9 1  
    10    1   10 1  
    11    3   11 1  
    12    4   12 1  
    13    5   13 1  
    14    6   14 1  
    15    8   15 1  
# Name:          frag5-601-106/138278 -- energy: -0.339189
# Creation time: Sat Jun  5 12:53:46 2010


@<TRIPOS>MOLECULE
frag5-601-106/138278 -- energy: -0.339189
   15    15     1     1     1
SMALL
USER_CHARGES


@<TRIPOS>ATOM
      1 N1          3.2486   -0.8425   -0.0373 N.pl3      1 <1>        0.000
      2 C21         3.2301    0.5130    0.0040 C.ar       1 <1>        0.000
      3 C22         2.0144    1.2092   -0.0123 C.ar       1 <1>        0.000
      4 C23         4.4237    1.2458    0.0624 C.ar       1 <1>        0.000
      5 C24         1.9917    2.6043    0.0246 C.ar       1 <1>        0.000
      6 C25         4.4042    2.6417    0.1002 C.ar       1 <1>        0.000
      7 C26         3.1845    3.3324    0.0729 C.ar       1 <1>        0.000
      8 O3          3.1343    4.7262    0.0906 O.3        1 <1>        0.000
      9 H           2.3727   -1.3634   -0.0806 H.spc      1 <1>        0.000
     10 H           4.1384   -1.3410   -0.0250 H.spc      1 <1>        0.000
     11 H           1.0764    0.6555   -0.0542 H.spc      1 <1>        0.000
     12 H           5.3783    0.7199    0.0785 H.spc      1 <1>        0.000
     13 H           1.0370    3.1302    0.0157 H.spc      1 <1>        0.000
     14 H           5.3411    3.1964    0.1511 H.spc      1 <1>        0.000
     15 H           4.0273    5.0770    0.1241 H.spc      1 <1>        0.000
@<TRIPOS>BOND
     1    7    8 1  
     2    1    2 1  
     3    2    3 ar 
     4    2    4 ar 
     5    3    5 ar 
     6    4    6 ar 
     7    5    7 ar 
     8    6    7 ar 
     9    1    9 1  
    10    1   10 1  
    11    3   11 1  
    12    4   12 1  
    13    5   13 1  
    14    6   14 1  
    15    8   15 1  
