#      Rotatable Fragment
#      Build by yxyuan
#
# Name:          frag4-451-113/150395
# Creation time: Sat Jun  5 12:53:36 2010


@<TRIPOS>MOLECULE
frag4-451-113/150395
   25    26     1     1     1
SMALL
USER_CHARGES


@<TRIPOS>ATOM
      1 C1          0.2535    0.0848   -0.3312 C.ar       1 <1>        0.000
      2 C2          1.5027   -0.6367   -0.7624 C.3        1 <1>        0.000
      3 C3          0.2322    1.5057   -0.2275 C.ar       1 <1>        0.000
      4 C4         -0.9172   -0.6201   -0.0096 C.ar       1 <1>        0.000
      5 C6          2.7093   -0.4297    0.1455 C.3        1 <1>        0.000
      6 C7         -0.9333    2.1239    0.2582 C.ar       1 <1>        0.000
      7 C8          1.4426    2.3253   -0.6118 C.3        1 <1>        0.000
      8 C9         -2.0940    0.0300    0.3348 C.ar       1 <1>        0.000
      9 N1          3.4245    0.7548   -0.3639 N.4        1 <1>        0.000
     10 C12        -2.1051    1.4141    0.4666 C.ar       1 <1>        0.000
     11 C13         2.8409    2.0607   -0.0431 C.3        1 <1>        0.000
     12 H           1.7732   -0.2415   -1.7416 H.spc      1 <1>        0.000
     13 H           1.2737   -1.7022   -0.7447 H.spc      1 <1>        0.000
     14 H          -0.9015   -1.7098   -0.0310 H.spc      1 <1>        0.000
     15 H           3.3561   -1.3070    0.1379 H.spc      1 <1>        0.000
     16 H           2.3967   -0.2800    1.1789 H.spc      1 <1>        0.000
     17 H          -0.9147    3.1916    0.4770 H.spc      1 <1>        0.000
     18 H           1.5611    2.1118   -1.6741 H.spc      1 <1>        0.000
     19 H           1.2025    3.3180   -0.2311 H.spc      1 <1>        0.000
     20 H          -3.0064   -0.5425    0.5014 H.spc      1 <1>        0.000
     21 H           4.3439    0.7406    0.0776 H.spc      1 <1>        0.000
     22 H           3.4059    0.6797   -1.3810 H.spc      1 <1>        0.000
     23 H          -3.0253    1.9351    0.7309 H.spc      1 <1>        0.000
     24 H           2.7432    2.0956    1.0419 H.spc      1 <1>        0.000
     25 H           3.4992    2.8086   -0.4851 H.spc      1 <1>        0.000
@<TRIPOS>BOND
     1    1    2 1  
     2    4    8 ar 
     3    6   10 ar 
     4    3    6 ar 
     5    7   11 1  
     6    1    4 ar 
     7    9   11 1  
     8    2    5 1  
     9    3    7 1  
    10    1    3 ar 
    11    8   10 ar 
    12    5    9 1  
    13    2   12 1  
    14    2   13 1  
    15    4   14 1  
    16    5   15 1  
    17    5   16 1  
    18    6   17 1  
    19    7   18 1  
    20    7   19 1  
    21    8   20 1  
    22    9   21 1  
    23    9   22 1  
    24   10   23 1  
    25   11   24 1  
    26   11   25 1  
# Name:          frag4-451-113/150395 -- energy: -2.083987
# Creation time: Sat Jun  5 12:53:37 2010


@<TRIPOS>MOLECULE
frag4-451-113/150395 -- energy: -2.083987
   25    26     1     1     1
SMALL
USER_CHARGES


@<TRIPOS>ATOM
      1 C1          0.2535    0.0848   -0.3312 C.ar       1 <1>        0.000
      2 C2          1.5027   -0.6367   -0.7624 C.3        1 <1>        0.000
      3 C3          0.2322    1.5057   -0.2275 C.ar       1 <1>        0.000
      4 C4         -0.9172   -0.6201   -0.0096 C.ar       1 <1>        0.000
      5 C6          2.7093   -0.4297    0.1455 C.3        1 <1>        0.000
      6 C7         -0.9333    2.1239    0.2582 C.ar       1 <1>        0.000
      7 C8          1.4426    2.3253   -0.6118 C.3        1 <1>        0.000
      8 C9         -2.0940    0.0300    0.3348 C.ar       1 <1>        0.000
      9 N1          3.4245    0.7548   -0.3639 N.4        1 <1>        0.000
     10 C12        -2.1051    1.4141    0.4666 C.ar       1 <1>        0.000
     11 C13         2.8409    2.0607   -0.0431 C.3        1 <1>        0.000
     12 H           1.7732   -0.2415   -1.7416 H.spc      1 <1>        0.000
     13 H           1.2737   -1.7022   -0.7447 H.spc      1 <1>        0.000
     14 H          -0.9015   -1.7098   -0.0310 H.spc      1 <1>        0.000
     15 H           3.3561   -1.3070    0.1379 H.spc      1 <1>        0.000
     16 H           2.3967   -0.2800    1.1789 H.spc      1 <1>        0.000
     17 H          -0.9147    3.1916    0.4770 H.spc      1 <1>        0.000
     18 H           1.5611    2.1118   -1.6741 H.spc      1 <1>        0.000
     19 H           1.2025    3.3180   -0.2311 H.spc      1 <1>        0.000
     20 H          -3.0064   -0.5425    0.5014 H.spc      1 <1>        0.000
     21 H           4.3439    0.7406    0.0776 H.spc      1 <1>        0.000
     22 H           3.4059    0.6797   -1.3810 H.spc      1 <1>        0.000
     23 H          -3.0253    1.9351    0.7309 H.spc      1 <1>        0.000
     24 H           2.7432    2.0956    1.0419 H.spc      1 <1>        0.000
     25 H           3.4992    2.8086   -0.4851 H.spc      1 <1>        0.000
@<TRIPOS>BOND
     1    1    2 1  
     2    4    8 ar 
     3    6   10 ar 
     4    3    6 ar 
     5    7   11 1  
     6    1    4 ar 
     7    9   11 1  
     8    2    5 1  
     9    3    7 1  
    10    1    3 ar 
    11    8   10 ar 
    12    5    9 1  
    13    2   12 1  
    14    2   13 1  
    15    4   14 1  
    16    5   15 1  
    17    5   16 1  
    18    6   17 1  
    19    7   18 1  
    20    7   19 1  
    21    8   20 1  
    22    9   21 1  
    23    9   22 1  
    24   10   23 1  
    25   11   24 1  
    26   11   25 1  
