#      Rotatable Fragment
#      Build by yxyuan
#
# Name:          frag4-379-77/48856
# Creation time: Sat Jun  5 12:53:35 2010


@<TRIPOS>MOLECULE
frag4-379-77/48856
   11    11     1     1     1
SMALL
USER_CHARGES


@<TRIPOS>ATOM
      1 C7         -0.7623   -1.4481   -1.2421 C.3        1 <1>        0.000
      2 O1         -1.2880   -2.6515   -0.7404 O.3        1 <1>        0.000
      3 C8         -2.5824   -2.8441   -1.2478 C.3        1 <1>        0.000
      4 C9         -2.7625   -1.6422   -2.1603 C.3        1 <1>        0.000
      5 O2         -1.8389   -0.6916   -1.6868 O.3        1 <1>        0.000
      6 H          -0.0631   -1.6411   -2.0557 H.spc      1 <1>        0.000
      7 H          -0.2090   -0.9157   -0.4685 H.spc      1 <1>        0.000
      8 H          -3.3414   -2.9047   -0.4678 H.spc      1 <1>        0.000
      9 H          -2.6995   -3.7951   -1.7674 H.spc      1 <1>        0.000
     10 H          -3.7842   -1.2632   -2.1362 H.spc      1 <1>        0.000
     11 H          -2.5853   -1.8954   -3.2056 H.spc      1 <1>        0.000
@<TRIPOS>BOND
     1    1    2 1  
     2    1    5 1  
     3    2    3 1  
     4    3    4 1  
     5    4    5 1  
     6    1    6 1  
     7    1    7 1  
     8    3    8 1  
     9    3    9 1  
    10    4   10 1  
    11    4   11 1  
# Name:          frag4-379-77/48856 -- energy: -0.465494
# Creation time: Sat Jun  5 12:53:35 2010


@<TRIPOS>MOLECULE
frag4-379-77/48856 -- energy: -0.465494
   11    11     1     1     1
SMALL
USER_CHARGES


@<TRIPOS>ATOM
      1 C7         -0.7623   -1.4481   -1.2421 C.3        1 <1>        0.000
      2 O1         -1.2880   -2.6515   -0.7404 O.3        1 <1>        0.000
      3 C8         -2.5824   -2.8441   -1.2478 C.3        1 <1>        0.000
      4 C9         -2.7625   -1.6422   -2.1603 C.3        1 <1>        0.000
      5 O2         -1.8389   -0.6916   -1.6868 O.3        1 <1>        0.000
      6 H          -0.0631   -1.6411   -2.0557 H.spc      1 <1>        0.000
      7 H          -0.2090   -0.9157   -0.4685 H.spc      1 <1>        0.000
      8 H          -3.3414   -2.9047   -0.4678 H.spc      1 <1>        0.000
      9 H          -2.6995   -3.7951   -1.7674 H.spc      1 <1>        0.000
     10 H          -3.7842   -1.2632   -2.1362 H.spc      1 <1>        0.000
     11 H          -2.5853   -1.8954   -3.2056 H.spc      1 <1>        0.000
@<TRIPOS>BOND
     1    1    2 1  
     2    1    5 1  
     3    2    3 1  
     4    3    4 1  
     5    4    5 1  
     6    1    6 1  
     7    1    7 1  
     8    3    8 1  
     9    3    9 1  
    10    4   10 1  
    11    4   11 1  
