#      Rotatable Fragment
#      Build by yxyuan
#
# Name:          frag3-135-38/96164
# Creation time: Sat Jun  5 12:53:03 2010


@<TRIPOS>MOLECULE
frag3-135-38/96164
   10     9     1     1     1
SMALL
USER_CHARGES


@<TRIPOS>ATOM
      1 N3          1.1774   -1.1365    0.2177 N.pl3      1 <1>        0.000
      2 C20         0.2969   -0.1284    0.0506 C.cat      1 <1>        0.000
      3 N4         -1.0154   -0.3517    0.1340 N.pl3      1 <1>        0.000
      4 N5          0.7954    1.1042   -0.2132 N.pl3      1 <1>        0.000
      5 C22        -2.0087    0.5122    0.0504 C.1        1 <1>        0.000
      6 N6         -2.8364    1.3099   -0.0372 N.1        1 <1>        0.000
      7 H           2.1787   -0.9565    0.1441 H.spc      1 <1>        0.000
      8 H          -1.2882   -1.3232    0.2827 H.spc      1 <1>        0.000
      9 H           1.8037    1.2432   -0.2789 H.spc      1 <1>        0.000
     10 H           0.1622    1.8927   -0.3460 H.spc      1 <1>        0.000
@<TRIPOS>BOND
     1    1    2 ar 
     2    2    3 ar 
     3    2    4 ar 
     4    3    5 1  
     5    5    6 3  
     6    1    7 1  
     7    3    8 1  
     8    4    9 1  
     9    4   10 1  
# Name:          frag3-135-38/96164
# Creation time: Sat Jun  5 12:53:03 2010


@<TRIPOS>MOLECULE
frag3-135-38/96164
   10     9     1     1     1
SMALL
USER_CHARGES


@<TRIPOS>ATOM
      1 N3          0.2966   -1.1963   -0.0772 N.pl3      1 <1>        0.000
      2 C20         0.3682    0.1339    0.0628 C.cat      1 <1>        0.000
      3 N4         -0.7299    0.8399    0.3459 N.pl3      1 <1>        0.000
      4 N5          1.5632    0.7296   -0.1016 N.pl3      1 <1>        0.000
      5 C22        -2.0006    0.5400    0.1116 C.1        1 <1>        0.000
      6 N6         -3.0883    0.2628   -0.1391 N.1        1 <1>        0.000
      7 H           1.1352   -1.7312   -0.3029 H.spc      1 <1>        0.000
      8 H          -0.5686    1.7353    0.8070 H.spc      1 <1>        0.000
      9 H           2.3855    0.1697   -0.3270 H.spc      1 <1>        0.000
     10 H           1.6470    1.7412   -0.0009 H.spc      1 <1>        0.000
@<TRIPOS>BOND
     1    1    2 ar 
     2    2    3 ar 
     3    2    4 ar 
     4    3    5 1  
     5    5    6 3  
     6    1    7 1  
     7    3    8 1  
     8    4    9 1  
     9    4   10 1  
# Name:          frag3-135-38/96164 -- energy: -0.472625
# Creation time: Sat Jun  5 12:53:03 2010


@<TRIPOS>MOLECULE
frag3-135-38/96164 -- energy: -0.472625
   10     9     1     1     1
SMALL
USER_CHARGES


@<TRIPOS>ATOM
      1 N3          1.1774   -1.1365    0.2177 N.pl3      1 <1>        0.000
      2 C20         0.2969   -0.1284    0.0506 C.cat      1 <1>        0.000
      3 N4         -1.0154   -0.3517    0.1340 N.pl3      1 <1>        0.000
      4 N5          0.7954    1.1042   -0.2132 N.pl3      1 <1>        0.000
      5 C22        -2.0087    0.5122    0.0504 C.1        1 <1>        0.000
      6 N6         -2.8364    1.3099   -0.0372 N.1        1 <1>        0.000
      7 H           2.1787   -0.9565    0.1441 H.spc      1 <1>        0.000
      8 H          -1.2882   -1.3232    0.2827 H.spc      1 <1>        0.000
      9 H           1.8037    1.2432   -0.2789 H.spc      1 <1>        0.000
     10 H           0.1622    1.8927   -0.3460 H.spc      1 <1>        0.000
@<TRIPOS>BOND
     1    1    2 ar 
     2    2    3 ar 
     3    2    4 ar 
     4    3    5 1  
     5    5    6 3  
     6    1    7 1  
     7    3    8 1  
     8    4    9 1  
     9    4   10 1  
# Name:          frag3-135-38/96164 -- energy: -0.485795
# Creation time: Sat Jun  5 12:53:03 2010


@<TRIPOS>MOLECULE
frag3-135-38/96164 -- energy: -0.485795
   10     9     1     1     1
SMALL
USER_CHARGES


@<TRIPOS>ATOM
      1 N3          0.2966   -1.1963   -0.0772 N.pl3      1 <1>        0.000
      2 C20         0.3682    0.1339    0.0628 C.cat      1 <1>        0.000
      3 N4         -0.7299    0.8399    0.3459 N.pl3      1 <1>        0.000
      4 N5          1.5632    0.7296   -0.1016 N.pl3      1 <1>        0.000
      5 C22        -2.0006    0.5400    0.1116 C.1        1 <1>        0.000
      6 N6         -3.0883    0.2628   -0.1391 N.1        1 <1>        0.000
      7 H           1.1352   -1.7312   -0.3029 H.spc      1 <1>        0.000
      8 H          -0.5686    1.7353    0.8070 H.spc      1 <1>        0.000
      9 H           2.3855    0.1697   -0.3270 H.spc      1 <1>        0.000
     10 H           1.6470    1.7412   -0.0009 H.spc      1 <1>        0.000
@<TRIPOS>BOND
     1    1    2 ar 
     2    2    3 ar 
     3    2    4 ar 
     4    3    5 1  
     5    5    6 3  
     6    1    7 1  
     7    3    8 1  
     8    4    9 1  
     9    4   10 1  
