#      Rotatable Fragment
#      Build by yxyuan
#
# Name:          frag5-500-258/41815
# Creation time: Sat Jun  5 12:52:50 2010


@<TRIPOS>MOLECULE
frag5-500-258/41815
   18    18     1     1     1
SMALL
USER_CHARGES


@<TRIPOS>ATOM
      1 O2         -3.0330   -1.5860    0.5482 O.3        1 <1>        0.000
      2 C7         -2.5268   -0.4466    0.0348 C.2        1 <1>        0.000
      3 O3         -3.2474    0.4237   -0.4180 O.2        1 <1>        0.000
      4 C8         -1.0639   -0.2545    0.0318 C.ar       1 <1>        0.000
      5 C9         -0.1934   -1.3356   -0.1791 C.ar       1 <1>        0.000
      6 C10         1.2285   -1.1799   -0.1856 C.ar       1 <1>        0.000
      7 C11         1.7735    0.1102    0.0268 C.ar       1 <1>        0.000
      8 C12         0.9191    1.2180    0.2425 C.ar       1 <1>        0.000
      9 C13        -0.4959    1.0107    0.2402 C.ar       1 <1>        0.000
     10 O4          1.4803    2.4625    0.4466 O.3        1 <1>        0.000
     11 O5          3.1464    0.2889    0.0210 O.3        1 <1>        0.000
     12 O6          2.0871   -2.2429   -0.3921 O.3        1 <1>        0.000
     13 H          -2.3146   -2.1451    0.8531 H.spc      1 <1>        0.000
     14 H          -0.6153   -2.3271   -0.3434 H.spc      1 <1>        0.000
     15 H          -1.1542    1.8636    0.4058 H.spc      1 <1>        0.000
     16 H           0.7830    3.1092    0.5775 H.spc      1 <1>        0.000
     17 H           3.5771   -0.5544   -0.1373 H.spc      1 <1>        0.000
     18 H           1.5760   -3.0454   -0.5201 H.spc      1 <1>        0.000
@<TRIPOS>BOND
     1    8   10 1  
     2    7    8 ar 
     3    8    9 ar 
     4    6   12 1  
     5    7   11 1  
     6    6    7 ar 
     7    1    2 1  
     8    2    3 2  
     9    2    4 1  
    10    4    5 ar 
    11    4    9 ar 
    12    5    6 ar 
    13    1   13 1  
    14    5   14 1  
    15    9   15 1  
    16   10   16 1  
    17   11   17 1  
    18   12   18 1  
# Name:          frag5-500-258/41815
# Creation time: Sat Jun  5 12:52:50 2010


@<TRIPOS>MOLECULE
frag5-500-258/41815
   18    18     1     1     1
SMALL
USER_CHARGES


@<TRIPOS>ATOM
      1 O2         -3.0707   -1.3666   -0.7532 O.3        1 <1>        0.000
      2 C7         -2.5273   -0.4513    0.0723 C.2        1 <1>        0.000
      3 O3         -3.2090    0.2102    0.8330 O.2        1 <1>        0.000
      4 C8         -1.0632   -0.2575    0.0536 C.ar       1 <1>        0.000
      5 C9         -0.1889   -1.3533   -0.0021 C.ar       1 <1>        0.000
      6 C10         1.2323   -1.1987   -0.0193 C.ar       1 <1>        0.000
      7 C11         1.7734    0.1110    0.0203 C.ar       1 <1>        0.000
      8 C12         0.9150    1.2369    0.0776 C.ar       1 <1>        0.000
      9 C13        -0.4984    1.0251    0.0932 C.ar       1 <1>        0.000
     10 O4          1.4727    2.4969    0.1152 O.3        1 <1>        0.000
     11 O5          3.1452    0.2913   -0.0000 O.3        1 <1>        0.000
     12 O6          2.0932   -2.2756   -0.0736 O.3        1 <1>        0.000
     13 H          -2.3766   -1.7812   -1.2708 H.spc      1 <1>        0.000
     14 H          -0.6083   -2.3589   -0.0334 H.spc      1 <1>        0.000
     15 H          -1.1598    1.8904    0.1374 H.spc      1 <1>        0.000
     16 H           0.7738    3.1540    0.1521 H.spc      1 <1>        0.000
     17 H           3.5787   -0.5643   -0.0393 H.spc      1 <1>        0.000
     18 H           1.5847   -3.0896   -0.0953 H.spc      1 <1>        0.000
@<TRIPOS>BOND
     1    8   10 1  
     2    7    8 ar 
     3    8    9 ar 
     4    6   12 1  
     5    7   11 1  
     6    6    7 ar 
     7    1    2 1  
     8    2    3 2  
     9    2    4 1  
    10    4    5 ar 
    11    4    9 ar 
    12    5    6 ar 
    13    1   13 1  
    14    5   14 1  
    15    9   15 1  
    16   10   16 1  
    17   11   17 1  
    18   12   18 1  
# Name:          frag5-500-258/41815 -- energy: -0.705188
# Creation time: Sat Jun  5 12:52:50 2010


@<TRIPOS>MOLECULE
frag5-500-258/41815 -- energy: -0.705188
   18    18     1     1     1
SMALL
USER_CHARGES


@<TRIPOS>ATOM
      1 O2         -3.0330   -1.5860    0.5482 O.3        1 <1>        0.000
      2 C7         -2.5268   -0.4466    0.0348 C.2        1 <1>        0.000
      3 O3         -3.2474    0.4237   -0.4180 O.2        1 <1>        0.000
      4 C8         -1.0639   -0.2545    0.0318 C.ar       1 <1>        0.000
      5 C9         -0.1934   -1.3356   -0.1791 C.ar       1 <1>        0.000
      6 C10         1.2285   -1.1799   -0.1856 C.ar       1 <1>        0.000
      7 C11         1.7735    0.1102    0.0268 C.ar       1 <1>        0.000
      8 C12         0.9191    1.2180    0.2425 C.ar       1 <1>        0.000
      9 C13        -0.4959    1.0107    0.2402 C.ar       1 <1>        0.000
     10 O4          1.4803    2.4625    0.4466 O.3        1 <1>        0.000
     11 O5          3.1464    0.2889    0.0210 O.3        1 <1>        0.000
     12 O6          2.0871   -2.2429   -0.3921 O.3        1 <1>        0.000
     13 H          -2.3146   -2.1451    0.8531 H.spc      1 <1>        0.000
     14 H          -0.6153   -2.3271   -0.3434 H.spc      1 <1>        0.000
     15 H          -1.1542    1.8636    0.4058 H.spc      1 <1>        0.000
     16 H           0.7830    3.1092    0.5775 H.spc      1 <1>        0.000
     17 H           3.5771   -0.5544   -0.1373 H.spc      1 <1>        0.000
     18 H           1.5760   -3.0454   -0.5201 H.spc      1 <1>        0.000
@<TRIPOS>BOND
     1    8   10 1  
     2    7    8 ar 
     3    8    9 ar 
     4    6   12 1  
     5    7   11 1  
     6    6    7 ar 
     7    1    2 1  
     8    2    3 2  
     9    2    4 1  
    10    4    5 ar 
    11    4    9 ar 
    12    5    6 ar 
    13    1   13 1  
    14    5   14 1  
    15    9   15 1  
    16   10   16 1  
    17   11   17 1  
    18   12   18 1  
# Name:          frag5-500-258/41815 -- energy: -0.855283
# Creation time: Sat Jun  5 12:52:50 2010


@<TRIPOS>MOLECULE
frag5-500-258/41815 -- energy: -0.855283
   18    18     1     1     1
SMALL
USER_CHARGES


@<TRIPOS>ATOM
      1 O2         -3.0707   -1.3666   -0.7532 O.3        1 <1>        0.000
      2 C7         -2.5273   -0.4513    0.0723 C.2        1 <1>        0.000
      3 O3         -3.2090    0.2102    0.8330 O.2        1 <1>        0.000
      4 C8         -1.0632   -0.2575    0.0536 C.ar       1 <1>        0.000
      5 C9         -0.1889   -1.3533   -0.0021 C.ar       1 <1>        0.000
      6 C10         1.2323   -1.1987   -0.0193 C.ar       1 <1>        0.000
      7 C11         1.7734    0.1110    0.0203 C.ar       1 <1>        0.000
      8 C12         0.9150    1.2369    0.0776 C.ar       1 <1>        0.000
      9 C13        -0.4984    1.0251    0.0932 C.ar       1 <1>        0.000
     10 O4          1.4727    2.4969    0.1152 O.3        1 <1>        0.000
     11 O5          3.1452    0.2913   -0.0000 O.3        1 <1>        0.000
     12 O6          2.0932   -2.2756   -0.0736 O.3        1 <1>        0.000
     13 H          -2.3766   -1.7812   -1.2708 H.spc      1 <1>        0.000
     14 H          -0.6083   -2.3589   -0.0334 H.spc      1 <1>        0.000
     15 H          -1.1598    1.8904    0.1374 H.spc      1 <1>        0.000
     16 H           0.7738    3.1540    0.1521 H.spc      1 <1>        0.000
     17 H           3.5787   -0.5643   -0.0393 H.spc      1 <1>        0.000
     18 H           1.5847   -3.0896   -0.0953 H.spc      1 <1>        0.000
@<TRIPOS>BOND
     1    8   10 1  
     2    7    8 ar 
     3    8    9 ar 
     4    6   12 1  
     5    7   11 1  
     6    6    7 ar 
     7    1    2 1  
     8    2    3 2  
     9    2    4 1  
    10    4    5 ar 
    11    4    9 ar 
    12    5    6 ar 
    13    1   13 1  
    14    5   14 1  
    15    9   15 1  
    16   10   16 1  
    17   11   17 1  
    18   12   18 1  
