#      Rotatable Fragment
#      Build by yxyuan
#
# Name:          frag3-131-34/31924
# Creation time: Sat Jun  5 12:52:03 2010


@<TRIPOS>MOLECULE
frag3-131-34/31924
    6     5     1     1     1
SMALL
USER_CHARGES


@<TRIPOS>ATOM
      1 C16        -4.9318   -0.8851    3.3170 C.2        1 <1>        0.000
      2 N2         -5.5456   -1.8545    3.8525 N.2        1 <1>        0.000
      3 O1         -6.7300   -2.0849    3.1533 O.3        1 <1>        0.000
      4 H          -5.3578   -0.3835    2.4481 H.spc      1 <1>        0.000
      5 H          -3.9774   -0.5522    3.7249 H.spc      1 <1>        0.000
      6 H          -7.1998   -2.8193    3.5552 H.spc      1 <1>        0.000
@<TRIPOS>BOND
     1    1    2 2  
     2    2    3 1  
     3    1    4 1  
     4    1    5 1  
     5    3    6 1  
# Name:          frag3-131-34/31924 -- energy: 0.002494
# Creation time: Sat Jun  5 12:52:03 2010


@<TRIPOS>MOLECULE
frag3-131-34/31924 -- energy: 0.002494
    6     5     1     1     1
SMALL
USER_CHARGES


@<TRIPOS>ATOM
      1 C16        -4.9318   -0.8851    3.3170 C.2        1 <1>        0.000
      2 N2         -5.5456   -1.8545    3.8525 N.2        1 <1>        0.000
      3 O1         -6.7300   -2.0849    3.1533 O.3        1 <1>        0.000
      4 H          -5.3578   -0.3835    2.4481 H.spc      1 <1>        0.000
      5 H          -3.9774   -0.5522    3.7249 H.spc      1 <1>        0.000
      6 H          -7.1998   -2.8193    3.5552 H.spc      1 <1>        0.000
@<TRIPOS>BOND
     1    1    2 2  
     2    2    3 1  
     3    1    4 1  
     4    1    5 1  
     5    3    6 1  
