#      Rotatable Fragment
#      Build by yxyuan
#
# Name:          frag5-540-73/41815
# Creation time: Sat Jun  5 12:52:52 2010


@<TRIPOS>MOLECULE
frag5-540-73/41815
   26    28     1     1     1
SMALL
USER_CHARGES


@<TRIPOS>ATOM
      1 N1         -4.1416    2.8975   -1.2421 N.ar       1 <1>        0.000
      2 N2         -3.8015    3.6890   -2.3487 N.ar       1 <1>        0.000
      3 N3         -4.2066    3.0969   -3.3857 N.ar       1 <1>        0.000
      4 N4         -4.8284    1.9037   -3.0318 N.ar       1 <1>        0.000
      5 C1         -4.8050    1.7642   -1.7408 C.ar       1 <1>        0.000
      6 C2         -5.3382    0.6833   -0.9022 C.ar       1 <1>        0.000
      7 C3         -4.4351   -0.1144   -0.1622 C.ar       1 <1>        0.000
      8 C4         -4.9716   -1.1512    0.6267 C.ar       1 <1>        0.000
      9 C13        -2.3048   -0.0553   -1.4258 C.ar       1 <1>        0.000
     10 C5         -6.3396   -1.3876    0.6804 C.ar       1 <1>        0.000
     11 C6         -7.2093   -0.5864   -0.0579 C.ar       1 <1>        0.000
     12 C7         -6.7083    0.4495   -0.8467 C.ar       1 <1>        0.000
     13 C8         -3.0206    0.1225   -0.2254 C.ar       1 <1>        0.000
     14 C9         -2.3009    0.5656    0.8981 C.ar       1 <1>        0.000
     15 C10        -0.9359    0.8160    0.8339 C.ar       1 <1>        0.000
     16 C11        -0.2552    0.6275   -0.3682 C.ar       1 <1>        0.000
     17 C12        -0.9404    0.1898   -1.5007 C.ar       1 <1>        0.000
     18 H          -4.2985   -1.7817    1.2077 H.spc      1 <1>        0.000
     19 H          -2.8346   -0.3932   -2.3164 H.spc      1 <1>        0.000
     20 H          -6.7313   -2.1963    1.2974 H.spc      1 <1>        0.000
     21 H          -8.2831   -0.7697   -0.0188 H.spc      1 <1>        0.000
     22 H          -7.3912    1.0763   -1.4201 H.spc      1 <1>        0.000
     23 H          -2.8260    0.7162    1.8413 H.spc      1 <1>        0.000
     24 H          -0.3997    1.1582    1.7190 H.spc      1 <1>        0.000
     25 H           0.8158    0.8229   -0.4227 H.spc      1 <1>        0.000
     26 H          -0.4077    0.0408   -2.4399 H.spc      1 <1>        0.000
@<TRIPOS>BOND
     1   17    9 ar 
     2   13   14 ar 
     3   11   12 ar 
     4    3    4 ar 
     5    7    8 ar 
     6   15   16 ar 
     7    7   13 1  
     8   14   15 ar 
     9    6   12 ar 
    10   16   17 ar 
    11    8   10 ar 
    12    5    6 1  
    13    2    3 ar 
    14   10   11 ar 
    15    6    7 ar 
    16    1    2 ar 
    17    1    5 ar 
    18   13    9 ar 
    19    4    5 ar 
    20    8   18 1  
    21    9   19 1  
    22   10   20 1  
    23   11   21 1  
    24   12   22 1  
    25   14   23 1  
    26   15   24 1  
    27   16   25 1  
    28   17   26 1  
# Name:          frag5-540-73/41815
# Creation time: Sat Jun  5 12:52:52 2010


@<TRIPOS>MOLECULE
frag5-540-73/41815
   26    28     1     1     1
SMALL
USER_CHARGES


@<TRIPOS>ATOM
      1 N1         -4.0018    1.7500   -2.7794 N.ar       1 <1>        0.000
      2 N2         -3.7142    3.0633   -3.1800 N.ar       1 <1>        0.000
      3 N3         -4.2982    3.8458   -2.3808 N.ar       1 <1>        0.000
      4 N4         -4.9928    3.1101   -1.4265 N.ar       1 <1>        0.000
      5 C1         -4.8246    1.8410   -1.6446 C.ar       1 <1>        0.000
      6 C2         -5.3427    0.6833   -0.9058 C.ar       1 <1>        0.000
      7 C3         -4.4302   -0.1461   -0.2145 C.ar       1 <1>        0.000
      8 C4         -4.9526   -1.2353    0.5106 C.ar       1 <1>        0.000
      9 C13        -2.4460    1.1004    0.5900 C.ar       1 <1>        0.000
     10 C5         -6.3165   -1.5002    0.5374 C.ar       1 <1>        0.000
     11 C6         -7.1952   -0.6760   -0.1644 C.ar       1 <1>        0.000
     12 C7         -6.7077    0.4136   -0.8866 C.ar       1 <1>        0.000
     13 C8         -3.0201    0.1232   -0.2442 C.ar       1 <1>        0.000
     14 C9         -2.1635   -0.5672   -1.1214 C.ar       1 <1>        0.000
     15 C10        -0.7980   -0.3131   -1.1510 C.ar       1 <1>        0.000
     16 C11        -0.2567    0.6539   -0.3044 C.ar       1 <1>        0.000
     17 C12        -1.0821    1.3640    0.5667 C.ar       1 <1>        0.000
     18 H          -4.2724   -1.8841    1.0624 H.spc      1 <1>        0.000
     19 H          -3.0858    1.6632    1.2697 H.spc      1 <1>        0.000
     20 H          -6.6979   -2.3491    1.1049 H.spc      1 <1>        0.000
     21 H          -8.2652   -0.8834   -0.1488 H.spc      1 <1>        0.000
     22 H          -7.3969    1.0544   -1.4365 H.spc      1 <1>        0.000
     23 H          -2.5805   -1.3180   -1.7926 H.spc      1 <1>        0.000
     24 H          -0.1527   -0.8670   -1.8328 H.spc      1 <1>        0.000
     25 H           0.8144    0.8551   -0.3237 H.spc      1 <1>        0.000
     26 H          -0.6594    2.1221    1.2260 H.spc      1 <1>        0.000
@<TRIPOS>BOND
     1   17    9 ar 
     2   13   14 ar 
     3   11   12 ar 
     4    3    4 ar 
     5    7    8 ar 
     6   15   16 ar 
     7    7   13 1  
     8   14   15 ar 
     9    6   12 ar 
    10   16   17 ar 
    11    8   10 ar 
    12    5    6 1  
    13    2    3 ar 
    14   10   11 ar 
    15    6    7 ar 
    16    1    2 ar 
    17    1    5 ar 
    18   13    9 ar 
    19    4    5 ar 
    20    8   18 1  
    21    9   19 1  
    22   10   20 1  
    23   11   21 1  
    24   12   22 1  
    25   14   23 1  
    26   15   24 1  
    27   16   25 1  
    28   17   26 1  
# Name:          frag5-540-73/41815
# Creation time: Sat Jun  5 12:52:52 2010


@<TRIPOS>MOLECULE
frag5-540-73/41815
   26    28     1     1     1
SMALL
USER_CHARGES


@<TRIPOS>ATOM
      1 N1         -3.5496    2.4352   -1.6347 N.ar       1 <1>        0.000
      2 N2         -3.5490    3.5186   -2.5227 N.ar       1 <1>        0.000
      3 N3         -4.6685    3.5958   -3.0712 N.ar       1 <1>        0.000
      4 N4         -5.4945    2.5741   -2.5731 N.ar       1 <1>        0.000
      5 C1         -4.8313    1.8617   -1.7126 C.ar       1 <1>        0.000
      6 C2         -5.3225    0.6720   -0.9316 C.ar       1 <1>        0.000
      7 C3         -4.4272   -0.1466   -0.2110 C.ar       1 <1>        0.000
      8 C4         -4.9675   -1.2497    0.4672 C.ar       1 <1>        0.000
      9 C13        -2.4016    1.1165    0.5272 C.ar       1 <1>        0.000
     10 C5         -6.3311   -1.5131    0.5083 C.ar       1 <1>        0.000
     11 C6         -7.2011   -0.6855   -0.1748 C.ar       1 <1>        0.000
     12 C7         -6.7074    0.4051   -0.8932 C.ar       1 <1>        0.000
     13 C8         -2.9814    0.0710   -0.1935 C.ar       1 <1>        0.000
     14 C9         -2.0987   -0.7568   -0.8930 C.ar       1 <1>        0.000
     15 C10        -0.7285   -0.4996   -0.9430 C.ar       1 <1>        0.000
     16 C11        -0.2168    0.6258   -0.3079 C.ar       1 <1>        0.000
     17 C12        -1.0664    1.4859    0.3604 C.ar       1 <1>        0.000
     18 H          -4.2889   -1.9286    0.9836 H.spc      1 <1>        0.000
     19 H          -3.0130    1.6632    1.2451 H.spc      1 <1>        0.000
     20 H          -6.7106   -2.3641    1.0738 H.spc      1 <1>        0.000
     21 H          -8.2727   -0.8839   -0.1529 H.spc      1 <1>        0.000
     22 H          -7.3980    1.0562   -1.4292 H.spc      1 <1>        0.000
     23 H          -2.4926   -1.6290   -1.4148 H.spc      1 <1>        0.000
     24 H          -0.0628   -1.1775   -1.4772 H.spc      1 <1>        0.000
     25 H           0.8536    0.8295   -0.3371 H.spc      1 <1>        0.000
     26 H          -0.7005    2.4357    0.7503 H.spc      1 <1>        0.000
@<TRIPOS>BOND
     1   17    9 ar 
     2   13   14 ar 
     3   11   12 ar 
     4    3    4 ar 
     5    7    8 ar 
     6   15   16 ar 
     7    7   13 1  
     8   14   15 ar 
     9    6   12 ar 
    10   16   17 ar 
    11    8   10 ar 
    12    5    6 1  
    13    2    3 ar 
    14   10   11 ar 
    15    6    7 ar 
    16    1    2 ar 
    17    1    5 ar 
    18   13    9 ar 
    19    4    5 ar 
    20    8   18 1  
    21    9   19 1  
    22   10   20 1  
    23   11   21 1  
    24   12   22 1  
    25   14   23 1  
    26   15   24 1  
    27   16   25 1  
    28   17   26 1  
# Name:          frag5-540-73/41815
# Creation time: Sat Jun  5 12:52:52 2010


@<TRIPOS>MOLECULE
frag5-540-73/41815
   26    28     1     1     1
SMALL
USER_CHARGES


@<TRIPOS>ATOM
      1 N1         -5.3351    3.1354   -1.6460 N.ar       1 <1>        0.000
      2 N2         -4.5185    3.9144   -2.4764 N.ar       1 <1>        0.000
      3 N3         -3.5713    3.1907   -2.8788 N.ar       1 <1>        0.000
      4 N4         -3.7056    1.9175   -2.3495 N.ar       1 <1>        0.000
      5 C1         -4.7675    1.8550   -1.6012 C.ar       1 <1>        0.000
      6 C2         -5.3254    0.7293   -0.8412 C.ar       1 <1>        0.000
      7 C3         -4.4274   -0.1539   -0.2113 C.ar       1 <1>        0.000
      8 C4         -4.9662   -1.2347    0.5118 C.ar       1 <1>        0.000
      9 C13        -2.2314   -0.6694   -1.2316 C.ar       1 <1>        0.000
     10 C5         -6.3382   -1.4361    0.6017 C.ar       1 <1>        0.000
     11 C6         -7.2097   -0.5526   -0.0331 C.ar       1 <1>        0.000
     12 C7         -6.7066    0.5331   -0.7506 C.ar       1 <1>        0.000
     13 C8         -3.0097    0.0492   -0.3054 C.ar       1 <1>        0.000
     14 C9         -2.3500    0.9986    0.4987 C.ar       1 <1>        0.000
     15 C10        -0.9814    1.2145    0.3916 C.ar       1 <1>        0.000
     16 C11        -0.2372    0.4821   -0.5323 C.ar       1 <1>        0.000
     17 C12        -0.8620   -0.4624   -1.3454 C.ar       1 <1>        0.000
     18 H          -4.2919   -1.9294    1.0126 H.spc      1 <1>        0.000
     19 H          -2.7138   -1.4055   -1.8747 H.spc      1 <1>        0.000
     20 H          -6.7313   -2.2815    1.1663 H.spc      1 <1>        0.000
     21 H          -8.2863   -0.7102    0.0312 H.spc      1 <1>        0.000
     22 H          -7.3896    1.2275   -1.2399 H.spc      1 <1>        0.000
     23 H          -2.9257    1.5770    1.2212 H.spc      1 <1>        0.000
     24 H          -0.4921    1.9529    1.0268 H.spc      1 <1>        0.000
     25 H           0.8365    0.6485   -0.6192 H.spc      1 <1>        0.000
     26 H          -0.2794   -1.0355   -2.0666 H.spc      1 <1>        0.000
@<TRIPOS>BOND
     1   17    9 ar 
     2   13   14 ar 
     3   11   12 ar 
     4    3    4 ar 
     5    7    8 ar 
     6   15   16 ar 
     7    7   13 1  
     8   14   15 ar 
     9    6   12 ar 
    10   16   17 ar 
    11    8   10 ar 
    12    5    6 1  
    13    2    3 ar 
    14   10   11 ar 
    15    6    7 ar 
    16    1    2 ar 
    17    1    5 ar 
    18   13    9 ar 
    19    4    5 ar 
    20    8   18 1  
    21    9   19 1  
    22   10   20 1  
    23   11   21 1  
    24   12   22 1  
    25   14   23 1  
    26   15   24 1  
    27   16   25 1  
    28   17   26 1  
# Name:          frag5-540-73/41815
# Creation time: Sat Jun  5 12:52:52 2010


@<TRIPOS>MOLECULE
frag5-540-73/41815
   26    28     1     1     1
SMALL
USER_CHARGES


@<TRIPOS>ATOM
      1 N1         -5.3182    2.3486   -2.8012 N.ar       1 <1>        0.000
      2 N2         -4.5007    3.4090   -3.2135 N.ar       1 <1>        0.000
      3 N3         -3.5793    3.5409   -2.3675 N.ar       1 <1>        0.000
      4 N4         -3.7328    2.5954   -1.3675 N.ar       1 <1>        0.000
      5 C1         -4.7755    1.8560   -1.6069 C.ar       1 <1>        0.000
      6 C2         -5.3287    0.7256   -0.8507 C.ar       1 <1>        0.000
      7 C3         -4.4277   -0.1314   -0.1901 C.ar       1 <1>        0.000
      8 C4         -4.9616   -1.2039    0.5489 C.ar       1 <1>        0.000
      9 C13        -2.3210    0.7820    0.7372 C.ar       1 <1>        0.000
     10 C5         -6.3318   -1.4237    0.6230 C.ar       1 <1>        0.000
     11 C6         -7.2061   -0.5692   -0.0467 C.ar       1 <1>        0.000
     12 C7         -6.7075    0.5026   -0.7878 C.ar       1 <1>        0.000
     13 C8         -3.0111    0.0846   -0.2718 C.ar       1 <1>        0.000
     14 C9         -2.2635   -0.3679   -1.3757 C.ar       1 <1>        0.000
     15 C10        -0.8918   -0.1604   -1.4572 C.ar       1 <1>        0.000
     16 C11        -0.2351    0.5235   -0.4349 C.ar       1 <1>        0.000
     17 C12        -0.9505    0.9988    0.6633 C.ar       1 <1>        0.000
     18 H          -4.2849   -1.8773    1.0750 H.spc      1 <1>        0.000
     19 H          -2.8744    1.1608    1.5965 H.spc      1 <1>        0.000
     20 H          -6.7212   -2.2608    1.2024 H.spc      1 <1>        0.000
     21 H          -8.2814   -0.7387    0.0087 H.spc      1 <1>        0.000
     22 H          -7.3921    1.1653   -1.3171 H.spc      1 <1>        0.000
     23 H          -2.7720   -0.8927   -2.1845 H.spc      1 <1>        0.000
     24 H          -0.3320   -0.5305   -2.3161 H.spc      1 <1>        0.000
     25 H           0.8409    0.6870   -0.4945 H.spc      1 <1>        0.000
     26 H          -0.4374    1.5377    1.4598 H.spc      1 <1>        0.000
@<TRIPOS>BOND
     1   17    9 ar 
     2   13   14 ar 
     3   11   12 ar 
     4    3    4 ar 
     5    7    8 ar 
     6   15   16 ar 
     7    7   13 1  
     8   14   15 ar 
     9    6   12 ar 
    10   16   17 ar 
    11    8   10 ar 
    12    5    6 1  
    13    2    3 ar 
    14   10   11 ar 
    15    6    7 ar 
    16    1    2 ar 
    17    1    5 ar 
    18   13    9 ar 
    19    4    5 ar 
    20    8   18 1  
    21    9   19 1  
    22   10   20 1  
    23   11   21 1  
    24   12   22 1  
    25   14   23 1  
    26   15   24 1  
    27   16   25 1  
    28   17   26 1  
# Name:          frag5-540-73/41815 -- energy: -2.706023
# Creation time: Sat Jun  5 12:52:52 2010


@<TRIPOS>MOLECULE
frag5-540-73/41815 -- energy: -2.706023
   26    28     1     1     1
SMALL
USER_CHARGES


@<TRIPOS>ATOM
      1 N1         -4.1416    2.8975   -1.2421 N.ar       1 <1>        0.000
      2 N2         -3.8015    3.6890   -2.3487 N.ar       1 <1>        0.000
      3 N3         -4.2066    3.0969   -3.3857 N.ar       1 <1>        0.000
      4 N4         -4.8284    1.9037   -3.0318 N.ar       1 <1>        0.000
      5 C1         -4.8050    1.7642   -1.7408 C.ar       1 <1>        0.000
      6 C2         -5.3382    0.6833   -0.9022 C.ar       1 <1>        0.000
      7 C3         -4.4351   -0.1144   -0.1622 C.ar       1 <1>        0.000
      8 C4         -4.9716   -1.1512    0.6267 C.ar       1 <1>        0.000
      9 C13        -2.3048   -0.0553   -1.4258 C.ar       1 <1>        0.000
     10 C5         -6.3396   -1.3876    0.6804 C.ar       1 <1>        0.000
     11 C6         -7.2093   -0.5864   -0.0579 C.ar       1 <1>        0.000
     12 C7         -6.7083    0.4495   -0.8467 C.ar       1 <1>        0.000
     13 C8         -3.0206    0.1225   -0.2254 C.ar       1 <1>        0.000
     14 C9         -2.3009    0.5656    0.8981 C.ar       1 <1>        0.000
     15 C10        -0.9359    0.8160    0.8339 C.ar       1 <1>        0.000
     16 C11        -0.2552    0.6275   -0.3682 C.ar       1 <1>        0.000
     17 C12        -0.9404    0.1898   -1.5007 C.ar       1 <1>        0.000
     18 H          -4.2985   -1.7817    1.2077 H.spc      1 <1>        0.000
     19 H          -2.8346   -0.3932   -2.3164 H.spc      1 <1>        0.000
     20 H          -6.7313   -2.1963    1.2974 H.spc      1 <1>        0.000
     21 H          -8.2831   -0.7697   -0.0188 H.spc      1 <1>        0.000
     22 H          -7.3912    1.0763   -1.4201 H.spc      1 <1>        0.000
     23 H          -2.8260    0.7162    1.8413 H.spc      1 <1>        0.000
     24 H          -0.3997    1.1582    1.7190 H.spc      1 <1>        0.000
     25 H           0.8158    0.8229   -0.4227 H.spc      1 <1>        0.000
     26 H          -0.4077    0.0408   -2.4399 H.spc      1 <1>        0.000
@<TRIPOS>BOND
     1   17    9 ar 
     2   13   14 ar 
     3   11   12 ar 
     4    3    4 ar 
     5    7    8 ar 
     6   15   16 ar 
     7    7   13 1  
     8   14   15 ar 
     9    6   12 ar 
    10   16   17 ar 
    11    8   10 ar 
    12    5    6 1  
    13    2    3 ar 
    14   10   11 ar 
    15    6    7 ar 
    16    1    2 ar 
    17    1    5 ar 
    18   13    9 ar 
    19    4    5 ar 
    20    8   18 1  
    21    9   19 1  
    22   10   20 1  
    23   11   21 1  
    24   12   22 1  
    25   14   23 1  
    26   15   24 1  
    27   16   25 1  
    28   17   26 1  
# Name:          frag5-540-73/41815 -- energy: -2.681950
# Creation time: Sat Jun  5 12:52:52 2010


@<TRIPOS>MOLECULE
frag5-540-73/41815 -- energy: -2.681950
   26    28     1     1     1
SMALL
USER_CHARGES


@<TRIPOS>ATOM
      1 N1         -4.0018    1.7500   -2.7794 N.ar       1 <1>        0.000
      2 N2         -3.7142    3.0633   -3.1800 N.ar       1 <1>        0.000
      3 N3         -4.2982    3.8458   -2.3808 N.ar       1 <1>        0.000
      4 N4         -4.9928    3.1101   -1.4265 N.ar       1 <1>        0.000
      5 C1         -4.8246    1.8410   -1.6446 C.ar       1 <1>        0.000
      6 C2         -5.3427    0.6833   -0.9058 C.ar       1 <1>        0.000
      7 C3         -4.4302   -0.1461   -0.2145 C.ar       1 <1>        0.000
      8 C4         -4.9526   -1.2353    0.5106 C.ar       1 <1>        0.000
      9 C13        -2.4460    1.1004    0.5900 C.ar       1 <1>        0.000
     10 C5         -6.3165   -1.5002    0.5374 C.ar       1 <1>        0.000
     11 C6         -7.1952   -0.6760   -0.1644 C.ar       1 <1>        0.000
     12 C7         -6.7077    0.4136   -0.8866 C.ar       1 <1>        0.000
     13 C8         -3.0201    0.1232   -0.2442 C.ar       1 <1>        0.000
     14 C9         -2.1635   -0.5672   -1.1214 C.ar       1 <1>        0.000
     15 C10        -0.7980   -0.3131   -1.1510 C.ar       1 <1>        0.000
     16 C11        -0.2567    0.6539   -0.3044 C.ar       1 <1>        0.000
     17 C12        -1.0821    1.3640    0.5667 C.ar       1 <1>        0.000
     18 H          -4.2724   -1.8841    1.0624 H.spc      1 <1>        0.000
     19 H          -3.0858    1.6632    1.2697 H.spc      1 <1>        0.000
     20 H          -6.6979   -2.3491    1.1049 H.spc      1 <1>        0.000
     21 H          -8.2652   -0.8834   -0.1488 H.spc      1 <1>        0.000
     22 H          -7.3969    1.0544   -1.4365 H.spc      1 <1>        0.000
     23 H          -2.5805   -1.3180   -1.7926 H.spc      1 <1>        0.000
     24 H          -0.1527   -0.8670   -1.8328 H.spc      1 <1>        0.000
     25 H           0.8144    0.8551   -0.3237 H.spc      1 <1>        0.000
     26 H          -0.6594    2.1221    1.2260 H.spc      1 <1>        0.000
@<TRIPOS>BOND
     1   17    9 ar 
     2   13   14 ar 
     3   11   12 ar 
     4    3    4 ar 
     5    7    8 ar 
     6   15   16 ar 
     7    7   13 1  
     8   14   15 ar 
     9    6   12 ar 
    10   16   17 ar 
    11    8   10 ar 
    12    5    6 1  
    13    2    3 ar 
    14   10   11 ar 
    15    6    7 ar 
    16    1    2 ar 
    17    1    5 ar 
    18   13    9 ar 
    19    4    5 ar 
    20    8   18 1  
    21    9   19 1  
    22   10   20 1  
    23   11   21 1  
    24   12   22 1  
    25   14   23 1  
    26   15   24 1  
    27   16   25 1  
    28   17   26 1  
# Name:          frag5-540-73/41815 -- energy: -2.219341
# Creation time: Sat Jun  5 12:52:52 2010


@<TRIPOS>MOLECULE
frag5-540-73/41815 -- energy: -2.219341
   26    28     1     1     1
SMALL
USER_CHARGES


@<TRIPOS>ATOM
      1 N1         -3.5496    2.4352   -1.6347 N.ar       1 <1>        0.000
      2 N2         -3.5490    3.5186   -2.5227 N.ar       1 <1>        0.000
      3 N3         -4.6685    3.5958   -3.0712 N.ar       1 <1>        0.000
      4 N4         -5.4945    2.5741   -2.5731 N.ar       1 <1>        0.000
      5 C1         -4.8313    1.8617   -1.7126 C.ar       1 <1>        0.000
      6 C2         -5.3225    0.6720   -0.9316 C.ar       1 <1>        0.000
      7 C3         -4.4272   -0.1466   -0.2110 C.ar       1 <1>        0.000
      8 C4         -4.9675   -1.2497    0.4672 C.ar       1 <1>        0.000
      9 C13        -2.4016    1.1165    0.5272 C.ar       1 <1>        0.000
     10 C5         -6.3311   -1.5131    0.5083 C.ar       1 <1>        0.000
     11 C6         -7.2011   -0.6855   -0.1748 C.ar       1 <1>        0.000
     12 C7         -6.7074    0.4051   -0.8932 C.ar       1 <1>        0.000
     13 C8         -2.9814    0.0710   -0.1935 C.ar       1 <1>        0.000
     14 C9         -2.0987   -0.7568   -0.8930 C.ar       1 <1>        0.000
     15 C10        -0.7285   -0.4996   -0.9430 C.ar       1 <1>        0.000
     16 C11        -0.2168    0.6258   -0.3079 C.ar       1 <1>        0.000
     17 C12        -1.0664    1.4859    0.3604 C.ar       1 <1>        0.000
     18 H          -4.2889   -1.9286    0.9836 H.spc      1 <1>        0.000
     19 H          -3.0130    1.6632    1.2451 H.spc      1 <1>        0.000
     20 H          -6.7106   -2.3641    1.0738 H.spc      1 <1>        0.000
     21 H          -8.2727   -0.8839   -0.1529 H.spc      1 <1>        0.000
     22 H          -7.3980    1.0562   -1.4292 H.spc      1 <1>        0.000
     23 H          -2.4926   -1.6290   -1.4148 H.spc      1 <1>        0.000
     24 H          -0.0628   -1.1775   -1.4772 H.spc      1 <1>        0.000
     25 H           0.8536    0.8295   -0.3371 H.spc      1 <1>        0.000
     26 H          -0.7005    2.4357    0.7503 H.spc      1 <1>        0.000
@<TRIPOS>BOND
     1   17    9 ar 
     2   13   14 ar 
     3   11   12 ar 
     4    3    4 ar 
     5    7    8 ar 
     6   15   16 ar 
     7    7   13 1  
     8   14   15 ar 
     9    6   12 ar 
    10   16   17 ar 
    11    8   10 ar 
    12    5    6 1  
    13    2    3 ar 
    14   10   11 ar 
    15    6    7 ar 
    16    1    2 ar 
    17    1    5 ar 
    18   13    9 ar 
    19    4    5 ar 
    20    8   18 1  
    21    9   19 1  
    22   10   20 1  
    23   11   21 1  
    24   12   22 1  
    25   14   23 1  
    26   15   24 1  
    27   16   25 1  
    28   17   26 1  
# Name:          frag5-540-73/41815 -- energy: -2.558855
# Creation time: Sat Jun  5 12:52:52 2010


@<TRIPOS>MOLECULE
frag5-540-73/41815 -- energy: -2.558855
   26    28     1     1     1
SMALL
USER_CHARGES


@<TRIPOS>ATOM
      1 N1         -5.3351    3.1354   -1.6460 N.ar       1 <1>        0.000
      2 N2         -4.5185    3.9144   -2.4764 N.ar       1 <1>        0.000
      3 N3         -3.5713    3.1907   -2.8788 N.ar       1 <1>        0.000
      4 N4         -3.7056    1.9175   -2.3495 N.ar       1 <1>        0.000
      5 C1         -4.7675    1.8550   -1.6012 C.ar       1 <1>        0.000
      6 C2         -5.3254    0.7293   -0.8412 C.ar       1 <1>        0.000
      7 C3         -4.4274   -0.1539   -0.2113 C.ar       1 <1>        0.000
      8 C4         -4.9662   -1.2347    0.5118 C.ar       1 <1>        0.000
      9 C13        -2.2314   -0.6694   -1.2316 C.ar       1 <1>        0.000
     10 C5         -6.3382   -1.4361    0.6017 C.ar       1 <1>        0.000
     11 C6         -7.2097   -0.5526   -0.0331 C.ar       1 <1>        0.000
     12 C7         -6.7066    0.5331   -0.7506 C.ar       1 <1>        0.000
     13 C8         -3.0097    0.0492   -0.3054 C.ar       1 <1>        0.000
     14 C9         -2.3500    0.9986    0.4987 C.ar       1 <1>        0.000
     15 C10        -0.9814    1.2145    0.3916 C.ar       1 <1>        0.000
     16 C11        -0.2372    0.4821   -0.5323 C.ar       1 <1>        0.000
     17 C12        -0.8620   -0.4624   -1.3454 C.ar       1 <1>        0.000
     18 H          -4.2919   -1.9294    1.0126 H.spc      1 <1>        0.000
     19 H          -2.7138   -1.4055   -1.8747 H.spc      1 <1>        0.000
     20 H          -6.7313   -2.2815    1.1663 H.spc      1 <1>        0.000
     21 H          -8.2863   -0.7102    0.0312 H.spc      1 <1>        0.000
     22 H          -7.3896    1.2275   -1.2399 H.spc      1 <1>        0.000
     23 H          -2.9257    1.5770    1.2212 H.spc      1 <1>        0.000
     24 H          -0.4921    1.9529    1.0268 H.spc      1 <1>        0.000
     25 H           0.8365    0.6485   -0.6192 H.spc      1 <1>        0.000
     26 H          -0.2794   -1.0355   -2.0666 H.spc      1 <1>        0.000
@<TRIPOS>BOND
     1   17    9 ar 
     2   13   14 ar 
     3   11   12 ar 
     4    3    4 ar 
     5    7    8 ar 
     6   15   16 ar 
     7    7   13 1  
     8   14   15 ar 
     9    6   12 ar 
    10   16   17 ar 
    11    8   10 ar 
    12    5    6 1  
    13    2    3 ar 
    14   10   11 ar 
    15    6    7 ar 
    16    1    2 ar 
    17    1    5 ar 
    18   13    9 ar 
    19    4    5 ar 
    20    8   18 1  
    21    9   19 1  
    22   10   20 1  
    23   11   21 1  
    24   12   22 1  
    25   14   23 1  
    26   15   24 1  
    27   16   25 1  
    28   17   26 1  
# Name:          frag5-540-73/41815 -- energy: -2.522089
# Creation time: Sat Jun  5 12:52:52 2010


@<TRIPOS>MOLECULE
frag5-540-73/41815 -- energy: -2.522089
   26    28     1     1     1
SMALL
USER_CHARGES


@<TRIPOS>ATOM
      1 N1         -5.3182    2.3486   -2.8012 N.ar       1 <1>        0.000
      2 N2         -4.5007    3.4090   -3.2135 N.ar       1 <1>        0.000
      3 N3         -3.5793    3.5409   -2.3675 N.ar       1 <1>        0.000
      4 N4         -3.7328    2.5954   -1.3675 N.ar       1 <1>        0.000
      5 C1         -4.7755    1.8560   -1.6069 C.ar       1 <1>        0.000
      6 C2         -5.3287    0.7256   -0.8507 C.ar       1 <1>        0.000
      7 C3         -4.4277   -0.1314   -0.1901 C.ar       1 <1>        0.000
      8 C4         -4.9616   -1.2039    0.5489 C.ar       1 <1>        0.000
      9 C13        -2.3210    0.7820    0.7372 C.ar       1 <1>        0.000
     10 C5         -6.3318   -1.4237    0.6230 C.ar       1 <1>        0.000
     11 C6         -7.2061   -0.5692   -0.0467 C.ar       1 <1>        0.000
     12 C7         -6.7075    0.5026   -0.7878 C.ar       1 <1>        0.000
     13 C8         -3.0111    0.0846   -0.2718 C.ar       1 <1>        0.000
     14 C9         -2.2635   -0.3679   -1.3757 C.ar       1 <1>        0.000
     15 C10        -0.8918   -0.1604   -1.4572 C.ar       1 <1>        0.000
     16 C11        -0.2351    0.5235   -0.4349 C.ar       1 <1>        0.000
     17 C12        -0.9505    0.9988    0.6633 C.ar       1 <1>        0.000
     18 H          -4.2849   -1.8773    1.0750 H.spc      1 <1>        0.000
     19 H          -2.8744    1.1608    1.5965 H.spc      1 <1>        0.000
     20 H          -6.7212   -2.2608    1.2024 H.spc      1 <1>        0.000
     21 H          -8.2814   -0.7387    0.0087 H.spc      1 <1>        0.000
     22 H          -7.3921    1.1653   -1.3171 H.spc      1 <1>        0.000
     23 H          -2.7720   -0.8927   -2.1845 H.spc      1 <1>        0.000
     24 H          -0.3320   -0.5305   -2.3161 H.spc      1 <1>        0.000
     25 H           0.8409    0.6870   -0.4945 H.spc      1 <1>        0.000
     26 H          -0.4374    1.5377    1.4598 H.spc      1 <1>        0.000
@<TRIPOS>BOND
     1   17    9 ar 
     2   13   14 ar 
     3   11   12 ar 
     4    3    4 ar 
     5    7    8 ar 
     6   15   16 ar 
     7    7   13 1  
     8   14   15 ar 
     9    6   12 ar 
    10   16   17 ar 
    11    8   10 ar 
    12    5    6 1  
    13    2    3 ar 
    14   10   11 ar 
    15    6    7 ar 
    16    1    2 ar 
    17    1    5 ar 
    18   13    9 ar 
    19    4    5 ar 
    20    8   18 1  
    21    9   19 1  
    22   10   20 1  
    23   11   21 1  
    24   12   22 1  
    25   14   23 1  
    26   15   24 1  
    27   16   25 1  
    28   17   26 1  
