#      Rotatable Fragment
#      Build by yxyuan
#
# Name:          frag5-533-250/138278
# Creation time: Sat Jun  5 12:53:41 2010


@<TRIPOS>MOLECULE
frag5-533-250/138278
   69    71     1     1     1
SMALL
USER_CHARGES


@<TRIPOS>ATOM
      1 C1         -0.6645   -5.4372   -0.4067 C.3        1 <1>        0.000
      2 C2         -1.9649   -5.8596    0.2088 C.3        1 <1>        0.000
      3 O1         -0.7765   -4.0964   -0.7172 O.3        1 <1>        0.000
      4 C3          0.4592   -5.7508    0.5320 C.3        1 <1>        0.000
      5 C4         -3.1269   -5.7270   -0.7743 C.3        1 <1>        0.000
      6 C5         -1.8200   -3.6253   -1.4789 C.3        1 <1>        0.000
      7 C6          1.7389   -5.0963    0.4191 C.3        1 <1>        0.000
      8 C14         4.0110   -4.2896    1.3093 C.3        1 <1>        0.000
      9 C7         -2.8551   -4.6547   -1.8299 C.3        1 <1>        0.000
     10 C9         -2.5147   -2.4936   -0.7445 C.2        1 <1>        0.000
     11 C10         2.6630   -5.0142    1.6227 C.3        1 <1>        0.000
     12 C13        -2.4355   -1.0866   -1.3482 C.2        1 <1>        0.000
     13 O5         -3.1364   -2.6085    0.2970 O.2        1 <1>        0.000
     14 C26         3.9179    0.6127    2.8501 C.2        1 <1>        0.000
     15 C28         0.6302    2.3714    0.1293 C.3        1 <1>        0.000
     16 N1         -3.0240   -0.0436   -0.6115 N.am       1 <1>        0.000
     17 O6         -1.7230   -0.9206   -2.3530 O.2        1 <1>        0.000
     18 C16         3.9246   -2.8263    1.0929 C.2        1 <1>        0.000
     19 C17        -2.1536    1.0556   -0.2855 C.3        1 <1>        0.000
     20 C18        -4.3258   -0.1217   -0.0021 C.3        1 <1>        0.000
     21 C19         3.8458   -1.5113    0.9035 C.2        1 <1>        0.000
     22 C21        -0.7897    0.4762    0.1427 C.2        1 <1>        0.000
     23 C22        -2.6937    1.8597    0.8734 C.3        1 <1>        0.000
     24 C23        -4.9764    1.1330    0.5536 C.3        1 <1>        0.000
     25 C24         3.3655   -0.5065    1.9549 C.3        1 <1>        0.000
     26 O7          0.4135    1.0145   -0.1805 O.3        1 <1>        0.000
     27 O8         -0.7623   -0.5677    0.7705 O.2        1 <1>        0.000
     28 C25        -4.0714    2.3307    0.5193 C.3        1 <1>        0.000
     29 C29         3.3395    2.0147    2.7679 C.3        1 <1>        0.000
     30 O9          4.7423    0.3865    3.7236 O.2        1 <1>        0.000
     31 C32         1.2482    2.5040    1.4658 C.3        1 <1>        0.000
     32 C33         2.7628    2.5658    1.4684 C.3        1 <1>        0.000
     33 H          -0.4407   -5.9797   -1.3252 H.spc      1 <1>        0.000
     34 H          -1.8815   -6.9062    0.5018 H.spc      1 <1>        0.000
     35 H          -2.1646   -5.2147    1.0646 H.spc      1 <1>        0.000
     36 H           0.0855   -5.4266    1.5033 H.spc      1 <1>        0.000
     37 H           0.6834   -6.7981    0.3294 H.spc      1 <1>        0.000
     38 H          -3.2583   -6.6828   -1.2816 H.spc      1 <1>        0.000
     39 H          -4.0182   -5.4410   -0.2159 H.spc      1 <1>        0.000
     40 H          -1.3680   -3.2966   -2.4147 H.spc      1 <1>        0.000
     41 H           2.2886   -5.6983   -0.3044 H.spc      1 <1>        0.000
     42 H           1.4938   -4.0583    0.1940 H.spc      1 <1>        0.000
     43 H           4.3791   -4.7165    0.3764 H.spc      1 <1>        0.000
     44 H           4.6470   -4.4336    2.1827 H.spc      1 <1>        0.000
     45 H          -2.4764   -5.1801   -2.7066 H.spc      1 <1>        0.000
     46 H          -3.7915   -4.1122   -1.9605 H.spc      1 <1>        0.000
     47 H           2.8976   -6.0330    1.9312 H.spc      1 <1>        0.000
     48 H           2.1506   -4.4421    2.3962 H.spc      1 <1>        0.000
     49 H          -0.3271    2.8926    0.1281 H.spc      1 <1>        0.000
     50 H           1.2996    2.8025   -0.6151 H.spc      1 <1>        0.000
     51 H           4.1773   -2.9647    0.0417 H.spc      1 <1>        0.000
     52 H          -2.0704    1.7029   -1.1585 H.spc      1 <1>        0.000
     53 H          -4.1833   -0.7641    0.8668 H.spc      1 <1>        0.000
     54 H          -4.9871   -0.4389   -0.8084 H.spc      1 <1>        0.000
     55 H           4.1445   -1.1215   -0.0696 H.spc      1 <1>        0.000
     56 H          -2.0458    2.7141    1.0693 H.spc      1 <1>        0.000
     57 H          -2.7292    1.2430    1.7715 H.spc      1 <1>        0.000
     58 H          -5.2311    0.9402    1.5957 H.spc      1 <1>        0.000
     59 H          -5.8456    1.3570   -0.0648 H.spc      1 <1>        0.000
     60 H           3.1861   -1.2297    2.7504 H.spc      1 <1>        0.000
     61 H           2.8111    0.1376    1.2724 H.spc      1 <1>        0.000
     62 H          -4.0772    2.7864   -0.4709 H.spc      1 <1>        0.000
     63 H          -4.4108    3.0871    1.2270 H.spc      1 <1>        0.000
     64 H           4.1949    2.6604    2.9667 H.spc      1 <1>        0.000
     65 H           2.4813    1.9812    3.4391 H.spc      1 <1>        0.000
     66 H           0.8942    3.4463    1.8839 H.spc      1 <1>        0.000
     67 H           0.9687    1.6150    2.0312 H.spc      1 <1>        0.000
     68 H           3.0670    3.6077    1.3690 H.spc      1 <1>        0.000
     69 H           3.1354    1.9622    0.6408 H.spc      1 <1>        0.000
@<TRIPOS>BOND
     1   31   32 1  
     2   14   29 1  
     3   14   30 2  
     4   29   32 1  
     5   26   15 1  
     6   15   31 1  
     7   10   12 1  
     8    7   11 1  
     9    6    9 1  
    10    6   10 1  
    11    5    9 1  
    12    4    7 1  
    13    3    6 1  
    14    2    5 1  
    15    1    4 1  
    16   10   13 2  
    17    1    3 1  
    18    1    2 1  
    19   11    8 1  
    20   12   16 am 
    21   12   17 2  
    22    8   18 1  
    23   16   19 1  
    24   16   20 1  
    25   18   21 2  
    26   19   22 1  
    27   19   23 1  
    28   20   24 1  
    29   21   25 1  
    30   22   26 1  
    31   22   27 2  
    32   23   28 1  
    33   24   28 1  
    34   25   14 1  
    35    1   33 1  
    36    2   34 1  
    37    2   35 1  
    38    4   36 1  
    39    4   37 1  
    40    5   38 1  
    41    5   39 1  
    42    6   40 1  
    43    7   41 1  
    44    7   42 1  
    45    8   43 1  
    46    8   44 1  
    47    9   45 1  
    48    9   46 1  
    49   11   47 1  
    50   11   48 1  
    51   15   49 1  
    52   15   50 1  
    53   18   51 1  
    54   19   52 1  
    55   20   53 1  
    56   20   54 1  
    57   21   55 1  
    58   23   56 1  
    59   23   57 1  
    60   24   58 1  
    61   24   59 1  
    62   25   60 1  
    63   25   61 1  
    64   28   62 1  
    65   28   63 1  
    66   29   64 1  
    67   29   65 1  
    68   31   66 1  
    69   31   67 1  
    70   32   68 1  
    71   32   69 1  
# Name:          frag5-533-250/138278 -- energy: -10.806308
# Creation time: Sat Jun  5 12:53:41 2010


@<TRIPOS>MOLECULE
frag5-533-250/138278 -- energy: -10.806308
   69    71     1     1     1
SMALL
USER_CHARGES


@<TRIPOS>ATOM
      1 C1         -0.6645   -5.4372   -0.4067 C.3        1 <1>        0.000
      2 C2         -1.9649   -5.8596    0.2088 C.3        1 <1>        0.000
      3 O1         -0.7765   -4.0964   -0.7172 O.3        1 <1>        0.000
      4 C3          0.4592   -5.7508    0.5320 C.3        1 <1>        0.000
      5 C4         -3.1269   -5.7270   -0.7743 C.3        1 <1>        0.000
      6 C5         -1.8200   -3.6253   -1.4789 C.3        1 <1>        0.000
      7 C6          1.7389   -5.0963    0.4191 C.3        1 <1>        0.000
      8 C14         4.0110   -4.2896    1.3093 C.3        1 <1>        0.000
      9 C7         -2.8551   -4.6547   -1.8299 C.3        1 <1>        0.000
     10 C9         -2.5147   -2.4936   -0.7445 C.2        1 <1>        0.000
     11 C10         2.6630   -5.0142    1.6227 C.3        1 <1>        0.000
     12 C13        -2.4355   -1.0866   -1.3482 C.2        1 <1>        0.000
     13 O5         -3.1364   -2.6085    0.2970 O.2        1 <1>        0.000
     14 C26         3.9179    0.6127    2.8501 C.2        1 <1>        0.000
     15 C28         0.6302    2.3714    0.1293 C.3        1 <1>        0.000
     16 N1         -3.0240   -0.0436   -0.6115 N.am       1 <1>        0.000
     17 O6         -1.7230   -0.9206   -2.3530 O.2        1 <1>        0.000
     18 C16         3.9246   -2.8263    1.0929 C.2        1 <1>        0.000
     19 C17        -2.1536    1.0556   -0.2855 C.3        1 <1>        0.000
     20 C18        -4.3258   -0.1217   -0.0021 C.3        1 <1>        0.000
     21 C19         3.8458   -1.5113    0.9035 C.2        1 <1>        0.000
     22 C21        -0.7897    0.4762    0.1427 C.2        1 <1>        0.000
     23 C22        -2.6937    1.8597    0.8734 C.3        1 <1>        0.000
     24 C23        -4.9764    1.1330    0.5536 C.3        1 <1>        0.000
     25 C24         3.3655   -0.5065    1.9549 C.3        1 <1>        0.000
     26 O7          0.4135    1.0145   -0.1805 O.3        1 <1>        0.000
     27 O8         -0.7623   -0.5677    0.7705 O.2        1 <1>        0.000
     28 C25        -4.0714    2.3307    0.5193 C.3        1 <1>        0.000
     29 C29         3.3395    2.0147    2.7679 C.3        1 <1>        0.000
     30 O9          4.7423    0.3865    3.7236 O.2        1 <1>        0.000
     31 C32         1.2482    2.5040    1.4658 C.3        1 <1>        0.000
     32 C33         2.7628    2.5658    1.4684 C.3        1 <1>        0.000
     33 H          -0.4407   -5.9797   -1.3252 H.spc      1 <1>        0.000
     34 H          -1.8815   -6.9062    0.5018 H.spc      1 <1>        0.000
     35 H          -2.1646   -5.2147    1.0646 H.spc      1 <1>        0.000
     36 H           0.0855   -5.4266    1.5033 H.spc      1 <1>        0.000
     37 H           0.6834   -6.7981    0.3294 H.spc      1 <1>        0.000
     38 H          -3.2583   -6.6828   -1.2816 H.spc      1 <1>        0.000
     39 H          -4.0182   -5.4410   -0.2159 H.spc      1 <1>        0.000
     40 H          -1.3680   -3.2966   -2.4147 H.spc      1 <1>        0.000
     41 H           2.2886   -5.6983   -0.3044 H.spc      1 <1>        0.000
     42 H           1.4938   -4.0583    0.1940 H.spc      1 <1>        0.000
     43 H           4.3791   -4.7165    0.3764 H.spc      1 <1>        0.000
     44 H           4.6470   -4.4336    2.1827 H.spc      1 <1>        0.000
     45 H          -2.4764   -5.1801   -2.7066 H.spc      1 <1>        0.000
     46 H          -3.7915   -4.1122   -1.9605 H.spc      1 <1>        0.000
     47 H           2.8976   -6.0330    1.9312 H.spc      1 <1>        0.000
     48 H           2.1506   -4.4421    2.3962 H.spc      1 <1>        0.000
     49 H          -0.3271    2.8926    0.1281 H.spc      1 <1>        0.000
     50 H           1.2996    2.8025   -0.6151 H.spc      1 <1>        0.000
     51 H           4.1773   -2.9647    0.0417 H.spc      1 <1>        0.000
     52 H          -2.0704    1.7029   -1.1585 H.spc      1 <1>        0.000
     53 H          -4.1833   -0.7641    0.8668 H.spc      1 <1>        0.000
     54 H          -4.9871   -0.4389   -0.8084 H.spc      1 <1>        0.000
     55 H           4.1445   -1.1215   -0.0696 H.spc      1 <1>        0.000
     56 H          -2.0458    2.7141    1.0693 H.spc      1 <1>        0.000
     57 H          -2.7292    1.2430    1.7715 H.spc      1 <1>        0.000
     58 H          -5.2311    0.9402    1.5957 H.spc      1 <1>        0.000
     59 H          -5.8456    1.3570   -0.0648 H.spc      1 <1>        0.000
     60 H           3.1861   -1.2297    2.7504 H.spc      1 <1>        0.000
     61 H           2.8111    0.1376    1.2724 H.spc      1 <1>        0.000
     62 H          -4.0772    2.7864   -0.4709 H.spc      1 <1>        0.000
     63 H          -4.4108    3.0871    1.2270 H.spc      1 <1>        0.000
     64 H           4.1949    2.6604    2.9667 H.spc      1 <1>        0.000
     65 H           2.4813    1.9812    3.4391 H.spc      1 <1>        0.000
     66 H           0.8942    3.4463    1.8839 H.spc      1 <1>        0.000
     67 H           0.9687    1.6150    2.0312 H.spc      1 <1>        0.000
     68 H           3.0670    3.6077    1.3690 H.spc      1 <1>        0.000
     69 H           3.1354    1.9622    0.6408 H.spc      1 <1>        0.000
@<TRIPOS>BOND
     1   31   32 1  
     2   14   29 1  
     3   14   30 2  
     4   29   32 1  
     5   26   15 1  
     6   15   31 1  
     7   10   12 1  
     8    7   11 1  
     9    6    9 1  
    10    6   10 1  
    11    5    9 1  
    12    4    7 1  
    13    3    6 1  
    14    2    5 1  
    15    1    4 1  
    16   10   13 2  
    17    1    3 1  
    18    1    2 1  
    19   11    8 1  
    20   12   16 am 
    21   12   17 2  
    22    8   18 1  
    23   16   19 1  
    24   16   20 1  
    25   18   21 2  
    26   19   22 1  
    27   19   23 1  
    28   20   24 1  
    29   21   25 1  
    30   22   26 1  
    31   22   27 2  
    32   23   28 1  
    33   24   28 1  
    34   25   14 1  
    35    1   33 1  
    36    2   34 1  
    37    2   35 1  
    38    4   36 1  
    39    4   37 1  
    40    5   38 1  
    41    5   39 1  
    42    6   40 1  
    43    7   41 1  
    44    7   42 1  
    45    8   43 1  
    46    8   44 1  
    47    9   45 1  
    48    9   46 1  
    49   11   47 1  
    50   11   48 1  
    51   15   49 1  
    52   15   50 1  
    53   18   51 1  
    54   19   52 1  
    55   20   53 1  
    56   20   54 1  
    57   21   55 1  
    58   23   56 1  
    59   23   57 1  
    60   24   58 1  
    61   24   59 1  
    62   25   60 1  
    63   25   61 1  
    64   28   62 1  
    65   28   63 1  
    66   29   64 1  
    67   29   65 1  
    68   31   66 1  
    69   31   67 1  
    70   32   68 1  
    71   32   69 1  
