#      Rotatable Fragment
#      Build by yxyuan
#
# Name:          frag2-090-1/92655
# Creation time: Sat Jun  5 12:51:58 2010


@<TRIPOS>MOLECULE
frag2-090-1/92655
   26    29     1     1     1
SMALL
USER_CHARGES


@<TRIPOS>ATOM
      1 C1          0.7007   -0.0140   -0.0016 C.ar       1 <1>        0.000
      2 C2         -0.7008    0.0127    0.0020 C.ar       1 <1>        0.000
      3 C3         -1.4233   -1.1856   -0.0298 C.ar       1 <1>        0.000
      4 C4         -0.7363   -2.4129   -0.0681 C.ar       1 <1>        0.000
      5 C5          0.6425   -2.4393   -0.0725 C.ar       1 <1>        0.000
      6 C6          1.3770   -1.2393   -0.0385 C.ar       1 <1>        0.000
      7 C7          2.7833   -1.2597   -0.0421 C.ar       1 <1>        0.000
      8 C8          3.5032   -0.0643   -0.0085 C.ar       1 <1>        0.000
      9 C9          2.8294    1.1522    0.0284 C.ar       1 <1>        0.000
     10 C10         1.4255    1.1838    0.0317 C.ar       1 <1>        0.000
     11 C11         0.7440    2.4070    0.0672 C.ar       1 <1>        0.000
     12 C12        -0.6503    2.4338    0.0696 C.ar       1 <1>        0.000
     13 C13        -1.3789    1.2375    0.0377 C.ar       1 <1>        0.000
     14 C14        -2.7830    1.2602    0.0412 C.ar       1 <1>        0.000
     15 C15        -3.5027    0.0702    0.0103 C.ar       1 <1>        0.000
     16 C16        -2.8306   -1.1504   -0.0241 C.ar       1 <1>        0.000
     17 H          -1.2967   -3.3475   -0.0944 H.spc      1 <1>        0.000
     18 H           1.1663   -3.3947   -0.1025 H.spc      1 <1>        0.000
     19 H           3.3127   -2.2120   -0.0712 H.spc      1 <1>        0.000
     20 H           4.5930   -0.0840   -0.0112 H.spc      1 <1>        0.000
     21 H           3.3934    2.0846    0.0549 H.spc      1 <1>        0.000
     22 H           1.3053    3.3410    0.0930 H.spc      1 <1>        0.000
     23 H          -1.1751    3.3888    0.0964 H.spc      1 <1>        0.000
     24 H          -3.3107    2.2136    0.0682 H.spc      1 <1>        0.000
     25 H          -4.5925    0.0923    0.0130 H.spc      1 <1>        0.000
     26 H          -3.3969   -2.0814   -0.0467 H.spc      1 <1>        0.000
@<TRIPOS>BOND
     1   12   13 ar 
     2    3   16 ar 
     3    6    7 ar 
     4    1    2 ar 
     5    3    4 ar 
     6   14   15 ar 
     7    8    9 ar 
     8    2    3 ar 
     9    9   10 ar 
    10    5    6 ar 
    11   13   14 ar 
    12    7    8 ar 
    13    2   13 ar 
    14    1   10 ar 
    15   11   12 ar 
    16   10   11 ar 
    17   15   16 ar 
    18    1    6 ar 
    19    4    5 ar 
    20    4   17 1  
    21    5   18 1  
    22    7   19 1  
    23    8   20 1  
    24    9   21 1  
    25   11   22 1  
    26   12   23 1  
    27   14   24 1  
    28   15   25 1  
    29   16   26 1  
# Name:          frag2-090-1/92655 -- energy: -1.022946
# Creation time: Sat Jun  5 12:51:58 2010


@<TRIPOS>MOLECULE
frag2-090-1/92655 -- energy: -1.022946
   26    29     1     1     1
SMALL
USER_CHARGES


@<TRIPOS>ATOM
      1 C1          0.7007   -0.0140   -0.0016 C.ar       1 <1>        0.000
      2 C2         -0.7008    0.0127    0.0020 C.ar       1 <1>        0.000
      3 C3         -1.4233   -1.1856   -0.0298 C.ar       1 <1>        0.000
      4 C4         -0.7363   -2.4129   -0.0681 C.ar       1 <1>        0.000
      5 C5          0.6425   -2.4393   -0.0725 C.ar       1 <1>        0.000
      6 C6          1.3770   -1.2393   -0.0385 C.ar       1 <1>        0.000
      7 C7          2.7833   -1.2597   -0.0421 C.ar       1 <1>        0.000
      8 C8          3.5032   -0.0643   -0.0085 C.ar       1 <1>        0.000
      9 C9          2.8294    1.1522    0.0284 C.ar       1 <1>        0.000
     10 C10         1.4255    1.1838    0.0317 C.ar       1 <1>        0.000
     11 C11         0.7440    2.4070    0.0672 C.ar       1 <1>        0.000
     12 C12        -0.6503    2.4338    0.0696 C.ar       1 <1>        0.000
     13 C13        -1.3789    1.2375    0.0377 C.ar       1 <1>        0.000
     14 C14        -2.7830    1.2602    0.0412 C.ar       1 <1>        0.000
     15 C15        -3.5027    0.0702    0.0103 C.ar       1 <1>        0.000
     16 C16        -2.8306   -1.1504   -0.0241 C.ar       1 <1>        0.000
     17 H          -1.2967   -3.3475   -0.0944 H.spc      1 <1>        0.000
     18 H           1.1663   -3.3947   -0.1025 H.spc      1 <1>        0.000
     19 H           3.3127   -2.2120   -0.0712 H.spc      1 <1>        0.000
     20 H           4.5930   -0.0840   -0.0112 H.spc      1 <1>        0.000
     21 H           3.3934    2.0846    0.0549 H.spc      1 <1>        0.000
     22 H           1.3053    3.3410    0.0930 H.spc      1 <1>        0.000
     23 H          -1.1751    3.3888    0.0964 H.spc      1 <1>        0.000
     24 H          -3.3107    2.2136    0.0682 H.spc      1 <1>        0.000
     25 H          -4.5925    0.0923    0.0130 H.spc      1 <1>        0.000
     26 H          -3.3969   -2.0814   -0.0467 H.spc      1 <1>        0.000
@<TRIPOS>BOND
     1   12   13 ar 
     2    3   16 ar 
     3    6    7 ar 
     4    1    2 ar 
     5    3    4 ar 
     6   14   15 ar 
     7    8    9 ar 
     8    2    3 ar 
     9    9   10 ar 
    10    5    6 ar 
    11   13   14 ar 
    12    7    8 ar 
    13    2   13 ar 
    14    1   10 ar 
    15   11   12 ar 
    16   10   11 ar 
    17   15   16 ar 
    18    1    6 ar 
    19    4    5 ar 
    20    4   17 1  
    21    5   18 1  
    22    7   19 1  
    23    8   20 1  
    24    9   21 1  
    25   11   22 1  
    26   12   23 1  
    27   14   24 1  
    28   15   25 1  
    29   16   26 1  
