#      Rotatable Fragment
#      Build by yxyuan
#
# Name:          frag4-485-88/150395
# Creation time: Sat Jun  5 12:53:38 2010


@<TRIPOS>MOLECULE
frag4-485-88/150395
   38    41     1     1     1
SMALL
USER_CHARGES


@<TRIPOS>ATOM
      1 C1          3.4838   -1.2172    0.2909 C.3        1 <1>        0.000
      2 C2          3.4960   -0.0241   -0.6921 C.3        1 <1>        0.000
      3 C3          2.2217   -2.0152    0.0896 C.2        1 <1>        0.000
      4 C4          4.7275   -2.0421    0.0707 C.3        1 <1>        0.000
      5 C5          4.8118    0.7992   -0.5592 C.3        1 <1>        0.000
      6 C6          2.2655    0.8902   -0.4496 C.3        1 <1>        0.000
      7 C7          1.0499   -1.4080   -0.1248 C.2        1 <1>        0.000
      8 C8          6.0121   -1.3538   -0.1283 C.2        1 <1>        0.000
      9 C10         6.0521   -0.0413   -0.3974 C.2        1 <1>        0.000
     10 C11         0.9441    0.1016   -0.1918 C.3        1 <1>        0.000
     11 C12        -0.2026   -2.1825   -0.2655 C.3        1 <1>        0.000
     12 C15        -0.1721    0.4786   -1.2021 C.3        1 <1>        0.000
     13 C16        -1.4935   -1.4003   -0.1833 C.ar       1 <1>        0.000
     14 C18        -1.4844   -0.0805   -0.6465 C.ar       1 <1>        0.000
     15 C20        -2.6550   -1.9450    0.3690 C.ar       1 <1>        0.000
     16 C23        -2.6474    0.6965   -0.5661 C.ar       1 <1>        0.000
     17 C25        -3.7756   -1.1333    0.5491 C.ar       1 <1>        0.000
     18 C28        -3.7849    0.1732    0.0593 C.ar       1 <1>        0.000
     19 H           3.4898   -0.8730    1.3251 H.spc      1 <1>        0.000
     20 H           3.4453   -0.4233   -1.7051 H.spc      1 <1>        0.000
     21 H           2.2646   -3.1040    0.1192 H.spc      1 <1>        0.000
     22 H           4.5482   -2.5780   -0.8614 H.spc      1 <1>        0.000
     23 H           4.8535   -2.6122    0.9911 H.spc      1 <1>        0.000
     24 H           4.9282    1.3707   -1.4801 H.spc      1 <1>        0.000
     25 H           4.7189    1.4117    0.3376 H.spc      1 <1>        0.000
     26 H           2.4703    1.4854    0.4403 H.spc      1 <1>        0.000
     27 H           2.1196    1.4880   -1.3493 H.spc      1 <1>        0.000
     28 H           6.9422   -1.9175   -0.0561 H.spc      1 <1>        0.000
     29 H           7.0246    0.4393   -0.5039 H.spc      1 <1>        0.000
     30 H           0.6861    0.4258    0.8164 H.spc      1 <1>        0.000
     31 H          -0.2201   -2.8817    0.5705 H.spc      1 <1>        0.000
     32 H          -0.1771   -2.6180   -1.2644 H.spc      1 <1>        0.000
     33 H          -0.2338    1.5601   -1.3235 H.spc      1 <1>        0.000
     34 H           0.0401    0.0600   -2.1859 H.spc      1 <1>        0.000
     35 H          -2.6858   -2.9958    0.6570 H.spc      1 <1>        0.000
     36 H          -2.6662    1.7015   -0.9876 H.spc      1 <1>        0.000
     37 H          -4.6478   -1.5217    1.0749 H.spc      1 <1>        0.000
     38 H          -4.6794    0.7872    0.1639 H.spc      1 <1>        0.000
@<TRIPOS>BOND
     1    8    9 2  
     2    6   10 1  
     3    1    3 1  
     4    1    4 1  
     5    5    9 1  
     6    2    5 1  
     7    4    8 1  
     8    2    6 1  
     9    1    2 1  
    10    7   10 1  
    11    7   11 1  
    12    3    7 2  
    13   17   18 ar 
    14   16   18 ar 
    15   15   17 ar 
    16   13   14 ar 
    17   14   16 ar 
    18   13   15 ar 
    19   12   14 1  
    20   11   13 1  
    21   10   12 1  
    22    1   19 1  
    23    2   20 1  
    24    3   21 1  
    25    4   22 1  
    26    4   23 1  
    27    5   24 1  
    28    5   25 1  
    29    6   26 1  
    30    6   27 1  
    31    8   28 1  
    32    9   29 1  
    33   10   30 1  
    34   11   31 1  
    35   11   32 1  
    36   12   33 1  
    37   12   34 1  
    38   15   35 1  
    39   16   36 1  
    40   17   37 1  
    41   18   38 1  
# Name:          frag4-485-88/150395 -- energy: -4.676924
# Creation time: Sat Jun  5 12:53:38 2010


@<TRIPOS>MOLECULE
frag4-485-88/150395 -- energy: -4.676924
   38    41     1     1     1
SMALL
USER_CHARGES


@<TRIPOS>ATOM
      1 C1          3.4838   -1.2172    0.2909 C.3        1 <1>        0.000
      2 C2          3.4960   -0.0241   -0.6921 C.3        1 <1>        0.000
      3 C3          2.2217   -2.0152    0.0896 C.2        1 <1>        0.000
      4 C4          4.7275   -2.0421    0.0707 C.3        1 <1>        0.000
      5 C5          4.8118    0.7992   -0.5592 C.3        1 <1>        0.000
      6 C6          2.2655    0.8902   -0.4496 C.3        1 <1>        0.000
      7 C7          1.0499   -1.4080   -0.1248 C.2        1 <1>        0.000
      8 C8          6.0121   -1.3538   -0.1283 C.2        1 <1>        0.000
      9 C10         6.0521   -0.0413   -0.3974 C.2        1 <1>        0.000
     10 C11         0.9441    0.1016   -0.1918 C.3        1 <1>        0.000
     11 C12        -0.2026   -2.1825   -0.2655 C.3        1 <1>        0.000
     12 C15        -0.1721    0.4786   -1.2021 C.3        1 <1>        0.000
     13 C16        -1.4935   -1.4003   -0.1833 C.ar       1 <1>        0.000
     14 C18        -1.4844   -0.0805   -0.6465 C.ar       1 <1>        0.000
     15 C20        -2.6550   -1.9450    0.3690 C.ar       1 <1>        0.000
     16 C23        -2.6474    0.6965   -0.5661 C.ar       1 <1>        0.000
     17 C25        -3.7756   -1.1333    0.5491 C.ar       1 <1>        0.000
     18 C28        -3.7849    0.1732    0.0593 C.ar       1 <1>        0.000
     19 H           3.4898   -0.8730    1.3251 H.spc      1 <1>        0.000
     20 H           3.4453   -0.4233   -1.7051 H.spc      1 <1>        0.000
     21 H           2.2646   -3.1040    0.1192 H.spc      1 <1>        0.000
     22 H           4.5482   -2.5780   -0.8614 H.spc      1 <1>        0.000
     23 H           4.8535   -2.6122    0.9911 H.spc      1 <1>        0.000
     24 H           4.9282    1.3707   -1.4801 H.spc      1 <1>        0.000
     25 H           4.7189    1.4117    0.3376 H.spc      1 <1>        0.000
     26 H           2.4703    1.4854    0.4403 H.spc      1 <1>        0.000
     27 H           2.1196    1.4880   -1.3493 H.spc      1 <1>        0.000
     28 H           6.9422   -1.9175   -0.0561 H.spc      1 <1>        0.000
     29 H           7.0246    0.4393   -0.5039 H.spc      1 <1>        0.000
     30 H           0.6861    0.4258    0.8164 H.spc      1 <1>        0.000
     31 H          -0.2201   -2.8817    0.5705 H.spc      1 <1>        0.000
     32 H          -0.1771   -2.6180   -1.2644 H.spc      1 <1>        0.000
     33 H          -0.2338    1.5601   -1.3235 H.spc      1 <1>        0.000
     34 H           0.0401    0.0600   -2.1859 H.spc      1 <1>        0.000
     35 H          -2.6858   -2.9958    0.6570 H.spc      1 <1>        0.000
     36 H          -2.6662    1.7015   -0.9876 H.spc      1 <1>        0.000
     37 H          -4.6478   -1.5217    1.0749 H.spc      1 <1>        0.000
     38 H          -4.6794    0.7872    0.1639 H.spc      1 <1>        0.000
@<TRIPOS>BOND
     1    8    9 2  
     2    6   10 1  
     3    1    3 1  
     4    1    4 1  
     5    5    9 1  
     6    2    5 1  
     7    4    8 1  
     8    2    6 1  
     9    1    2 1  
    10    7   10 1  
    11    7   11 1  
    12    3    7 2  
    13   17   18 ar 
    14   16   18 ar 
    15   15   17 ar 
    16   13   14 ar 
    17   14   16 ar 
    18   13   15 ar 
    19   12   14 1  
    20   11   13 1  
    21   10   12 1  
    22    1   19 1  
    23    2   20 1  
    24    3   21 1  
    25    4   22 1  
    26    4   23 1  
    27    5   24 1  
    28    5   25 1  
    29    6   26 1  
    30    6   27 1  
    31    8   28 1  
    32    9   29 1  
    33   10   30 1  
    34   11   31 1  
    35   11   32 1  
    36   12   33 1  
    37   12   34 1  
    38   15   35 1  
    39   16   36 1  
    40   17   37 1  
    41   18   38 1  
