#      Rotatable Fragment
#      Build by yxyuan
#
# Name:          frag3-157-12/31924
# Creation time: Sat Jun  5 12:52:05 2010


@<TRIPOS>MOLECULE
frag3-157-12/31924
   12    11     1     1     1
SMALL
USER_CHARGES


@<TRIPOS>ATOM
      1 C10         1.1848   -0.1322   -0.4109 C.2        1 <1>        0.000
      2 C11         0.0070    0.0575    0.2134 C.2        1 <1>        0.000
      3 C12        -1.2843   -0.2311   -0.3684 C.2        1 <1>        0.000
      4 C13        -2.4300    0.3316    0.0336 C.2        1 <1>        0.000
      5 C19         2.4832    0.1627    0.1858 C.2        1 <1>        0.000
      6 O4          2.6428    0.2505    1.3929 O.2        1 <1>        0.000
      7 H           1.1672   -0.5309   -1.4252 H.spc      1 <1>        0.000
      8 H           0.0288    0.4563    1.2276 H.spc      1 <1>        0.000
      9 H          -1.3276   -0.9517   -1.1851 H.spc      1 <1>        0.000
     10 H          -2.4249    1.0565    0.8476 H.spc      1 <1>        0.000
     11 H          -3.3682    0.0650   -0.4529 H.spc      1 <1>        0.000
     12 H           3.3415    0.3099   -0.4698 H.spc      1 <1>        0.000
@<TRIPOS>BOND
     1    1    2 2  
     2    1    5 1  
     3    2    3 1  
     4    3    4 2  
     5    5    6 2  
     6    1    7 1  
     7    2    8 1  
     8    3    9 1  
     9    4   10 1  
    10    4   11 1  
    11    5   12 1  
# Name:          frag3-157-12/31924
# Creation time: Sat Jun  5 12:52:05 2010


@<TRIPOS>MOLECULE
frag3-157-12/31924
   12    11     1     1     1
SMALL
USER_CHARGES


@<TRIPOS>ATOM
      1 C10         1.0811   -0.1810    0.0625 C.2        1 <1>        0.000
      2 C11        -0.1518    0.3318    0.2139 C.2        1 <1>        0.000
      3 C12        -1.3672   -0.3627   -0.1881 C.2        1 <1>        0.000
      4 C13        -2.5308    0.2713   -0.4212 C.2        1 <1>        0.000
      5 C19         2.3117    0.5000    0.4564 C.2        1 <1>        0.000
      6 O4          3.2606   -0.1203    0.9229 O.2        1 <1>        0.000
      7 H           1.1686   -1.1714   -0.3841 H.spc      1 <1>        0.000
      8 H          -0.2473    1.3209    0.6618 H.spc      1 <1>        0.000
      9 H          -1.3326   -1.4458   -0.3055 H.spc      1 <1>        0.000
     10 H          -2.5931    1.3539   -0.3112 H.spc      1 <1>        0.000
     11 H          -3.4111   -0.2977   -0.7201 H.spc      1 <1>        0.000
     12 H           2.3878    1.5803    0.3332 H.spc      1 <1>        0.000
@<TRIPOS>BOND
     1    1    2 2  
     2    1    5 1  
     3    2    3 1  
     4    3    4 2  
     5    5    6 2  
     6    1    7 1  
     7    2    8 1  
     8    3    9 1  
     9    4   10 1  
    10    4   11 1  
    11    5   12 1  
# Name:          frag3-157-12/31924
# Creation time: Sat Jun  5 12:52:05 2010


@<TRIPOS>MOLECULE
frag3-157-12/31924
   12    11     1     1     1
SMALL
USER_CHARGES


@<TRIPOS>ATOM
      1 C10         0.9528    0.2135   -0.2708 C.2        1 <1>        0.000
      2 C11        -0.0593    0.0020    0.5904 C.2        1 <1>        0.000
      3 C12        -1.4466    0.2279    0.3237 C.2        1 <1>        0.000
      4 C13        -2.0446   -0.1325   -0.8162 C.2        1 <1>        0.000
      5 C19         2.3532   -0.0183    0.0582 C.2        1 <1>        0.000
      6 O4          2.8481    0.1463    1.1612 O.2        1 <1>        0.000
      7 H           0.7118    0.5782   -1.2693 H.spc      1 <1>        0.000
      8 H           0.2011   -0.3751    1.5794 H.spc      1 <1>        0.000
      9 H          -2.0469    0.7192    1.0895 H.spc      1 <1>        0.000
     10 H          -1.4705   -0.6256   -1.6006 H.spc      1 <1>        0.000
     11 H          -3.1064    0.0668   -0.9613 H.spc      1 <1>        0.000
     12 H           3.0080   -0.3649   -0.7413 H.spc      1 <1>        0.000
@<TRIPOS>BOND
     1    1    2 2  
     2    1    5 1  
     3    2    3 1  
     4    3    4 2  
     5    5    6 2  
     6    1    7 1  
     7    2    8 1  
     8    3    9 1  
     9    4   10 1  
    10    4   11 1  
    11    5   12 1  
# Name:          frag3-157-12/31924
# Creation time: Sat Jun  5 12:52:05 2010


@<TRIPOS>MOLECULE
frag3-157-12/31924
   12    11     1     1     1
SMALL
USER_CHARGES


@<TRIPOS>ATOM
      1 C10         0.8786    0.3073    0.1132 C.2        1 <1>        0.000
      2 C11        -0.0069   -0.6001   -0.3253 C.2        1 <1>        0.000
      3 C12        -1.4188   -0.3915   -0.4545 C.2        1 <1>        0.000
      4 C13        -2.0684    0.6280    0.1226 C.2        1 <1>        0.000
      5 C19         2.3073    0.0957    0.2859 C.2        1 <1>        0.000
      6 O4          2.9118    0.3996    1.3045 O.2        1 <1>        0.000
      7 H           0.4914    1.2950    0.3633 H.spc      1 <1>        0.000
      8 H           0.3804   -1.5792   -0.6073 H.spc      1 <1>        0.000
      9 H          -1.9934   -1.0985   -1.0529 H.spc      1 <1>        0.000
     10 H          -1.5206    1.3511    0.7269 H.spc      1 <1>        0.000
     11 H          -3.1448    0.7345   -0.0121 H.spc      1 <1>        0.000
     12 H           2.8668   -0.3561   -0.5332 H.spc      1 <1>        0.000
@<TRIPOS>BOND
     1    1    2 2  
     2    1    5 1  
     3    2    3 1  
     4    3    4 2  
     5    5    6 2  
     6    1    7 1  
     7    2    8 1  
     8    3    9 1  
     9    4   10 1  
    10    4   11 1  
    11    5   12 1  
# Name:          frag3-157-12/31924 -- energy: -0.656780
# Creation time: Sat Jun  5 12:52:05 2010


@<TRIPOS>MOLECULE
frag3-157-12/31924 -- energy: -0.656780
   12    11     1     1     1
SMALL
USER_CHARGES


@<TRIPOS>ATOM
      1 C10         1.1848   -0.1322   -0.4109 C.2        1 <1>        0.000
      2 C11         0.0070    0.0575    0.2134 C.2        1 <1>        0.000
      3 C12        -1.2843   -0.2311   -0.3684 C.2        1 <1>        0.000
      4 C13        -2.4300    0.3316    0.0336 C.2        1 <1>        0.000
      5 C19         2.4832    0.1627    0.1858 C.2        1 <1>        0.000
      6 O4          2.6428    0.2505    1.3929 O.2        1 <1>        0.000
      7 H           1.1672   -0.5309   -1.4252 H.spc      1 <1>        0.000
      8 H           0.0288    0.4563    1.2276 H.spc      1 <1>        0.000
      9 H          -1.3276   -0.9517   -1.1851 H.spc      1 <1>        0.000
     10 H          -2.4249    1.0565    0.8476 H.spc      1 <1>        0.000
     11 H          -3.3682    0.0650   -0.4529 H.spc      1 <1>        0.000
     12 H           3.3415    0.3099   -0.4698 H.spc      1 <1>        0.000
@<TRIPOS>BOND
     1    1    2 2  
     2    1    5 1  
     3    2    3 1  
     4    3    4 2  
     5    5    6 2  
     6    1    7 1  
     7    2    8 1  
     8    3    9 1  
     9    4   10 1  
    10    4   11 1  
    11    5   12 1  
# Name:          frag3-157-12/31924 -- energy: -0.670781
# Creation time: Sat Jun  5 12:52:05 2010


@<TRIPOS>MOLECULE
frag3-157-12/31924 -- energy: -0.670781
   12    11     1     1     1
SMALL
USER_CHARGES


@<TRIPOS>ATOM
      1 C10         1.0811   -0.1810    0.0625 C.2        1 <1>        0.000
      2 C11        -0.1518    0.3318    0.2139 C.2        1 <1>        0.000
      3 C12        -1.3672   -0.3627   -0.1881 C.2        1 <1>        0.000
      4 C13        -2.5308    0.2713   -0.4212 C.2        1 <1>        0.000
      5 C19         2.3117    0.5000    0.4564 C.2        1 <1>        0.000
      6 O4          3.2606   -0.1203    0.9229 O.2        1 <1>        0.000
      7 H           1.1686   -1.1714   -0.3841 H.spc      1 <1>        0.000
      8 H          -0.2473    1.3209    0.6618 H.spc      1 <1>        0.000
      9 H          -1.3326   -1.4458   -0.3055 H.spc      1 <1>        0.000
     10 H          -2.5931    1.3539   -0.3112 H.spc      1 <1>        0.000
     11 H          -3.4111   -0.2977   -0.7201 H.spc      1 <1>        0.000
     12 H           2.3878    1.5803    0.3332 H.spc      1 <1>        0.000
@<TRIPOS>BOND
     1    1    2 2  
     2    1    5 1  
     3    2    3 1  
     4    3    4 2  
     5    5    6 2  
     6    1    7 1  
     7    2    8 1  
     8    3    9 1  
     9    4   10 1  
    10    4   11 1  
    11    5   12 1  
# Name:          frag3-157-12/31924 -- energy: -0.750737
# Creation time: Sat Jun  5 12:52:05 2010


@<TRIPOS>MOLECULE
frag3-157-12/31924 -- energy: -0.750737
   12    11     1     1     1
SMALL
USER_CHARGES


@<TRIPOS>ATOM
      1 C10         0.9528    0.2135   -0.2708 C.2        1 <1>        0.000
      2 C11        -0.0593    0.0020    0.5904 C.2        1 <1>        0.000
      3 C12        -1.4466    0.2279    0.3237 C.2        1 <1>        0.000
      4 C13        -2.0446   -0.1325   -0.8162 C.2        1 <1>        0.000
      5 C19         2.3532   -0.0183    0.0582 C.2        1 <1>        0.000
      6 O4          2.8481    0.1463    1.1612 O.2        1 <1>        0.000
      7 H           0.7118    0.5782   -1.2693 H.spc      1 <1>        0.000
      8 H           0.2011   -0.3751    1.5794 H.spc      1 <1>        0.000
      9 H          -2.0469    0.7192    1.0895 H.spc      1 <1>        0.000
     10 H          -1.4705   -0.6256   -1.6006 H.spc      1 <1>        0.000
     11 H          -3.1064    0.0668   -0.9613 H.spc      1 <1>        0.000
     12 H           3.0080   -0.3649   -0.7413 H.spc      1 <1>        0.000
@<TRIPOS>BOND
     1    1    2 2  
     2    1    5 1  
     3    2    3 1  
     4    3    4 2  
     5    5    6 2  
     6    1    7 1  
     7    2    8 1  
     8    3    9 1  
     9    4   10 1  
    10    4   11 1  
    11    5   12 1  
# Name:          frag3-157-12/31924 -- energy: -0.545727
# Creation time: Sat Jun  5 12:52:05 2010


@<TRIPOS>MOLECULE
frag3-157-12/31924 -- energy: -0.545727
   12    11     1     1     1
SMALL
USER_CHARGES


@<TRIPOS>ATOM
      1 C10         0.8786    0.3073    0.1132 C.2        1 <1>        0.000
      2 C11        -0.0069   -0.6001   -0.3253 C.2        1 <1>        0.000
      3 C12        -1.4188   -0.3915   -0.4545 C.2        1 <1>        0.000
      4 C13        -2.0684    0.6280    0.1226 C.2        1 <1>        0.000
      5 C19         2.3073    0.0957    0.2859 C.2        1 <1>        0.000
      6 O4          2.9118    0.3996    1.3045 O.2        1 <1>        0.000
      7 H           0.4914    1.2950    0.3633 H.spc      1 <1>        0.000
      8 H           0.3804   -1.5792   -0.6073 H.spc      1 <1>        0.000
      9 H          -1.9934   -1.0985   -1.0529 H.spc      1 <1>        0.000
     10 H          -1.5206    1.3511    0.7269 H.spc      1 <1>        0.000
     11 H          -3.1448    0.7345   -0.0121 H.spc      1 <1>        0.000
     12 H           2.8668   -0.3561   -0.5332 H.spc      1 <1>        0.000
@<TRIPOS>BOND
     1    1    2 2  
     2    1    5 1  
     3    2    3 1  
     4    3    4 2  
     5    5    6 2  
     6    1    7 1  
     7    2    8 1  
     8    3    9 1  
     9    4   10 1  
    10    4   11 1  
    11    5   12 1  
