#      Rotatable Fragment
#      Build by yxyuan
#
# Name:          frag4-464-35/48856
# Creation time: Sat Jun  5 12:52:48 2010


@<TRIPOS>MOLECULE
frag4-464-35/48856
   28    30     1     1     1
SMALL
USER_CHARGES


@<TRIPOS>ATOM
      1 C17         1.7350    2.0926    1.2090 C.3        1 <1>        0.000
      2 O2          1.8193    2.5558   -0.1033 O.3        1 <1>        0.000
      3 C18         2.8537    1.9327   -0.7838 C.3        1 <1>        0.000
      4 N4          3.7766    1.5384    0.2610 N.3        1 <1>        0.000
      5 C19         5.1130    1.2285    0.0381 C.3        1 <1>        0.000
      6 C20         5.5126    1.2135   -1.3904 C.3        1 <1>        0.000
      7 N5          4.7752    1.9832   -2.2887 N.3        1 <1>        0.000
      8 C21         3.6356    2.7500   -1.8154 C.3        1 <1>        0.000
      9 C22         2.9300    3.1083   -3.1028 C.3        1 <1>        0.000
     10 C23         3.4819    2.1310   -4.1054 C.3        1 <1>        0.000
     11 C24         4.9073    1.9384   -3.6806 C.3        1 <1>        0.000
     12 C32         3.1503    1.6821    1.4881 C.3        1 <1>        0.000
     13 H           1.3574    2.8402    1.9066 H.spc      1 <1>        0.000
     14 H           1.0181    1.2812    1.3345 H.spc      1 <1>        0.000
     15 H           2.4063    1.1401   -1.3836 H.spc      1 <1>        0.000
     16 H           5.7051    2.0026    0.5263 H.spc      1 <1>        0.000
     17 H           5.2754    0.2224    0.4248 H.spc      1 <1>        0.000
     18 H           6.5189    1.6319   -1.4118 H.spc      1 <1>        0.000
     19 H           5.3765    0.1823   -1.7162 H.spc      1 <1>        0.000
     20 H           3.8494    3.6621   -1.2581 H.spc      1 <1>        0.000
     21 H           1.8459    3.0394   -3.0125 H.spc      1 <1>        0.000
     22 H           3.1054    4.1435   -3.3955 H.spc      1 <1>        0.000
     23 H           2.9250    1.1941   -4.1177 H.spc      1 <1>        0.000
     24 H           3.4026    2.5001   -5.1279 H.spc      1 <1>        0.000
     25 H           5.5938    2.6827   -4.0842 H.spc      1 <1>        0.000
     26 H           5.3597    1.0192   -4.0529 H.spc      1 <1>        0.000
     27 H           3.1787    0.7477    2.0487 H.spc      1 <1>        0.000
     28 H           3.6576    2.4312    2.0960 H.spc      1 <1>        0.000
@<TRIPOS>BOND
     1   10   11 1  
     2    3    8 1  
     3    6    7 1  
     4    7    8 1  
     5    3    4 1  
     6    9   10 1  
     7    7   11 1  
     8    2    3 1  
     9    5    6 1  
    10    1   12 1  
    11    1    2 1  
    12    4   12 1  
    13    8    9 1  
    14    4    5 1  
    15    1   13 1  
    16    1   14 1  
    17    3   15 1  
    18    5   16 1  
    19    5   17 1  
    20    6   18 1  
    21    6   19 1  
    22    8   20 1  
    23    9   21 1  
    24    9   22 1  
    25   10   23 1  
    26   10   24 1  
    27   11   25 1  
    28   11   26 1  
    29   12   27 1  
    30   12   28 1  
# Name:          frag4-464-35/48856 -- energy: -3.913753
# Creation time: Sat Jun  5 12:52:48 2010


@<TRIPOS>MOLECULE
frag4-464-35/48856 -- energy: -3.913753
   28    30     1     1     1
SMALL
USER_CHARGES


@<TRIPOS>ATOM
      1 C17         1.7350    2.0926    1.2090 C.3        1 <1>        0.000
      2 O2          1.8193    2.5558   -0.1033 O.3        1 <1>        0.000
      3 C18         2.8537    1.9327   -0.7838 C.3        1 <1>        0.000
      4 N4          3.7766    1.5384    0.2610 N.3        1 <1>        0.000
      5 C19         5.1130    1.2285    0.0381 C.3        1 <1>        0.000
      6 C20         5.5126    1.2135   -1.3904 C.3        1 <1>        0.000
      7 N5          4.7752    1.9832   -2.2887 N.3        1 <1>        0.000
      8 C21         3.6356    2.7500   -1.8154 C.3        1 <1>        0.000
      9 C22         2.9300    3.1083   -3.1028 C.3        1 <1>        0.000
     10 C23         3.4819    2.1310   -4.1054 C.3        1 <1>        0.000
     11 C24         4.9073    1.9384   -3.6806 C.3        1 <1>        0.000
     12 C32         3.1503    1.6821    1.4881 C.3        1 <1>        0.000
     13 H           1.3574    2.8402    1.9066 H.spc      1 <1>        0.000
     14 H           1.0181    1.2812    1.3345 H.spc      1 <1>        0.000
     15 H           2.4063    1.1401   -1.3836 H.spc      1 <1>        0.000
     16 H           5.7051    2.0026    0.5263 H.spc      1 <1>        0.000
     17 H           5.2754    0.2224    0.4248 H.spc      1 <1>        0.000
     18 H           6.5189    1.6319   -1.4118 H.spc      1 <1>        0.000
     19 H           5.3765    0.1823   -1.7162 H.spc      1 <1>        0.000
     20 H           3.8494    3.6621   -1.2581 H.spc      1 <1>        0.000
     21 H           1.8459    3.0394   -3.0125 H.spc      1 <1>        0.000
     22 H           3.1054    4.1435   -3.3955 H.spc      1 <1>        0.000
     23 H           2.9250    1.1941   -4.1177 H.spc      1 <1>        0.000
     24 H           3.4026    2.5001   -5.1279 H.spc      1 <1>        0.000
     25 H           5.5938    2.6827   -4.0842 H.spc      1 <1>        0.000
     26 H           5.3597    1.0192   -4.0529 H.spc      1 <1>        0.000
     27 H           3.1787    0.7477    2.0487 H.spc      1 <1>        0.000
     28 H           3.6576    2.4312    2.0960 H.spc      1 <1>        0.000
@<TRIPOS>BOND
     1   10   11 1  
     2    3    8 1  
     3    6    7 1  
     4    7    8 1  
     5    3    4 1  
     6    9   10 1  
     7    7   11 1  
     8    2    3 1  
     9    5    6 1  
    10    1   12 1  
    11    1    2 1  
    12    4   12 1  
    13    8    9 1  
    14    4    5 1  
    15    1   13 1  
    16    1   14 1  
    17    3   15 1  
    18    5   16 1  
    19    5   17 1  
    20    6   18 1  
    21    6   19 1  
    22    8   20 1  
    23    9   21 1  
    24    9   22 1  
    25   10   23 1  
    26   10   24 1  
    27   11   25 1  
    28   11   26 1  
    29   12   27 1  
    30   12   28 1  
