#      Rotatable Fragment
#      Build by yxyuan
#
# Name:          frag3-269-2/31924
# Creation time: Sat Jun  5 12:52:41 2010


@<TRIPOS>MOLECULE
frag3-269-2/31924
   10     9     1     1     1
SMALL
USER_CHARGES


@<TRIPOS>ATOM
      1 O4         -2.3897    0.6468   -0.1433 O.3        1 <1>        0.000
      2 S1         -3.3346    0.6187   -1.4091 S.o2       1 <1>        0.000
      3 O5         -4.1260   -0.5802   -1.2838 O.2        1 <1>        0.000
      4 O6         -2.4590    0.8198   -2.5380 O.2        1 <1>        0.000
      5 N6         -4.2520    1.9596   -1.1086 N.am       1 <1>        0.000
      6 C11        -5.2479    2.0223   -0.1538 C.2        1 <1>        0.000
      7 O7         -5.8555    3.0307    0.1533 O.2        1 <1>        0.000
      8 H          -1.8363    1.4306   -0.1758 H.spc      1 <1>        0.000
      9 H          -4.0710    2.7955   -1.6644 H.spc      1 <1>        0.000
     10 H          -5.5092    1.0991    0.3635 H.spc      1 <1>        0.000
@<TRIPOS>BOND
     1    1    2 1  
     2    2    3 2  
     3    2    4 2  
     4    2    5 1  
     5    5    6 am 
     6    6    7 2  
     7    1    8 1  
     8    5    9 1  
     9    6   10 1  
# Name:          frag3-269-2/31924
# Creation time: Sat Jun  5 12:52:41 2010


@<TRIPOS>MOLECULE
frag3-269-2/31924
   10     9     1     1     1
SMALL
USER_CHARGES


@<TRIPOS>ATOM
      1 O4         -2.0366    0.4016   -0.3870 O.3        1 <1>        0.000
      2 S1         -3.3523    0.5621   -1.2247 S.o2       1 <1>        0.000
      3 O5         -3.9513   -0.7421   -1.3159 O.2        1 <1>        0.000
      4 O6         -2.9372    1.2662   -2.4259 O.2        1 <1>        0.000
      5 N6         -4.2332    1.5582   -0.2696 N.am       1 <1>        0.000
      6 C11        -5.3626    2.2245   -0.6803 C.2        1 <1>        0.000
      7 O7         -5.7916    3.2473   -0.1798 O.2        1 <1>        0.000
      8 H          -1.6056    1.2553   -0.3035 H.spc      1 <1>        0.000
      9 H          -3.9235    1.6930    0.6929 H.spc      1 <1>        0.000
     10 H          -5.9171    1.8043   -1.5194 H.spc      1 <1>        0.000
@<TRIPOS>BOND
     1    1    2 1  
     2    2    3 2  
     3    2    4 2  
     4    2    5 1  
     5    5    6 am 
     6    6    7 2  
     7    1    8 1  
     8    5    9 1  
     9    6   10 1  
# Name:          frag3-269-2/31924
# Creation time: Sat Jun  5 12:52:41 2010


@<TRIPOS>MOLECULE
frag3-269-2/31924
   10     9     1     1     1
SMALL
USER_CHARGES


@<TRIPOS>ATOM
      1 O4         -2.1029    0.2337   -0.4845 O.3        1 <1>        0.000
      2 S1         -3.4022    0.7418   -1.1960 S.o2       1 <1>        0.000
      3 O5         -4.3886   -0.3092   -1.0057 O.2        1 <1>        0.000
      4 O6         -3.0105    1.1334   -2.5280 O.2        1 <1>        0.000
      5 N6         -3.7753    2.0677   -0.2590 N.am       1 <1>        0.000
      6 C11        -5.0403    2.5834   -0.1785 C.2        1 <1>        0.000
      7 O7         -5.9450    2.0668   -0.8316 O.2        1 <1>        0.000
      8 H          -1.4102    0.8919   -0.5775 H.spc      1 <1>        0.000
      9 H          -3.0304    2.5134    0.2766 H.spc      1 <1>        0.000
     10 H          -5.2440    3.4440    0.4586 H.spc      1 <1>        0.000
@<TRIPOS>BOND
     1    1    2 1  
     2    2    3 2  
     3    2    4 2  
     4    2    5 1  
     5    5    6 am 
     6    6    7 2  
     7    1    8 1  
     8    5    9 1  
     9    6   10 1  
# Name:          frag3-269-2/31924
# Creation time: Sat Jun  5 12:52:41 2010


@<TRIPOS>MOLECULE
frag3-269-2/31924
   10     9     1     1     1
SMALL
USER_CHARGES


@<TRIPOS>ATOM
      1 O4         -2.5836    0.6114   -0.0578 O.3        1 <1>        0.000
      2 S1         -3.4306    0.5119   -1.3893 S.o2       1 <1>        0.000
      3 O5         -3.6781   -0.8970   -1.5756 O.2        1 <1>        0.000
      4 O6         -2.7136    1.2827   -2.3712 O.2        1 <1>        0.000
      5 N6         -4.8012    1.2988   -0.8930 N.am       1 <1>        0.000
      6 C11        -4.8268    2.4000   -0.0564 C.2        1 <1>        0.000
      7 O7         -5.6310    3.3098   -0.1399 O.2        1 <1>        0.000
      8 H          -2.3835    1.5324    0.1248 H.spc      1 <1>        0.000
      9 H          -5.6958    0.9437   -1.2306 H.spc      1 <1>        0.000
     10 H          -4.0756    2.4569    0.7313 H.spc      1 <1>        0.000
@<TRIPOS>BOND
     1    1    2 1  
     2    2    3 2  
     3    2    4 2  
     4    2    5 1  
     5    5    6 am 
     6    6    7 2  
     7    1    8 1  
     8    5    9 1  
     9    6   10 1  
# Name:          frag3-269-2/31924 -- energy: -0.696870
# Creation time: Sat Jun  5 12:52:41 2010


@<TRIPOS>MOLECULE
frag3-269-2/31924 -- energy: -0.696870
   10     9     1     1     1
SMALL
USER_CHARGES


@<TRIPOS>ATOM
      1 O4         -2.3897    0.6468   -0.1433 O.3        1 <1>        0.000
      2 S1         -3.3346    0.6187   -1.4091 S.o2       1 <1>        0.000
      3 O5         -4.1260   -0.5802   -1.2838 O.2        1 <1>        0.000
      4 O6         -2.4590    0.8198   -2.5380 O.2        1 <1>        0.000
      5 N6         -4.2520    1.9596   -1.1086 N.am       1 <1>        0.000
      6 C11        -5.2479    2.0223   -0.1538 C.2        1 <1>        0.000
      7 O7         -5.8555    3.0307    0.1533 O.2        1 <1>        0.000
      8 H          -1.8363    1.4306   -0.1758 H.spc      1 <1>        0.000
      9 H          -4.0710    2.7955   -1.6644 H.spc      1 <1>        0.000
     10 H          -5.5092    1.0991    0.3635 H.spc      1 <1>        0.000
@<TRIPOS>BOND
     1    1    2 1  
     2    2    3 2  
     3    2    4 2  
     4    2    5 1  
     5    5    6 am 
     6    6    7 2  
     7    1    8 1  
     8    5    9 1  
     9    6   10 1  
# Name:          frag3-269-2/31924 -- energy: -0.664269
# Creation time: Sat Jun  5 12:52:41 2010


@<TRIPOS>MOLECULE
frag3-269-2/31924 -- energy: -0.664269
   10     9     1     1     1
SMALL
USER_CHARGES


@<TRIPOS>ATOM
      1 O4         -2.0366    0.4016   -0.3870 O.3        1 <1>        0.000
      2 S1         -3.3523    0.5621   -1.2247 S.o2       1 <1>        0.000
      3 O5         -3.9513   -0.7421   -1.3159 O.2        1 <1>        0.000
      4 O6         -2.9372    1.2662   -2.4259 O.2        1 <1>        0.000
      5 N6         -4.2332    1.5582   -0.2696 N.am       1 <1>        0.000
      6 C11        -5.3626    2.2245   -0.6803 C.2        1 <1>        0.000
      7 O7         -5.7916    3.2473   -0.1798 O.2        1 <1>        0.000
      8 H          -1.6056    1.2553   -0.3035 H.spc      1 <1>        0.000
      9 H          -3.9235    1.6930    0.6929 H.spc      1 <1>        0.000
     10 H          -5.9171    1.8043   -1.5194 H.spc      1 <1>        0.000
@<TRIPOS>BOND
     1    1    2 1  
     2    2    3 2  
     3    2    4 2  
     4    2    5 1  
     5    5    6 am 
     6    6    7 2  
     7    1    8 1  
     8    5    9 1  
     9    6   10 1  
# Name:          frag3-269-2/31924 -- energy: -0.649019
# Creation time: Sat Jun  5 12:52:41 2010


@<TRIPOS>MOLECULE
frag3-269-2/31924 -- energy: -0.649019
   10     9     1     1     1
SMALL
USER_CHARGES


@<TRIPOS>ATOM
      1 O4         -2.1029    0.2337   -0.4845 O.3        1 <1>        0.000
      2 S1         -3.4022    0.7418   -1.1960 S.o2       1 <1>        0.000
      3 O5         -4.3886   -0.3092   -1.0057 O.2        1 <1>        0.000
      4 O6         -3.0105    1.1334   -2.5280 O.2        1 <1>        0.000
      5 N6         -3.7753    2.0677   -0.2590 N.am       1 <1>        0.000
      6 C11        -5.0403    2.5834   -0.1785 C.2        1 <1>        0.000
      7 O7         -5.9450    2.0668   -0.8316 O.2        1 <1>        0.000
      8 H          -1.4102    0.8919   -0.5775 H.spc      1 <1>        0.000
      9 H          -3.0304    2.5134    0.2766 H.spc      1 <1>        0.000
     10 H          -5.2440    3.4440    0.4586 H.spc      1 <1>        0.000
@<TRIPOS>BOND
     1    1    2 1  
     2    2    3 2  
     3    2    4 2  
     4    2    5 1  
     5    5    6 am 
     6    6    7 2  
     7    1    8 1  
     8    5    9 1  
     9    6   10 1  
# Name:          frag3-269-2/31924 -- energy: -0.491058
# Creation time: Sat Jun  5 12:52:41 2010


@<TRIPOS>MOLECULE
frag3-269-2/31924 -- energy: -0.491058
   10     9     1     1     1
SMALL
USER_CHARGES


@<TRIPOS>ATOM
      1 O4         -2.5836    0.6114   -0.0578 O.3        1 <1>        0.000
      2 S1         -3.4306    0.5119   -1.3893 S.o2       1 <1>        0.000
      3 O5         -3.6781   -0.8970   -1.5756 O.2        1 <1>        0.000
      4 O6         -2.7136    1.2827   -2.3712 O.2        1 <1>        0.000
      5 N6         -4.8012    1.2988   -0.8930 N.am       1 <1>        0.000
      6 C11        -4.8268    2.4000   -0.0564 C.2        1 <1>        0.000
      7 O7         -5.6310    3.3098   -0.1399 O.2        1 <1>        0.000
      8 H          -2.3835    1.5324    0.1248 H.spc      1 <1>        0.000
      9 H          -5.6958    0.9437   -1.2306 H.spc      1 <1>        0.000
     10 H          -4.0756    2.4569    0.7313 H.spc      1 <1>        0.000
@<TRIPOS>BOND
     1    1    2 1  
     2    2    3 2  
     3    2    4 2  
     4    2    5 1  
     5    5    6 am 
     6    6    7 2  
     7    1    8 1  
     8    5    9 1  
     9    6   10 1  
