#      Rotatable Fragment
#      Build by yxyuan
#
# Name:          frag3-203-5/31924
# Creation time: Sat Jun  5 12:52:20 2010


@<TRIPOS>MOLECULE
frag3-203-5/31924
    4     3     1     1     1
SMALL
USER_CHARGES


@<TRIPOS>ATOM
      1 N1          2.7315    0.9854    0.2711 N.2        1 <1>        0.000
      2 O1          3.5512    0.8093    1.1648 O.2        1 <1>        0.000
      3 O2          1.3586    0.8562    0.5471 O.3        1 <1>        0.000
      4 H           0.8553    1.0244   -0.2529 H.spc      1 <1>        0.000
@<TRIPOS>BOND
     1    1    2 2  
     2    1    3 1  
     3    3    4 1  
# Name:          frag3-203-5/31924 -- energy: -0.026160
# Creation time: Sat Jun  5 12:52:20 2010


@<TRIPOS>MOLECULE
frag3-203-5/31924 -- energy: -0.026160
    4     3     1     1     1
SMALL
USER_CHARGES


@<TRIPOS>ATOM
      1 N1          2.7315    0.9854    0.2711 N.2        1 <1>        0.000
      2 O1          3.5512    0.8093    1.1648 O.2        1 <1>        0.000
      3 O2          1.3586    0.8562    0.5471 O.3        1 <1>        0.000
      4 H           0.8553    1.0244   -0.2529 H.spc      1 <1>        0.000
@<TRIPOS>BOND
     1    1    2 2  
     2    1    3 1  
     3    3    4 1  
