#      Rotatable Fragment
#      Build by yxyuan
#
# Name:          frag4-362-330/150395
# Creation time: Sat Jun  5 12:53:32 2010


@<TRIPOS>MOLECULE
frag4-362-330/150395
   15    16     1     1     1
SMALL
USER_CHARGES


@<TRIPOS>ATOM
      1 N2          1.6757    1.0853    0.0288 N.2        1 <1>        0.000
      2 C12         0.4355    0.7332    0.0402 C.2        1 <1>        0.000
      3 C13         2.4106   -0.1288   -0.0864 C.3        1 <1>        0.000
      4 C14         0.3501   -0.7740   -0.0726 C.2        1 <1>        0.000
      5 C15        -0.8177    1.5114    0.1386 C.2        1 <1>        0.000
      6 N3          1.5432   -1.2566   -0.1451 N.2        1 <1>        0.000
      7 C16        -0.9824   -1.4152   -0.0812 C.2        1 <1>        0.000
      8 C17        -1.9850    0.8218    0.1292 C.2        1 <1>        0.000
      9 C18        -2.0654   -0.6066    0.0259 C.2        1 <1>        0.000
     10 H           3.0518   -0.2301    0.7892 H.spc      1 <1>        0.000
     11 H           2.9959   -0.0937   -1.0052 H.spc      1 <1>        0.000
     12 H          -0.8037    2.5986    0.2158 H.spc      1 <1>        0.000
     13 H          -1.0898   -2.4962   -0.1702 H.spc      1 <1>        0.000
     14 H          -2.9153    1.3849    0.2044 H.spc      1 <1>        0.000
     15 H          -3.0529   -1.0680    0.0340 H.spc      1 <1>        0.000
@<TRIPOS>BOND
     1    8    9 1  
     2    7    9 2  
     3    1    2 2  
     4    2    4 1  
     5    1    3 1  
     6    3    6 1  
     7    2    5 1  
     8    4    7 1  
     9    4    6 2  
    10    5    8 2  
    11    3   10 1  
    12    3   11 1  
    13    5   12 1  
    14    7   13 1  
    15    8   14 1  
    16    9   15 1  
# Name:          frag4-362-330/150395 -- energy: -0.666395
# Creation time: Sat Jun  5 12:53:32 2010


@<TRIPOS>MOLECULE
frag4-362-330/150395 -- energy: -0.666395
   15    16     1     1     1
SMALL
USER_CHARGES


@<TRIPOS>ATOM
      1 N2          1.6757    1.0853    0.0288 N.2        1 <1>        0.000
      2 C12         0.4355    0.7332    0.0402 C.2        1 <1>        0.000
      3 C13         2.4106   -0.1288   -0.0864 C.3        1 <1>        0.000
      4 C14         0.3501   -0.7740   -0.0726 C.2        1 <1>        0.000
      5 C15        -0.8177    1.5114    0.1386 C.2        1 <1>        0.000
      6 N3          1.5432   -1.2566   -0.1451 N.2        1 <1>        0.000
      7 C16        -0.9824   -1.4152   -0.0812 C.2        1 <1>        0.000
      8 C17        -1.9850    0.8218    0.1292 C.2        1 <1>        0.000
      9 C18        -2.0654   -0.6066    0.0259 C.2        1 <1>        0.000
     10 H           3.0518   -0.2301    0.7892 H.spc      1 <1>        0.000
     11 H           2.9959   -0.0937   -1.0052 H.spc      1 <1>        0.000
     12 H          -0.8037    2.5986    0.2158 H.spc      1 <1>        0.000
     13 H          -1.0898   -2.4962   -0.1702 H.spc      1 <1>        0.000
     14 H          -2.9153    1.3849    0.2044 H.spc      1 <1>        0.000
     15 H          -3.0529   -1.0680    0.0340 H.spc      1 <1>        0.000
@<TRIPOS>BOND
     1    8    9 1  
     2    7    9 2  
     3    1    2 2  
     4    2    4 1  
     5    1    3 1  
     6    3    6 1  
     7    2    5 1  
     8    4    7 1  
     9    4    6 2  
    10    5    8 2  
    11    3   10 1  
    12    3   11 1  
    13    5   12 1  
    14    7   13 1  
    15    8   14 1  
    16    9   15 1  
