#      Rotatable Fragment
#      Build by yxyuan
#
# Name:          frag2-062-23/319335
# Creation time: Sat Jun  5 12:53:49 2010


@<TRIPOS>MOLECULE
frag2-062-23/319335
   16    17     1     1     1
SMALL
USER_CHARGES


@<TRIPOS>ATOM
      1 C1          0.3936    0.3839    0.0283 C.ar       1 <1>        0.000
      2 C2          0.0841   -0.9399   -0.0727 C.ar       1 <1>        0.000
      3 C3          1.7457    0.7698    0.0544 C.ar       1 <1>        0.000
      4 C4         -0.6225    1.3624    0.1064 C.ar       1 <1>        0.000
      5 N1          1.0858   -1.8721   -0.1473 N.ar       1 <1>        0.000
      6 C5         -1.2737   -1.3561   -0.1010 C.ar       1 <1>        0.000
      7 C6          2.7140   -0.2411   -0.0254 C.ar       1 <1>        0.000
      8 C7         -1.9694    0.9595    0.0793 C.ar       1 <1>        0.000
      9 N2          2.3272   -1.5388   -0.1237 N.ar       1 <1>        0.000
     10 C8         -2.2957   -0.3861   -0.0237 C.ar       1 <1>        0.000
     11 H           2.0311    1.8188    0.1339 H.spc      1 <1>        0.000
     12 H          -0.3651    2.4185    0.1868 H.spc      1 <1>        0.000
     13 H          -1.5237   -2.4140   -0.1816 H.spc      1 <1>        0.000
     14 H           3.7736    0.0140   -0.0086 H.spc      1 <1>        0.000
     15 H          -2.7607    1.7067    0.1394 H.spc      1 <1>        0.000
     16 H          -3.3413   -0.6932   -0.0449 H.spc      1 <1>        0.000
@<TRIPOS>BOND
     1    7    9 ar 
     2    8   10 ar 
     3    1    2 ar 
     4    1    3 ar 
     5    2    5 ar 
     6    1    4 ar 
     7    2    6 ar 
     8    3    7 ar 
     9    4    8 ar 
    10    5    9 ar 
    11    6   10 ar 
    12    3   11 1  
    13    4   12 1  
    14    6   13 1  
    15    7   14 1  
    16    8   15 1  
    17   10   16 1  
# Name:          frag2-062-23/319335 -- energy: 0.013629
# Creation time: Sat Jun  5 12:53:49 2010


@<TRIPOS>MOLECULE
frag2-062-23/319335 -- energy: 0.013629
   16    17     1     1     1
SMALL
USER_CHARGES


@<TRIPOS>ATOM
      1 C1          0.3936    0.3839    0.0283 C.ar       1 <1>        0.000
      2 C2          0.0841   -0.9399   -0.0727 C.ar       1 <1>        0.000
      3 C3          1.7457    0.7698    0.0544 C.ar       1 <1>        0.000
      4 C4         -0.6225    1.3624    0.1064 C.ar       1 <1>        0.000
      5 N1          1.0858   -1.8721   -0.1473 N.ar       1 <1>        0.000
      6 C5         -1.2737   -1.3561   -0.1010 C.ar       1 <1>        0.000
      7 C6          2.7140   -0.2411   -0.0254 C.ar       1 <1>        0.000
      8 C7         -1.9694    0.9595    0.0793 C.ar       1 <1>        0.000
      9 N2          2.3272   -1.5388   -0.1237 N.ar       1 <1>        0.000
     10 C8         -2.2957   -0.3861   -0.0237 C.ar       1 <1>        0.000
     11 H           2.0311    1.8188    0.1339 H.spc      1 <1>        0.000
     12 H          -0.3651    2.4185    0.1868 H.spc      1 <1>        0.000
     13 H          -1.5237   -2.4140   -0.1816 H.spc      1 <1>        0.000
     14 H           3.7736    0.0140   -0.0086 H.spc      1 <1>        0.000
     15 H          -2.7607    1.7067    0.1394 H.spc      1 <1>        0.000
     16 H          -3.3413   -0.6932   -0.0449 H.spc      1 <1>        0.000
@<TRIPOS>BOND
     1    7    9 ar 
     2    8   10 ar 
     3    1    2 ar 
     4    1    3 ar 
     5    2    5 ar 
     6    1    4 ar 
     7    2    6 ar 
     8    3    7 ar 
     9    4    8 ar 
    10    5    9 ar 
    11    6   10 ar 
    12    3   11 1  
    13    4   12 1  
    14    6   13 1  
    15    7   14 1  
    16    8   15 1  
    17   10   16 1  
