#      Rotatable Fragment
#      Build by yxyuan
#
# Name:          frag4-350-389/150395
# Creation time: Sat Jun  5 12:53:31 2010


@<TRIPOS>MOLECULE
frag4-350-389/150395
   14    15     1     1     1
SMALL
USER_CHARGES


@<TRIPOS>ATOM
      1 N1          1.5533    0.8255    1.1024 N.2        1 <1>        0.000
      2 C1          1.3637    2.3337    1.0452 C.2        1 <1>        0.000
      3 C2          0.4344    0.3010    0.7725 C.2        1 <1>        0.000
      4 N2          0.1414    2.6053    0.7235 N.2        1 <1>        0.000
      5 C5         -0.4943    1.4312    0.4898 C.2        1 <1>        0.000
      6 N3          0.1043   -0.9824    0.6166 N.2        1 <1>        0.000
      7 C9         -1.7036    1.0428    0.0917 C.2        1 <1>        0.000
      8 C10        -0.9469   -1.2849   -0.0769 C.2        1 <1>        0.000
      9 C13        -2.1413   -0.3692   -0.0942 C.3        1 <1>        0.000
     10 H           2.1398    3.0725    1.2449 H.spc      1 <1>        0.000
     11 H          -2.4354    1.8236   -0.1158 H.spc      1 <1>        0.000
     12 H          -0.9668   -2.2102   -0.6527 H.spc      1 <1>        0.000
     13 H          -2.6514   -0.4633   -1.0529 H.spc      1 <1>        0.000
     14 H          -2.8164   -0.6450    0.7159 H.spc      1 <1>        0.000
@<TRIPOS>BOND
     1    1    2 1  
     2    1    3 2  
     3    2    4 2  
     4    3    6 1  
     5    3    5 1  
     6    5    7 2  
     7    4    5 1  
     8    6    8 2  
     9    7    9 1  
    10    8    9 1  
    11    2   10 1  
    12    7   11 1  
    13    8   12 1  
    14    9   13 1  
    15    9   14 1  
# Name:          frag4-350-389/150395 -- energy: -0.474318
# Creation time: Sat Jun  5 12:53:31 2010


@<TRIPOS>MOLECULE
frag4-350-389/150395 -- energy: -0.474318
   14    15     1     1     1
SMALL
USER_CHARGES


@<TRIPOS>ATOM
      1 N1          1.5533    0.8255    1.1024 N.2        1 <1>        0.000
      2 C1          1.3637    2.3337    1.0452 C.2        1 <1>        0.000
      3 C2          0.4344    0.3010    0.7725 C.2        1 <1>        0.000
      4 N2          0.1414    2.6053    0.7235 N.2        1 <1>        0.000
      5 C5         -0.4943    1.4312    0.4898 C.2        1 <1>        0.000
      6 N3          0.1043   -0.9824    0.6166 N.2        1 <1>        0.000
      7 C9         -1.7036    1.0428    0.0917 C.2        1 <1>        0.000
      8 C10        -0.9469   -1.2849   -0.0769 C.2        1 <1>        0.000
      9 C13        -2.1413   -0.3692   -0.0942 C.3        1 <1>        0.000
     10 H           2.1398    3.0725    1.2449 H.spc      1 <1>        0.000
     11 H          -2.4354    1.8236   -0.1158 H.spc      1 <1>        0.000
     12 H          -0.9668   -2.2102   -0.6527 H.spc      1 <1>        0.000
     13 H          -2.6514   -0.4633   -1.0529 H.spc      1 <1>        0.000
     14 H          -2.8164   -0.6450    0.7159 H.spc      1 <1>        0.000
@<TRIPOS>BOND
     1    1    2 1  
     2    1    3 2  
     3    2    4 2  
     4    3    6 1  
     5    3    5 1  
     6    5    7 2  
     7    4    5 1  
     8    6    8 2  
     9    7    9 1  
    10    8    9 1  
    11    2   10 1  
    12    7   11 1  
    13    8   12 1  
    14    9   13 1  
    15    9   14 1  
