#      Rotatable Fragment
#      Build by yxyuan
#
# Name:          frag5-537-228/138278
# Creation time: Sat Jun  5 12:53:41 2010


@<TRIPOS>MOLECULE
frag5-537-228/138278
   21    22     1     1     1
SMALL
USER_CHARGES


@<TRIPOS>ATOM
      1 C1          1.0160    0.5732    0.4117 C.3        1 <1>        0.000
      2 C2         -0.2772   -0.2184    0.2166 C.ar       1 <1>        0.000
      3 C3          2.2469   -0.2501   -0.0266 C.3        1 <1>        0.000
      4 C4         -0.2435   -1.6156    0.0294 C.ar       1 <1>        0.000
      5 C5         -1.5098    0.4434    0.2201 C.ar       1 <1>        0.000
      6 C8          2.1089   -1.6729    0.5513 C.3        1 <1>        0.000
      7 O2          0.9635   -2.3035   -0.0270 O.3        1 <1>        0.000
      8 C9         -1.4443   -2.3177   -0.1093 C.ar       1 <1>        0.000
      9 C10        -2.7048   -0.2600    0.0475 C.ar       1 <1>        0.000
     10 C15        -2.6680   -1.6509   -0.0943 C.ar       1 <1>        0.000
     11 C16        -3.9619    0.4369    0.0118 C.1        1 <1>        0.000
     12 N2         -4.9757    0.9990   -0.0108 N.1        1 <1>        0.000
     13 H           0.9665    1.4758   -0.1974 H.spc      1 <1>        0.000
     14 H           1.1188    0.8161    1.4693 H.spc      1 <1>        0.000
     15 H           2.3003   -0.2921   -1.1145 H.spc      1 <1>        0.000
     16 H           3.1598    0.2167    0.3434 H.spc      1 <1>        0.000
     17 H          -1.5384    1.5241    0.3596 H.spc      1 <1>        0.000
     18 H           1.9907   -1.6193    1.6335 H.spc      1 <1>        0.000
     19 H           3.0028   -2.2516    0.3185 H.spc      1 <1>        0.000
     20 H          -1.4233   -3.4007   -0.2308 H.spc      1 <1>        0.000
     21 H          -3.5964   -2.2134   -0.1931 H.spc      1 <1>        0.000
@<TRIPOS>BOND
     1    3    6 1  
     2    9   11 1  
     3    4    7 1  
     4    9   10 ar 
     5   11   12 3  
     6    5    9 ar 
     7    2    4 ar 
     8    4    8 ar 
     9    2    5 ar 
    10    1    3 1  
    11    1    2 1  
    12    8   10 ar 
    13    6    7 1  
    14    1   13 1  
    15    1   14 1  
    16    3   15 1  
    17    3   16 1  
    18    5   17 1  
    19    6   18 1  
    20    6   19 1  
    21    8   20 1  
    22   10   21 1  
# Name:          frag5-537-228/138278 -- energy: -1.344564
# Creation time: Sat Jun  5 12:53:41 2010


@<TRIPOS>MOLECULE
frag5-537-228/138278 -- energy: -1.344564
   21    22     1     1     1
SMALL
USER_CHARGES


@<TRIPOS>ATOM
      1 C1          1.0160    0.5732    0.4117 C.3        1 <1>        0.000
      2 C2         -0.2772   -0.2184    0.2166 C.ar       1 <1>        0.000
      3 C3          2.2469   -0.2501   -0.0266 C.3        1 <1>        0.000
      4 C4         -0.2435   -1.6156    0.0294 C.ar       1 <1>        0.000
      5 C5         -1.5098    0.4434    0.2201 C.ar       1 <1>        0.000
      6 C8          2.1089   -1.6729    0.5513 C.3        1 <1>        0.000
      7 O2          0.9635   -2.3035   -0.0270 O.3        1 <1>        0.000
      8 C9         -1.4443   -2.3177   -0.1093 C.ar       1 <1>        0.000
      9 C10        -2.7048   -0.2600    0.0475 C.ar       1 <1>        0.000
     10 C15        -2.6680   -1.6509   -0.0943 C.ar       1 <1>        0.000
     11 C16        -3.9619    0.4369    0.0118 C.1        1 <1>        0.000
     12 N2         -4.9757    0.9990   -0.0108 N.1        1 <1>        0.000
     13 H           0.9665    1.4758   -0.1974 H.spc      1 <1>        0.000
     14 H           1.1188    0.8161    1.4693 H.spc      1 <1>        0.000
     15 H           2.3003   -0.2921   -1.1145 H.spc      1 <1>        0.000
     16 H           3.1598    0.2167    0.3434 H.spc      1 <1>        0.000
     17 H          -1.5384    1.5241    0.3596 H.spc      1 <1>        0.000
     18 H           1.9907   -1.6193    1.6335 H.spc      1 <1>        0.000
     19 H           3.0028   -2.2516    0.3185 H.spc      1 <1>        0.000
     20 H          -1.4233   -3.4007   -0.2308 H.spc      1 <1>        0.000
     21 H          -3.5964   -2.2134   -0.1931 H.spc      1 <1>        0.000
@<TRIPOS>BOND
     1    3    6 1  
     2    9   11 1  
     3    4    7 1  
     4    9   10 ar 
     5   11   12 3  
     6    5    9 ar 
     7    2    4 ar 
     8    4    8 ar 
     9    2    5 ar 
    10    1    3 1  
    11    1    2 1  
    12    8   10 ar 
    13    6    7 1  
    14    1   13 1  
    15    1   14 1  
    16    3   15 1  
    17    3   16 1  
    18    5   17 1  
    19    6   18 1  
    20    6   19 1  
    21    8   20 1  
    22   10   21 1  
