#      Rotatable Fragment
#      Build by yxyuan
#
# Name:          frag4-488-86/150395
# Creation time: Sat Jun  5 12:53:39 2010


@<TRIPOS>MOLECULE
frag4-488-86/150395
   33    36     1     1     1
SMALL
USER_CHARGES


@<TRIPOS>ATOM
      1 C1         -1.6751   -1.5790   -0.2049 C.2        1 <1>        0.000
      2 C2         -1.8019   -0.2455   -0.3344 C.2        1 <1>        0.000
      3 C3         -2.8794   -2.4257   -0.0645 C.2        1 <1>        0.000
      4 C4         -0.5261   -2.4109   -0.1597 C.2        1 <1>        0.000
      5 C5         -0.4976    0.5071   -0.4468 C.3        1 <1>        0.000
      6 C6         -3.1912    0.2520   -0.3267 C.3        1 <1>        0.000
      7 N1         -2.4389   -3.6241    0.0445 N.2        1 <1>        0.000
      8 C7         -4.2508   -1.9838   -0.0429 C.2        1 <1>        0.000
      9 C15         1.9759    1.8711    0.0818 C.3        1 <1>        0.000
     10 C8          0.7899   -1.7859   -0.2672 C.3        1 <1>        0.000
     11 C9         -1.0488   -3.6358   -0.0017 C.2        1 <1>        0.000
     12 C10         0.7607   -0.2913    0.0657 C.3        1 <1>        0.000
     13 C11        -0.5500    1.8929    0.2155 C.3        1 <1>        0.000
     14 C12        -4.3497   -0.6452   -0.1686 C.2        1 <1>        0.000
     15 N2          2.0199    0.4309   -0.1101 N.4        1 <1>        0.000
     16 C14         0.7632    2.3725    0.8016 C.3        1 <1>        0.000
     17 H          -0.3691    0.6407   -1.5209 H.spc      1 <1>        0.000
     18 H          -3.3204    0.6580   -1.3300 H.spc      1 <1>        0.000
     19 H          -3.2314    0.8771    0.5654 H.spc      1 <1>        0.000
     20 H          -5.1057   -2.6518    0.0624 H.spc      1 <1>        0.000
     21 H           2.8384    2.1350    0.6938 H.spc      1 <1>        0.000
     22 H           1.9635    2.3220   -0.9105 H.spc      1 <1>        0.000
     23 H           1.4532   -2.2756    0.4458 H.spc      1 <1>        0.000
     24 H           1.1294   -1.8936   -1.2974 H.spc      1 <1>        0.000
     25 H          -0.4492   -4.5423    0.0815 H.spc      1 <1>        0.000
     26 H           0.6274   -0.3315    1.1468 H.spc      1 <1>        0.000
     27 H          -1.2560    1.8200    1.0428 H.spc      1 <1>        0.000
     28 H          -0.8254    2.6039   -0.5634 H.spc      1 <1>        0.000
     29 H          -5.3447   -0.2004   -0.1524 H.spc      1 <1>        0.000
     30 H           2.6534    0.0707    0.6036 H.spc      1 <1>        0.000
     31 H           2.2957    0.2843   -1.0811 H.spc      1 <1>        0.000
     32 H           0.7710    3.4598    0.7260 H.spc      1 <1>        0.000
     33 H           0.8164    1.9952    1.8228 H.spc      1 <1>        0.000
@<TRIPOS>BOND
     1    7   11 1  
     2    2    5 1  
     3    1    4 1  
     4    1    3 1  
     5    3    7 2  
     6    2    6 1  
     7    5   12 1  
     8    3    8 1  
     9    4   11 2  
    10   10   12 1  
    11    5   13 1  
    12    4   10 1  
    13    8   14 2  
    14    6   14 1  
    15    1    2 2  
    16   16    9 1  
    17   15    9 1  
    18   13   16 1  
    19   12   15 1  
    20    5   17 1  
    21    6   18 1  
    22    6   19 1  
    23    8   20 1  
    24    9   21 1  
    25    9   22 1  
    26   10   23 1  
    27   10   24 1  
    28   11   25 1  
    29   12   26 1  
    30   13   27 1  
    31   13   28 1  
    32   14   29 1  
    33   15   30 1  
    34   15   31 1  
    35   16   32 1  
    36   16   33 1  
# Name:          frag4-488-86/150395 -- energy: -4.299409
# Creation time: Sat Jun  5 12:53:39 2010


@<TRIPOS>MOLECULE
frag4-488-86/150395 -- energy: -4.299409
   33    36     1     1     1
SMALL
USER_CHARGES


@<TRIPOS>ATOM
      1 C1         -1.6751   -1.5790   -0.2049 C.2        1 <1>        0.000
      2 C2         -1.8019   -0.2455   -0.3344 C.2        1 <1>        0.000
      3 C3         -2.8794   -2.4257   -0.0645 C.2        1 <1>        0.000
      4 C4         -0.5261   -2.4109   -0.1597 C.2        1 <1>        0.000
      5 C5         -0.4976    0.5071   -0.4468 C.3        1 <1>        0.000
      6 C6         -3.1912    0.2520   -0.3267 C.3        1 <1>        0.000
      7 N1         -2.4389   -3.6241    0.0445 N.2        1 <1>        0.000
      8 C7         -4.2508   -1.9838   -0.0429 C.2        1 <1>        0.000
      9 C15         1.9759    1.8711    0.0818 C.3        1 <1>        0.000
     10 C8          0.7899   -1.7859   -0.2672 C.3        1 <1>        0.000
     11 C9         -1.0488   -3.6358   -0.0017 C.2        1 <1>        0.000
     12 C10         0.7607   -0.2913    0.0657 C.3        1 <1>        0.000
     13 C11        -0.5500    1.8929    0.2155 C.3        1 <1>        0.000
     14 C12        -4.3497   -0.6452   -0.1686 C.2        1 <1>        0.000
     15 N2          2.0199    0.4309   -0.1101 N.4        1 <1>        0.000
     16 C14         0.7632    2.3725    0.8016 C.3        1 <1>        0.000
     17 H          -0.3691    0.6407   -1.5209 H.spc      1 <1>        0.000
     18 H          -3.3204    0.6580   -1.3300 H.spc      1 <1>        0.000
     19 H          -3.2314    0.8771    0.5654 H.spc      1 <1>        0.000
     20 H          -5.1057   -2.6518    0.0624 H.spc      1 <1>        0.000
     21 H           2.8384    2.1350    0.6938 H.spc      1 <1>        0.000
     22 H           1.9635    2.3220   -0.9105 H.spc      1 <1>        0.000
     23 H           1.4532   -2.2756    0.4458 H.spc      1 <1>        0.000
     24 H           1.1294   -1.8936   -1.2974 H.spc      1 <1>        0.000
     25 H          -0.4492   -4.5423    0.0815 H.spc      1 <1>        0.000
     26 H           0.6274   -0.3315    1.1468 H.spc      1 <1>        0.000
     27 H          -1.2560    1.8200    1.0428 H.spc      1 <1>        0.000
     28 H          -0.8254    2.6039   -0.5634 H.spc      1 <1>        0.000
     29 H          -5.3447   -0.2004   -0.1524 H.spc      1 <1>        0.000
     30 H           2.6534    0.0707    0.6036 H.spc      1 <1>        0.000
     31 H           2.2957    0.2843   -1.0811 H.spc      1 <1>        0.000
     32 H           0.7710    3.4598    0.7260 H.spc      1 <1>        0.000
     33 H           0.8164    1.9952    1.8228 H.spc      1 <1>        0.000
@<TRIPOS>BOND
     1    7   11 1  
     2    2    5 1  
     3    1    4 1  
     4    1    3 1  
     5    3    7 2  
     6    2    6 1  
     7    5   12 1  
     8    3    8 1  
     9    4   11 2  
    10   10   12 1  
    11    5   13 1  
    12    4   10 1  
    13    8   14 2  
    14    6   14 1  
    15    1    2 2  
    16   16    9 1  
    17   15    9 1  
    18   13   16 1  
    19   12   15 1  
    20    5   17 1  
    21    6   18 1  
    22    6   19 1  
    23    8   20 1  
    24    9   21 1  
    25    9   22 1  
    26   10   23 1  
    27   10   24 1  
    28   11   25 1  
    29   12   26 1  
    30   13   27 1  
    31   13   28 1  
    32   14   29 1  
    33   15   30 1  
    34   15   31 1  
    35   16   32 1  
    36   16   33 1  
