#      Rotatable Fragment
#      Build by yxyuan
#
# Name:          frag4-309-1106/150395
# Creation time: Sat Jun  5 12:53:30 2010


@<TRIPOS>MOLECULE
frag4-309-1106/150395
   16    16     1     1     1
SMALL
USER_CHARGES


@<TRIPOS>ATOM
      1 N1          3.0167   -0.2787   -0.4280 N.4        1 <1>        0.000
      2 C31         2.8133   -1.7104   -0.1934 C.3        1 <1>        0.000
      3 C32         4.2588    0.2143    0.2242 C.3        1 <1>        0.000
      4 C33         4.1441   -2.4556   -0.0353 C.3        1 <1>        0.000
      5 C34         4.8257   -0.6247    1.3458 C.3        1 <1>        0.000
      6 O8          4.9541   -1.9729    1.0092 O.3        1 <1>        0.000
      7 H           2.2239    0.2275   -0.0335 H.spc      1 <1>        0.000
      8 H           3.0992   -0.1262   -1.4332 H.spc      1 <1>        0.000
      9 H           2.2869   -2.1271   -1.0521 H.spc      1 <1>        0.000
     10 H           2.2424   -1.8292    0.7275 H.spc      1 <1>        0.000
     11 H           3.9985    1.1730    0.6727 H.spc      1 <1>        0.000
     12 H           5.0207    0.2221   -0.5553 H.spc      1 <1>        0.000
     13 H           4.7006   -2.3209   -0.9628 H.spc      1 <1>        0.000
     14 H           3.9061   -3.4940    0.1955 H.spc      1 <1>        0.000
     15 H           5.8212   -0.2438    1.5740 H.spc      1 <1>        0.000
     16 H           4.1389   -0.5577    2.1895 H.spc      1 <1>        0.000
@<TRIPOS>BOND
     1    5    6 1  
     2    1    2 1  
     3    1    3 1  
     4    2    4 1  
     5    3    5 1  
     6    4    6 1  
     7    1    7 1  
     8    1    8 1  
     9    2    9 1  
    10    2   10 1  
    11    3   11 1  
    12    3   12 1  
    13    4   13 1  
    14    4   14 1  
    15    5   15 1  
    16    5   16 1  
# Name:          frag4-309-1106/150395 -- energy: -0.679641
# Creation time: Sat Jun  5 12:53:30 2010


@<TRIPOS>MOLECULE
frag4-309-1106/150395 -- energy: -0.679641
   16    16     1     1     1
SMALL
USER_CHARGES


@<TRIPOS>ATOM
      1 N1          3.0167   -0.2787   -0.4280 N.4        1 <1>        0.000
      2 C31         2.8133   -1.7104   -0.1934 C.3        1 <1>        0.000
      3 C32         4.2588    0.2143    0.2242 C.3        1 <1>        0.000
      4 C33         4.1441   -2.4556   -0.0353 C.3        1 <1>        0.000
      5 C34         4.8257   -0.6247    1.3458 C.3        1 <1>        0.000
      6 O8          4.9541   -1.9729    1.0092 O.3        1 <1>        0.000
      7 H           2.2239    0.2275   -0.0335 H.spc      1 <1>        0.000
      8 H           3.0992   -0.1262   -1.4332 H.spc      1 <1>        0.000
      9 H           2.2869   -2.1271   -1.0521 H.spc      1 <1>        0.000
     10 H           2.2424   -1.8292    0.7275 H.spc      1 <1>        0.000
     11 H           3.9985    1.1730    0.6727 H.spc      1 <1>        0.000
     12 H           5.0207    0.2221   -0.5553 H.spc      1 <1>        0.000
     13 H           4.7006   -2.3209   -0.9628 H.spc      1 <1>        0.000
     14 H           3.9061   -3.4940    0.1955 H.spc      1 <1>        0.000
     15 H           5.8212   -0.2438    1.5740 H.spc      1 <1>        0.000
     16 H           4.1389   -0.5577    2.1895 H.spc      1 <1>        0.000
@<TRIPOS>BOND
     1    5    6 1  
     2    1    2 1  
     3    1    3 1  
     4    2    4 1  
     5    3    5 1  
     6    4    6 1  
     7    1    7 1  
     8    1    8 1  
     9    2    9 1  
    10    2   10 1  
    11    3   11 1  
    12    3   12 1  
    13    4   13 1  
    14    4   14 1  
    15    5   15 1  
    16    5   16 1  
