#      Rotatable Fragment
#      Build by yxyuan
#
# Name:          frag3-229-6/96164
# Creation time: Sat Jun  5 12:53:14 2010


@<TRIPOS>MOLECULE
frag3-229-6/96164
   11    10     1     1     1
SMALL
USER_CHARGES


@<TRIPOS>ATOM
      1 S1          2.4966   -0.4096   -0.5228 S.o2       1 <1>        0.000
      2 N1          1.4482   -1.5719   -0.1625 N.am       1 <1>        0.000
      3 C1          3.9161   -1.1595   -0.0355 C.2        1 <1>        0.000
      4 O1          2.4891   -0.3340   -1.9687 O.2        1 <1>        0.000
      5 O2          2.2168    0.6984    0.3535 O.2        1 <1>        0.000
      6 C3          5.0916   -1.0424   -0.6438 C.2        1 <1>        0.000
      7 H           0.9563   -2.0642   -0.9082 H.spc      1 <1>        0.000
      8 H           1.2743   -1.8177    0.8120 H.spc      1 <1>        0.000
      9 H           3.8704   -1.7930    0.8503 H.spc      1 <1>        0.000
     10 H           5.1853   -0.4195   -1.5334 H.spc      1 <1>        0.000
     11 H           5.9622   -1.5692   -0.2532 H.spc      1 <1>        0.000
@<TRIPOS>BOND
     1    1    2 1  
     2    1    3 1  
     3    1    4 2  
     4    1    5 2  
     5    3    6 2  
     6    2    7 1  
     7    2    8 1  
     8    3    9 1  
     9    6   10 1  
    10    6   11 1  
# Name:          frag3-229-6/96164
# Creation time: Sat Jun  5 12:53:14 2010


@<TRIPOS>MOLECULE
frag3-229-6/96164
   11    10     1     1     1
SMALL
USER_CHARGES


@<TRIPOS>ATOM
      1 S1          2.5155   -0.3903   -0.6971 S.o2       1 <1>        0.000
      2 N1          1.7416   -1.6135   -0.0760 N.am       1 <1>        0.000
      3 C1          4.0480   -1.0638   -0.7513 C.2        1 <1>        0.000
      4 O1          1.9500   -0.2292   -2.0130 O.2        1 <1>        0.000
      5 O2          2.4692    0.6348    0.3202 O.2        1 <1>        0.000
      6 C3          4.9340   -1.1571    0.2374 C.2        1 <1>        0.000
      7 H           1.0187   -2.0877   -0.6173 H.spc      1 <1>        0.000
      8 H           1.9634   -1.9315    0.8675 H.spc      1 <1>        0.000
      9 H           4.3570   -1.4753   -1.7122 H.spc      1 <1>        0.000
     10 H           4.6912   -0.7661    1.2255 H.spc      1 <1>        0.000
     11 H           5.9024   -1.6245    0.0591 H.spc      1 <1>        0.000
@<TRIPOS>BOND
     1    1    2 1  
     2    1    3 1  
     3    1    4 2  
     4    1    5 2  
     5    3    6 2  
     6    2    7 1  
     7    2    8 1  
     8    3    9 1  
     9    6   10 1  
    10    6   11 1  
# Name:          frag3-229-6/96164 -- energy: -0.665046
# Creation time: Sat Jun  5 12:53:14 2010


@<TRIPOS>MOLECULE
frag3-229-6/96164 -- energy: -0.665046
   11    10     1     1     1
SMALL
USER_CHARGES


@<TRIPOS>ATOM
      1 S1          2.4966   -0.4096   -0.5228 S.o2       1 <1>        0.000
      2 N1          1.4482   -1.5719   -0.1625 N.am       1 <1>        0.000
      3 C1          3.9161   -1.1595   -0.0355 C.2        1 <1>        0.000
      4 O1          2.4891   -0.3340   -1.9687 O.2        1 <1>        0.000
      5 O2          2.2168    0.6984    0.3535 O.2        1 <1>        0.000
      6 C3          5.0916   -1.0424   -0.6438 C.2        1 <1>        0.000
      7 H           0.9563   -2.0642   -0.9082 H.spc      1 <1>        0.000
      8 H           1.2743   -1.8177    0.8120 H.spc      1 <1>        0.000
      9 H           3.8704   -1.7930    0.8503 H.spc      1 <1>        0.000
     10 H           5.1853   -0.4195   -1.5334 H.spc      1 <1>        0.000
     11 H           5.9622   -1.5692   -0.2532 H.spc      1 <1>        0.000
@<TRIPOS>BOND
     1    1    2 1  
     2    1    3 1  
     3    1    4 2  
     4    1    5 2  
     5    3    6 2  
     6    2    7 1  
     7    2    8 1  
     8    3    9 1  
     9    6   10 1  
    10    6   11 1  
# Name:          frag3-229-6/96164 -- energy: -0.715751
# Creation time: Sat Jun  5 12:53:14 2010


@<TRIPOS>MOLECULE
frag3-229-6/96164 -- energy: -0.715751
   11    10     1     1     1
SMALL
USER_CHARGES


@<TRIPOS>ATOM
      1 S1          2.5155   -0.3903   -0.6971 S.o2       1 <1>        0.000
      2 N1          1.7416   -1.6135   -0.0760 N.am       1 <1>        0.000
      3 C1          4.0480   -1.0638   -0.7513 C.2        1 <1>        0.000
      4 O1          1.9500   -0.2292   -2.0130 O.2        1 <1>        0.000
      5 O2          2.4692    0.6348    0.3202 O.2        1 <1>        0.000
      6 C3          4.9340   -1.1571    0.2374 C.2        1 <1>        0.000
      7 H           1.0187   -2.0877   -0.6173 H.spc      1 <1>        0.000
      8 H           1.9634   -1.9315    0.8675 H.spc      1 <1>        0.000
      9 H           4.3570   -1.4753   -1.7122 H.spc      1 <1>        0.000
     10 H           4.6912   -0.7661    1.2255 H.spc      1 <1>        0.000
     11 H           5.9024   -1.6245    0.0591 H.spc      1 <1>        0.000
@<TRIPOS>BOND
     1    1    2 1  
     2    1    3 1  
     3    1    4 2  
     4    1    5 2  
     5    3    6 2  
     6    2    7 1  
     7    2    8 1  
     8    3    9 1  
     9    6   10 1  
    10    6   11 1  
