#      Rotatable Fragment
#      Build by yxyuan
#
# Name:          frag5-549-186/138278
# Creation time: Sat Jun  5 12:53:42 2010


@<TRIPOS>MOLECULE
frag5-549-186/138278
   86    88     1     1     1
SMALL
USER_CHARGES


@<TRIPOS>ATOM
      1 C1         -3.4339   -1.0233    0.3797 C.3        1 <1>        0.000
      2 C2         -2.9340   -0.6785   -1.0313 C.2        1 <1>        0.000
      3 O1         -2.4657   -1.6633    1.1331 O.3        1 <1>        0.000
      4 C3         -4.7169   -1.8299    0.3106 C.3        1 <1>        0.000
      5 C4         -3.8156    0.3144   -1.7722 C.2        1 <1>        0.000
      6 O3         -1.9561   -1.0472   -1.6731 O.2        1 <1>        0.000
      7 C5         -2.3492   -3.0111    1.4355 C.3        1 <1>        0.000
      8 C12        -0.6670   -4.8541    2.1773 C.3        1 <1>        0.000
      9 C6         -4.5004   -3.3114    0.0778 C.3        1 <1>        0.000
     10 N1         -4.0661    1.4910   -1.1164 N.am       1 <1>        0.000
     11 O4         -4.2946   -0.1636   -2.7919 O.2        1 <1>        0.000
     12 C8         -0.9357   -3.4220    1.7742 C.3        1 <1>        0.000
     13 C9         -3.1097   -3.8317    0.4021 C.3        1 <1>        0.000
     14 C10        -3.1144    2.6062   -0.9200 C.3        1 <1>        0.000
     15 C11        -5.4338    1.7935   -0.7617 C.3        1 <1>        0.000
     16 C28         1.7133    4.7556   -2.8871 C.2        1 <1>        0.000
     17 C29         2.0789   -6.3593   -1.1121 C.2        1 <1>        0.000
     18 C31         1.8629    3.6931   -3.9473 C.3        1 <1>        0.000
     19 C13        -1.6941    2.1705   -0.5340 C.2        1 <1>        0.000
     20 C14        -3.5497    3.6824    0.0588 C.3        1 <1>        0.000
     21 C15        -5.9285    3.2121   -0.6829 C.3        1 <1>        0.000
     22 C16        -0.3054   -5.7467    1.0546 C.2        1 <1>        0.000
     23 O6         -0.5679    2.6516   -1.0827 O.3        1 <1>        0.000
     24 O7         -1.5817    1.3334    0.3620 O.2        1 <1>        0.000
     25 C17        -4.9308    4.2244   -0.1851 C.3        1 <1>        0.000
     26 C18         0.0803   -7.0249    1.0085 C.2        1 <1>        0.000
     27 C21        -0.5041    3.8373   -1.8451 C.3        1 <1>        0.000
     28 C22         0.4800   -7.8898   -0.0621 C.2        1 <1>        0.000
     29 C24         0.7681    4.6412   -1.7167 C.3        1 <1>        0.000
     30 C25         1.3854   -7.6012   -1.0127 C.2        1 <1>        0.000
     31 O8          2.4406    5.7547   -2.9427 O.2        1 <1>        0.000
     32 C32         1.6016   -5.1995   -1.5819 C.2        1 <1>        0.000
     33 C35         3.1368    2.9674   -3.7446 C.2        1 <1>        0.000
     34 C37         2.2366   -3.8726   -1.6451 C.3        1 <1>        0.000
     35 C40         3.3832    1.9049   -2.9699 C.2        1 <1>        0.000
     36 C41         2.4533   -3.2615   -2.9980 C.3        1 <1>        0.000
     37 C44         2.4502    1.1575   -2.0874 C.3        1 <1>        0.000
     38 C46         3.1765   -1.9492   -2.9734 C.3        1 <1>        0.000
     39 C48         1.6195    0.1238   -2.7965 C.3        1 <1>        0.000
     40 C49         2.4278   -0.8317   -3.6317 C.2        1 <1>        0.000
     41 O13         2.4830   -0.6992   -4.8535 O.2        1 <1>        0.000
     42 H          -3.6525   -0.0857    0.8908 H.spc      1 <1>        0.000
     43 H          -5.2928   -1.4503   -0.5334 H.spc      1 <1>        0.000
     44 H          -5.2185   -1.7233    1.2724 H.spc      1 <1>        0.000
     45 H          -2.8441   -3.2379    2.3798 H.spc      1 <1>        0.000
     46 H           0.1816   -4.8403    2.8613 H.spc      1 <1>        0.000
     47 H          -1.5883   -5.2427    2.6112 H.spc      1 <1>        0.000
     48 H          -4.6539   -3.4826   -0.9877 H.spc      1 <1>        0.000
     49 H          -5.1885   -3.8328    0.7432 H.spc      1 <1>        0.000
     50 H          -0.3725   -3.2789    0.8520 H.spc      1 <1>        0.000
     51 H          -0.6726   -2.8291    2.6502 H.spc      1 <1>        0.000
     52 H          -3.2337   -4.8312    0.8189 H.spc      1 <1>        0.000
     53 H          -2.5326   -3.7927   -0.5217 H.spc      1 <1>        0.000
     54 H          -3.1082    3.0377   -1.9209 H.spc      1 <1>        0.000
     55 H          -6.0161    1.3590   -1.5742 H.spc      1 <1>        0.000
     56 H          -5.5248    1.4284    0.2613 H.spc      1 <1>        0.000
     57 H           3.1129   -6.3532   -0.7672 H.spc      1 <1>        0.000
     58 H           1.0311    2.9921   -3.8781 H.spc      1 <1>        0.000
     59 H           1.8646    4.1608   -4.9318 H.spc      1 <1>        0.000
     60 H          -3.5551    3.2291    1.0501 H.spc      1 <1>        0.000
     61 H          -2.8555    4.5153   -0.0530 H.spc      1 <1>        0.000
     62 H          -6.7518    3.2128    0.0314 H.spc      1 <1>        0.000
     63 H          -6.1857    3.5065   -1.7004 H.spc      1 <1>        0.000
     64 H          -0.3652   -5.2696    0.0764 H.spc      1 <1>        0.000
     65 H          -4.8394    4.9857   -0.9598 H.spc      1 <1>        0.000
     66 H          -5.3013    4.5887    0.7731 H.spc      1 <1>        0.000
     67 H           0.0938   -7.5091    1.9850 H.spc      1 <1>        0.000
     68 H          -0.5690    3.5327   -2.8897 H.spc      1 <1>        0.000
     69 H          -1.3081    4.4776   -1.4821 H.spc      1 <1>        0.000
     70 H           0.0069   -8.8706   -0.1098 H.spc      1 <1>        0.000
     71 H           0.4277    5.6618   -1.5420 H.spc      1 <1>        0.000
     72 H           1.3438    4.1181   -0.9531 H.spc      1 <1>        0.000
     73 H           1.6039   -8.3672   -1.7568 H.spc      1 <1>        0.000
     74 H           0.5873   -5.2448   -1.9784 H.spc      1 <1>        0.000
     75 H           3.9909    3.3510   -4.3027 H.spc      1 <1>        0.000
     76 H           3.2333   -4.0079   -1.2251 H.spc      1 <1>        0.000
     77 H           1.5526   -3.1990   -1.1289 H.spc      1 <1>        0.000
     78 H           4.4091    1.5370   -2.9886 H.spc      1 <1>        0.000
     79 H           1.4688   -3.0771   -3.4280 H.spc      1 <1>        0.000
     80 H           3.0692   -3.9564   -3.5688 H.spc      1 <1>        0.000
     81 H           1.7600    1.8857   -1.6613 H.spc      1 <1>        0.000
     82 H           3.0581    0.6303   -1.3521 H.spc      1 <1>        0.000
     83 H           4.1088   -2.0824   -3.5221 H.spc      1 <1>        0.000
     84 H           3.3151   -1.6749   -1.9276 H.spc      1 <1>        0.000
     85 H           0.9439    0.6531   -3.4684 H.spc      1 <1>        0.000
     86 H           1.1075   -0.4626   -2.0336 H.spc      1 <1>        0.000
@<TRIPOS>BOND
     1   20   25 1  
     2   15   21 1  
     3   19   24 2  
     4   10   15 1  
     5   19   23 1  
     6   14   19 1  
     7    8   22 1  
     8   10   14 1  
     9   14   20 1  
    10   12    8 1  
    11   16   31 2  
    12   17   32 2  
    13   18   33 1  
    14   32   34 1  
    15   33   35 2  
    16   34   36 1  
    17   35   37 1  
    18   36   38 1  
    19   37   39 1  
    20   16   18 1  
    21   30   17 1  
    22   29   16 1  
    23   28   30 2  
    24   27   29 1  
    25   26   28 1  
    26    1    2 1  
    27    1    3 1  
    28    1    4 1  
    29   23   27 1  
    30    2    5 1  
    31   22   26 2  
    32    2    6 2  
    33    3    7 1  
    34    4    9 1  
    35    5   10 am 
    36    5   11 2  
    37   21   25 1  
    38    7   12 1  
    39    7   13 1  
    40    9   13 1  
    41   38   40 1  
    42   39   40 1  
    43   40   41 2  
    44    1   42 1  
    45    4   43 1  
    46    4   44 1  
    47    7   45 1  
    48    8   46 1  
    49    8   47 1  
    50    9   48 1  
    51    9   49 1  
    52   12   50 1  
    53   12   51 1  
    54   13   52 1  
    55   13   53 1  
    56   14   54 1  
    57   15   55 1  
    58   15   56 1  
    59   17   57 1  
    60   18   58 1  
    61   18   59 1  
    62   20   60 1  
    63   20   61 1  
    64   21   62 1  
    65   21   63 1  
    66   22   64 1  
    67   25   65 1  
    68   25   66 1  
    69   26   67 1  
    70   27   68 1  
    71   27   69 1  
    72   28   70 1  
    73   29   71 1  
    74   29   72 1  
    75   30   73 1  
    76   32   74 1  
    77   33   75 1  
    78   34   76 1  
    79   34   77 1  
    80   35   78 1  
    81   36   79 1  
    82   36   80 1  
    83   37   81 1  
    84   37   82 1  
    85   38   83 1  
    86   38   84 1  
    87   39   85 1  
    88   39   86 1  
# Name:          frag5-549-186/138278
# Creation time: Sat Jun  5 12:53:42 2010


@<TRIPOS>MOLECULE
frag5-549-186/138278
   86    88     1     1     1
SMALL
USER_CHARGES


@<TRIPOS>ATOM
      1 C1         -3.5441   -0.4604    0.0901 C.3        1 <1>        0.000
      2 C2         -3.8793   -0.2391   -1.3927 C.2        1 <1>        0.000
      3 O1         -2.4406   -1.2833    0.2365 O.3        1 <1>        0.000
      4 C3         -4.7542   -1.0223    0.8190 C.3        1 <1>        0.000
      5 C4         -4.7518    0.9823   -1.6561 C.2        1 <1>        0.000
      6 O3         -3.5839   -0.8742   -2.3985 O.2        1 <1>        0.000
      7 C5         -2.4697   -2.6316    0.5526 C.3        1 <1>        0.000
      8 C12        -1.0050   -4.7003    0.8856 C.3        1 <1>        0.000
      9 C6         -4.9976   -2.4910    0.5302 C.3        1 <1>        0.000
     10 N1         -4.3874    2.0977   -0.9568 N.am       1 <1>        0.000
     11 O4         -5.7441    0.7275   -2.3254 O.2        1 <1>        0.000
     12 C8         -1.2004   -3.3561    0.2211 C.3        1 <1>        0.000
     13 C9         -3.7690   -3.2429    0.0541 C.3        1 <1>        0.000
     14 C10        -3.2301    2.9796   -1.2229 C.3        1 <1>        0.000
     15 C11        -5.2778    2.5564    0.0777 C.3        1 <1>        0.000
     16 C28         0.9472    3.1663   -1.5868 C.2        1 <1>        0.000
     17 C29         3.1724   -4.7783   -1.0507 C.2        1 <1>        0.000
     18 C31         1.8619    2.4651   -0.5989 C.3        1 <1>        0.000
     19 C13        -2.0687    2.2917   -1.9521 C.2        1 <1>        0.000
     20 C14        -2.6622    3.7513   -0.0324 C.3        1 <1>        0.000
     21 C15        -5.0721    3.9049    0.6916 C.3        1 <1>        0.000
     22 C16         0.3180   -5.2808    0.5678 C.2        1 <1>        0.000
     23 O6         -1.6151    2.8150   -3.1075 O.3        1 <1>        0.000
     24 O7         -1.5568    1.2935   -1.4403 O.2        1 <1>        0.000
     25 C17        -3.6352    4.1323    1.0573 C.3        1 <1>        0.000
     26 C18         1.4248   -5.2222    1.3057 C.2        1 <1>        0.000
     27 C21        -0.3965    2.3155   -3.6149 C.3        1 <1>        0.000
     28 C22         2.7910   -5.6468    1.1888 C.2        1 <1>        0.000
     29 C24         0.9061    2.8587   -3.0631 C.3        1 <1>        0.000
     30 C25         3.6054   -5.4392    0.1405 C.2        1 <1>        0.000
     31 O8          0.2082    4.0653   -1.1619 O.2        1 <1>        0.000
     32 C32         2.4263   -5.3631   -2.0020 C.2        1 <1>        0.000
     33 C35         1.5755    1.0214   -0.3352 C.2        1 <1>        0.000
     34 C37         1.7926   -4.9466   -3.2716 C.3        1 <1>        0.000
     35 C40         2.1300   -0.0423   -0.9497 C.2        1 <1>        0.000
     36 C41         1.7309   -3.4710   -3.5732 C.3        1 <1>        0.000
     37 C44         3.1389    0.1103   -2.0337 C.3        1 <1>        0.000
     38 C46         2.9731   -2.9187   -4.2003 C.3        1 <1>        0.000
     39 C48         3.8966   -0.9533   -2.7688 C.3        1 <1>        0.000
     40 C49         3.2141   -1.4585   -4.0138 C.2        1 <1>        0.000
     41 O13         2.8510   -0.6697   -4.8943 O.2        1 <1>        0.000
     42 H          -3.2896    0.5012    0.5358 H.spc      1 <1>        0.000
     43 H          -5.6301   -0.4696    0.4794 H.spc      1 <1>        0.000
     44 H          -4.5709   -0.9222    1.8888 H.spc      1 <1>        0.000
     45 H          -2.4880   -2.7539    1.6356 H.spc      1 <1>        0.000
     46 H          -1.0691   -4.5623    1.9649 H.spc      1 <1>        0.000
     47 H          -1.7749   -5.3795    0.5194 H.spc      1 <1>        0.000
     48 H          -5.7367   -2.5434   -0.2692 H.spc      1 <1>        0.000
     49 H          -5.3162   -2.9540    1.4641 H.spc      1 <1>        0.000
     50 H          -1.2313   -3.5486   -0.8513 H.spc      1 <1>        0.000
     51 H          -0.3872   -2.7216    0.5734 H.spc      1 <1>        0.000
     52 H          -3.8294   -4.2590    0.4438 H.spc      1 <1>        0.000
     53 H          -3.7576   -3.2054   -1.0352 H.spc      1 <1>        0.000
     54 H          -3.7000    3.7120   -1.8793 H.spc      1 <1>        0.000
     55 H          -6.2515    2.6218   -0.4078 H.spc      1 <1>        0.000
     56 H          -5.1280    1.8556    0.8990 H.spc      1 <1>        0.000
     57 H           3.4650   -3.7383   -1.1955 H.spc      1 <1>        0.000
     58 H           2.8607    2.5006   -1.0340 H.spc      1 <1>        0.000
     59 H           1.7287    2.9785    0.3533 H.spc      1 <1>        0.000
     60 H          -1.9339    3.0883    0.4346 H.spc      1 <1>        0.000
     61 H          -2.2829    4.6897   -0.4370 H.spc      1 <1>        0.000
     62 H          -5.6720    3.9648    1.5997 H.spc      1 <1>        0.000
     63 H          -5.3664    4.6623   -0.0349 H.spc      1 <1>        0.000
     64 H           0.3956   -5.8174   -0.3778 H.spc      1 <1>        0.000
     65 H          -3.5122    5.1990    1.2449 H.spc      1 <1>        0.000
     66 H          -3.4166    3.5059    1.9222 H.spc      1 <1>        0.000
     67 H           1.2450   -4.7153    2.2538 H.spc      1 <1>        0.000
     68 H          -0.3944    1.2581   -3.3505 H.spc      1 <1>        0.000
     69 H          -0.3944    2.5965   -4.6681 H.spc      1 <1>        0.000
     70 H           3.2095   -6.1920    2.0348 H.spc      1 <1>        0.000
     71 H           1.6479    2.0767   -3.2255 H.spc      1 <1>        0.000
     72 H           1.0716    3.8091   -3.5704 H.spc      1 <1>        0.000
     73 H           4.6362   -5.7883    0.2008 H.spc      1 <1>        0.000
     74 H           2.2401   -6.4143   -1.7819 H.spc      1 <1>        0.000
     75 H           0.8381    0.8058    0.4380 H.spc      1 <1>        0.000
     76 H           0.7551   -5.2733   -3.2006 H.spc      1 <1>        0.000
     77 H           2.4076   -5.3799   -4.0603 H.spc      1 <1>        0.000
     78 H           1.8307   -1.0447   -0.6437 H.spc      1 <1>        0.000
     79 H           1.5941   -2.9546   -2.6231 H.spc      1 <1>        0.000
     80 H           0.9187   -3.3225   -4.2848 H.spc      1 <1>        0.000
     81 H           3.9484    0.5981   -1.4907 H.spc      1 <1>        0.000
     82 H           2.5170    0.5079   -2.8357 H.spc      1 <1>        0.000
     83 H           2.8662   -3.0742   -5.2739 H.spc      1 <1>        0.000
     84 H           3.8083   -3.4281   -3.7196 H.spc      1 <1>        0.000
     85 H           3.9941   -1.8018   -2.0915 H.spc      1 <1>        0.000
     86 H           4.8438   -0.5131   -3.0803 H.spc      1 <1>        0.000
@<TRIPOS>BOND
     1   20   25 1  
     2   15   21 1  
     3   19   24 2  
     4   10   15 1  
     5   19   23 1  
     6   14   19 1  
     7    8   22 1  
     8   10   14 1  
     9   14   20 1  
    10   12    8 1  
    11   16   31 2  
    12   17   32 2  
    13   18   33 1  
    14   32   34 1  
    15   33   35 2  
    16   34   36 1  
    17   35   37 1  
    18   36   38 1  
    19   37   39 1  
    20   16   18 1  
    21   30   17 1  
    22   29   16 1  
    23   28   30 2  
    24   27   29 1  
    25   26   28 1  
    26    1    2 1  
    27    1    3 1  
    28    1    4 1  
    29   23   27 1  
    30    2    5 1  
    31   22   26 2  
    32    2    6 2  
    33    3    7 1  
    34    4    9 1  
    35    5   10 am 
    36    5   11 2  
    37   21   25 1  
    38    7   12 1  
    39    7   13 1  
    40    9   13 1  
    41   38   40 1  
    42   39   40 1  
    43   40   41 2  
    44    1   42 1  
    45    4   43 1  
    46    4   44 1  
    47    7   45 1  
    48    8   46 1  
    49    8   47 1  
    50    9   48 1  
    51    9   49 1  
    52   12   50 1  
    53   12   51 1  
    54   13   52 1  
    55   13   53 1  
    56   14   54 1  
    57   15   55 1  
    58   15   56 1  
    59   17   57 1  
    60   18   58 1  
    61   18   59 1  
    62   20   60 1  
    63   20   61 1  
    64   21   62 1  
    65   21   63 1  
    66   22   64 1  
    67   25   65 1  
    68   25   66 1  
    69   26   67 1  
    70   27   68 1  
    71   27   69 1  
    72   28   70 1  
    73   29   71 1  
    74   29   72 1  
    75   30   73 1  
    76   32   74 1  
    77   33   75 1  
    78   34   76 1  
    79   34   77 1  
    80   35   78 1  
    81   36   79 1  
    82   36   80 1  
    83   37   81 1  
    84   37   82 1  
    85   38   83 1  
    86   38   84 1  
    87   39   85 1  
    88   39   86 1  
# Name:          frag5-549-186/138278
# Creation time: Sat Jun  5 12:53:42 2010


@<TRIPOS>MOLECULE
frag5-549-186/138278
   86    88     1     1     1
SMALL
USER_CHARGES


@<TRIPOS>ATOM
      1 C1         -3.8375   -1.0178   -0.2378 C.3        1 <1>        0.000
      2 C2         -3.4615   -0.5989   -1.6645 C.2        1 <1>        0.000
      3 O1         -2.8619   -1.8237    0.3301 O.3        1 <1>        0.000
      4 C3         -5.1877   -1.7088   -0.2883 C.3        1 <1>        0.000
      5 C4         -4.0299    0.7522   -2.1158 C.2        1 <1>        0.000
      6 O3         -2.8160   -1.2046   -2.5141 O.2        1 <1>        0.000
      7 C5         -2.8240   -3.2042    0.4796 C.3        1 <1>        0.000
      8 C12        -1.2596   -5.2747    0.8895 C.3        1 <1>        0.000
      9 C6         -5.1294   -3.1754   -0.6777 C.3        1 <1>        0.000
     10 N1         -4.0672    1.7440   -1.1671 N.am       1 <1>        0.000
     11 O4         -4.4928    0.7368   -3.2488 O.2        1 <1>        0.000
     12 C8         -1.4311   -3.7992    0.4935 C.3        1 <1>        0.000
     13 C9         -3.7856   -3.8623   -0.5069 C.3        1 <1>        0.000
     14 C10        -3.0232    2.7846   -1.0324 C.3        1 <1>        0.000
     15 C11        -5.3599    2.1388   -0.6442 C.3        1 <1>        0.000
     16 C28         2.5965    3.3082   -2.1059 C.2        1 <1>        0.000
     17 C29         3.3879   -4.6496    0.3489 C.2        1 <1>        0.000
     18 C31         2.1785    3.6647   -3.5331 C.3        1 <1>        0.000
     19 C13        -1.6056    2.2291   -0.8686 C.2        1 <1>        0.000
     20 C14        -3.1832    3.7797    0.1195 C.3        1 <1>        0.000
     21 C15        -5.4196    2.8303    0.6977 C.3        1 <1>        0.000
     22 C16         0.1253   -5.7659    0.6155 C.2        1 <1>        0.000
     23 O6         -0.5811    3.0323   -1.2299 O.3        1 <1>        0.000
     24 O7         -1.4333    1.1390   -0.3242 O.2        1 <1>        0.000
     25 C17        -4.0832    3.2805    1.2227 C.3        1 <1>        0.000
     26 C18         1.0296   -6.3807    1.4292 C.2        1 <1>        0.000
     27 C21         0.6236    2.8886   -0.5153 C.3        1 <1>        0.000
     28 C22         2.3811   -6.8204    1.1388 C.2        1 <1>        0.000
     29 C24         1.7681    3.7798   -0.9321 C.3        1 <1>        0.000
     30 C25         3.4107   -6.0743    0.6587 C.2        1 <1>        0.000
     31 O8          3.6241    2.6597   -1.8674 O.2        1 <1>        0.000
     32 C32         2.6886   -4.2087   -0.7102 C.2        1 <1>        0.000
     33 C35         2.3612    2.6497   -4.6133 C.2        1 <1>        0.000
     34 C37         2.4142   -2.8437   -1.2680 C.3        1 <1>        0.000
     35 C40         2.6540    1.3428   -4.6963 C.2        1 <1>        0.000
     36 C41         1.8750   -2.8979   -2.6947 C.3        1 <1>        0.000
     37 C44         2.9173    0.3010   -3.6646 C.3        1 <1>        0.000
     38 C46         0.6126   -2.1539   -3.0641 C.3        1 <1>        0.000
     39 C48         1.8146    0.1454   -2.6558 C.3        1 <1>        0.000
     40 C49         0.6436   -0.6486   -3.1383 C.2        1 <1>        0.000
     41 O13        -0.3105   -0.0309   -3.6289 O.2        1 <1>        0.000
     42 H          -3.9054   -0.1374    0.4013 H.spc      1 <1>        0.000
     43 H          -5.7787   -1.1996   -1.0495 H.spc      1 <1>        0.000
     44 H          -5.6083   -1.6616    0.7162 H.spc      1 <1>        0.000
     45 H          -3.1782   -3.4336    1.4846 H.spc      1 <1>        0.000
     46 H          -1.4504   -5.3668    1.9587 H.spc      1 <1>        0.000
     47 H          -1.9571   -5.8706    0.3009 H.spc      1 <1>        0.000
     48 H          -5.3590   -3.2167   -1.7424 H.spc      1 <1>        0.000
     49 H          -5.8224   -3.6938   -0.0150 H.spc      1 <1>        0.000
     50 H          -1.0897   -3.7428   -0.5401 H.spc      1 <1>        0.000
     51 H          -0.8918   -3.2376    1.2563 H.spc      1 <1>        0.000
     52 H          -3.9960   -4.8573   -0.1146 H.spc      1 <1>        0.000
     53 H          -3.2973   -3.8301   -1.4809 H.spc      1 <1>        0.000
     54 H          -3.1665    3.2986   -1.9829 H.spc      1 <1>        0.000
     55 H          -5.7423    2.8697   -1.3567 H.spc      1 <1>        0.000
     56 H          -5.9066    1.2059   -0.5066 H.spc      1 <1>        0.000
     57 H           3.9361   -3.9450    0.9742 H.spc      1 <1>        0.000
     58 H           1.1021    3.8278   -3.4790 H.spc      1 <1>        0.000
     59 H           2.8236    4.4965   -3.8161 H.spc      1 <1>        0.000
     60 H          -2.1957    3.9445    0.5506 H.spc      1 <1>        0.000
     61 H          -3.6344    4.6843   -0.2883 H.spc      1 <1>        0.000
     62 H          -5.8186    2.1101    1.4120 H.spc      1 <1>        0.000
     63 H          -6.0317    3.7233    0.5713 H.spc      1 <1>        0.000
     64 H           0.4697   -5.6056   -0.4062 H.spc      1 <1>        0.000
     65 H          -4.2498    4.0984    1.9237 H.spc      1 <1>        0.000
     66 H          -3.5988    2.4281    1.6990 H.spc      1 <1>        0.000
     67 H           0.6872   -6.5695    2.4467 H.spc      1 <1>        0.000
     68 H           0.3949    3.1557    0.5164 H.spc      1 <1>        0.000
     69 H           0.9584    1.8666   -0.6928 H.spc      1 <1>        0.000
     70 H           2.5961   -7.8722    1.3277 H.spc      1 <1>        0.000
     71 H           1.3191    4.7244   -1.2393 H.spc      1 <1>        0.000
     72 H           2.4465    3.8188   -0.0798 H.spc      1 <1>        0.000
     73 H           4.3524   -6.5957    0.4872 H.spc      1 <1>        0.000
     74 H           2.2236   -5.0104   -1.2839 H.spc      1 <1>        0.000
     75 H           2.2181    3.0890   -5.6005 H.spc      1 <1>        0.000
     76 H           3.3527   -2.2896   -1.2823 H.spc      1 <1>        0.000
     77 H           1.6614   -2.3672   -0.6401 H.spc      1 <1>        0.000
     78 H           2.7102    0.9705   -5.7192 H.spc      1 <1>        0.000
     79 H           1.6234   -3.9474   -2.8476 H.spc      1 <1>        0.000
     80 H           2.6520   -2.4238   -3.2943 H.spc      1 <1>        0.000
     81 H           3.8120    0.6041   -3.1207 H.spc      1 <1>        0.000
     82 H           3.0152   -0.6515   -4.1853 H.spc      1 <1>        0.000
     83 H          -0.0904   -2.3802   -2.2624 H.spc      1 <1>        0.000
     84 H           0.3826   -2.4794   -4.0786 H.spc      1 <1>        0.000
     85 H           1.4492    1.1459   -2.4246 H.spc      1 <1>        0.000
     86 H           2.2340   -0.3890   -1.8034 H.spc      1 <1>        0.000
@<TRIPOS>BOND
     1   20   25 1  
     2   15   21 1  
     3   19   24 2  
     4   10   15 1  
     5   19   23 1  
     6   14   19 1  
     7    8   22 1  
     8   10   14 1  
     9   14   20 1  
    10   12    8 1  
    11   16   31 2  
    12   17   32 2  
    13   18   33 1  
    14   32   34 1  
    15   33   35 2  
    16   34   36 1  
    17   35   37 1  
    18   36   38 1  
    19   37   39 1  
    20   16   18 1  
    21   30   17 1  
    22   29   16 1  
    23   28   30 2  
    24   27   29 1  
    25   26   28 1  
    26    1    2 1  
    27    1    3 1  
    28    1    4 1  
    29   23   27 1  
    30    2    5 1  
    31   22   26 2  
    32    2    6 2  
    33    3    7 1  
    34    4    9 1  
    35    5   10 am 
    36    5   11 2  
    37   21   25 1  
    38    7   12 1  
    39    7   13 1  
    40    9   13 1  
    41   38   40 1  
    42   39   40 1  
    43   40   41 2  
    44    1   42 1  
    45    4   43 1  
    46    4   44 1  
    47    7   45 1  
    48    8   46 1  
    49    8   47 1  
    50    9   48 1  
    51    9   49 1  
    52   12   50 1  
    53   12   51 1  
    54   13   52 1  
    55   13   53 1  
    56   14   54 1  
    57   15   55 1  
    58   15   56 1  
    59   17   57 1  
    60   18   58 1  
    61   18   59 1  
    62   20   60 1  
    63   20   61 1  
    64   21   62 1  
    65   21   63 1  
    66   22   64 1  
    67   25   65 1  
    68   25   66 1  
    69   26   67 1  
    70   27   68 1  
    71   27   69 1  
    72   28   70 1  
    73   29   71 1  
    74   29   72 1  
    75   30   73 1  
    76   32   74 1  
    77   33   75 1  
    78   34   76 1  
    79   34   77 1  
    80   35   78 1  
    81   36   79 1  
    82   36   80 1  
    83   37   81 1  
    84   37   82 1  
    85   38   83 1  
    86   38   84 1  
    87   39   85 1  
    88   39   86 1  
# Name:          frag5-549-186/138278
# Creation time: Sat Jun  5 12:53:42 2010


@<TRIPOS>MOLECULE
frag5-549-186/138278
   86    88     1     1     1
SMALL
USER_CHARGES


@<TRIPOS>ATOM
      1 C1         -3.5535   -0.8886    0.1161 C.3        1 <1>        0.000
      2 C2         -3.0898   -0.5244   -1.2981 C.2        1 <1>        0.000
      3 O1         -2.5771   -1.6001    0.7753 O.3        1 <1>        0.000
      4 C3         -4.8585   -1.6519    0.0244 C.3        1 <1>        0.000
      5 C4         -3.8336    0.6608   -1.8989 C.2        1 <1>        0.000
      6 O3         -2.2361   -1.0147   -2.0290 O.2        1 <1>        0.000
      7 C5         -2.5246   -2.9679    0.9483 C.3        1 <1>        0.000
      8 C12        -0.9819   -4.8003    1.8684 C.3        1 <1>        0.000
      9 C6         -4.6823   -3.0802   -0.4381 C.3        1 <1>        0.000
     10 N1         -4.0939    1.6485   -0.9891 N.am       1 <1>        0.000
     11 O4         -4.1502    0.5199   -3.0698 O.2        1 <1>        0.000
     12 C8         -1.1287   -3.4638    1.1831 C.3        1 <1>        0.000
     13 C9         -3.3202   -3.6815   -0.1437 C.3        1 <1>        0.000
     14 C10        -3.1526    2.7565   -0.7609 C.3        1 <1>        0.000
     15 C11        -5.4634    1.8962   -0.5928 C.3        1 <1>        0.000
     16 C28         1.7218    4.3405   -2.4408 C.2        1 <1>        0.000
     17 C29         2.2094   -5.6682   -1.1569 C.2        1 <1>        0.000
     18 C31         2.7828    4.1708   -3.4972 C.3        1 <1>        0.000
     19 C13        -1.6902    2.2595   -0.6633 C.2        1 <1>        0.000
     20 C14        -3.4178    3.6785    0.4128 C.3        1 <1>        0.000
     21 C15        -5.7455    2.8082    0.5719 C.3        1 <1>        0.000
     22 C16        -0.0811   -5.7049    1.1440 C.2        1 <1>        0.000
     23 O6         -0.6663    2.7860   -1.3564 O.3        1 <1>        0.000
     24 O7         -1.4593    1.3199    0.1071 O.2        1 <1>        0.000
     25 C17        -4.8689    4.0274    0.5971 C.3        1 <1>        0.000
     26 C18         1.1349   -6.1045    1.5176 C.2        1 <1>        0.000
     27 C21        -0.7922    4.0313   -1.9966 C.3        1 <1>        0.000
     28 C22         2.1366   -6.9255    0.9037 C.2        1 <1>        0.000
     29 C24         0.3009    4.5681   -2.8772 C.3        1 <1>        0.000
     30 C25         2.6580   -6.7298   -0.3207 C.2        1 <1>        0.000
     31 O8          1.9932    4.3056   -1.2370 O.2        1 <1>        0.000
     32 C32         1.2103   -5.6844   -2.0466 C.2        1 <1>        0.000
     33 C35         2.7056    2.8697   -4.1982 C.2        1 <1>        0.000
     34 C37         0.6042   -4.6534   -2.9278 C.3        1 <1>        0.000
     35 C40         2.7525    1.5983   -3.7982 C.2        1 <1>        0.000
     36 C41         1.0076   -3.2012   -2.7804 C.3        1 <1>        0.000
     37 C44         2.8893    0.9863   -2.4561 C.3        1 <1>        0.000
     38 C46         2.4623   -2.8660   -2.9129 C.3        1 <1>        0.000
     39 C48         2.1825   -0.3322   -2.3481 C.3        1 <1>        0.000
     40 C49         2.8263   -1.4403   -3.1439 C.2        1 <1>        0.000
     41 O13         3.7120   -1.2057   -3.9758 O.2        1 <1>        0.000
     42 H          -3.7273    0.0160    0.6988 H.spc      1 <1>        0.000
     43 H          -5.4876   -1.1435   -0.7062 H.spc      1 <1>        0.000
     44 H          -5.2956   -1.6797    1.0226 H.spc      1 <1>        0.000
     45 H          -3.0302   -3.2312    1.8774 H.spc      1 <1>        0.000
     46 H          -0.5608   -4.6269    2.8587 H.spc      1 <1>        0.000
     47 H          -1.9659   -5.2672    1.9110 H.spc      1 <1>        0.000
     48 H          -4.7998   -3.0786   -1.5217 H.spc      1 <1>        0.000
     49 H          -5.4159   -3.6799    0.1006 H.spc      1 <1>        0.000
     50 H          -0.6865   -3.5865    0.1944 H.spc      1 <1>        0.000
     51 H          -0.6625   -2.7362    1.8474 H.spc      1 <1>        0.000
     52 H          -3.4934   -4.6993    0.2060 H.spc      1 <1>        0.000
     53 H          -2.7363   -3.6046   -1.0609 H.spc      1 <1>        0.000
     54 H          -3.3225    3.3636   -1.6501 H.spc      1 <1>        0.000
     55 H          -5.9133    2.3960   -1.4506 H.spc      1 <1>        0.000
     56 H          -5.8409    0.9228   -0.2795 H.spc      1 <1>        0.000
     57 H           2.7469   -4.7249   -1.0601 H.spc      1 <1>        0.000
     58 H           2.6374    4.9551   -4.2400 H.spc      1 <1>        0.000
     59 H           3.7526    4.2220   -3.0022 H.spc      1 <1>        0.000
     60 H          -3.0922    3.1585    1.3138 H.spc      1 <1>        0.000
     61 H          -2.8822    4.6085    0.2222 H.spc      1 <1>        0.000
     62 H          -5.5535    2.2453    1.4853 H.spc      1 <1>        0.000
     63 H          -6.7779    3.1464    0.4832 H.spc      1 <1>        0.000
     64 H          -0.4474   -6.0937    0.1939 H.spc      1 <1>        0.000
     65 H          -5.1697    4.6817   -0.2212 H.spc      1 <1>        0.000
     66 H          -4.9837    4.5109    1.5672 H.spc      1 <1>        0.000
     67 H           1.4294   -5.7270    2.4968 H.spc      1 <1>        0.000
     68 H          -1.6331    3.8934   -2.6763 H.spc      1 <1>        0.000
     69 H          -0.8417    4.7454   -1.1746 H.spc      1 <1>        0.000
     70 H           2.5057   -7.7772    1.4751 H.spc      1 <1>        0.000
     71 H           0.1981    4.0407   -3.8256 H.spc      1 <1>        0.000
     72 H           0.1666    5.6498   -2.8838 H.spc      1 <1>        0.000
     73 H           3.4405   -7.3980   -0.6804 H.spc      1 <1>        0.000
     74 H           0.7408   -6.6631   -2.1461 H.spc      1 <1>        0.000
     75 H           2.5839    2.9731   -5.2764 H.spc      1 <1>        0.000
     76 H          -0.4564   -4.6689   -2.6767 H.spc      1 <1>        0.000
     77 H           0.9297   -4.9266   -3.9315 H.spc      1 <1>        0.000
     78 H           2.6759    0.8748   -4.6099 H.spc      1 <1>        0.000
     79 H           0.7360   -2.9248   -1.7616 H.spc      1 <1>        0.000
     80 H           0.5116   -2.6762   -3.5967 H.spc      1 <1>        0.000
     81 H           2.4430    1.6663   -1.7305 H.spc      1 <1>        0.000
     82 H           3.9499    0.8141   -2.2727 H.spc      1 <1>        0.000
     83 H           2.8055   -3.4016   -3.7980 H.spc      1 <1>        0.000
     84 H           2.9107   -3.1299   -1.9551 H.spc      1 <1>        0.000
     85 H           1.1762   -0.1930   -2.7431 H.spc      1 <1>        0.000
     86 H           2.2100   -0.6289   -1.2996 H.spc      1 <1>        0.000
@<TRIPOS>BOND
     1   20   25 1  
     2   15   21 1  
     3   19   24 2  
     4   10   15 1  
     5   19   23 1  
     6   14   19 1  
     7    8   22 1  
     8   10   14 1  
     9   14   20 1  
    10   12    8 1  
    11   16   31 2  
    12   17   32 2  
    13   18   33 1  
    14   32   34 1  
    15   33   35 2  
    16   34   36 1  
    17   35   37 1  
    18   36   38 1  
    19   37   39 1  
    20   16   18 1  
    21   30   17 1  
    22   29   16 1  
    23   28   30 2  
    24   27   29 1  
    25   26   28 1  
    26    1    2 1  
    27    1    3 1  
    28    1    4 1  
    29   23   27 1  
    30    2    5 1  
    31   22   26 2  
    32    2    6 2  
    33    3    7 1  
    34    4    9 1  
    35    5   10 am 
    36    5   11 2  
    37   21   25 1  
    38    7   12 1  
    39    7   13 1  
    40    9   13 1  
    41   38   40 1  
    42   39   40 1  
    43   40   41 2  
    44    1   42 1  
    45    4   43 1  
    46    4   44 1  
    47    7   45 1  
    48    8   46 1  
    49    8   47 1  
    50    9   48 1  
    51    9   49 1  
    52   12   50 1  
    53   12   51 1  
    54   13   52 1  
    55   13   53 1  
    56   14   54 1  
    57   15   55 1  
    58   15   56 1  
    59   17   57 1  
    60   18   58 1  
    61   18   59 1  
    62   20   60 1  
    63   20   61 1  
    64   21   62 1  
    65   21   63 1  
    66   22   64 1  
    67   25   65 1  
    68   25   66 1  
    69   26   67 1  
    70   27   68 1  
    71   27   69 1  
    72   28   70 1  
    73   29   71 1  
    74   29   72 1  
    75   30   73 1  
    76   32   74 1  
    77   33   75 1  
    78   34   76 1  
    79   34   77 1  
    80   35   78 1  
    81   36   79 1  
    82   36   80 1  
    83   37   81 1  
    84   37   82 1  
    85   38   83 1  
    86   38   84 1  
    87   39   85 1  
    88   39   86 1  
# Name:          frag5-549-186/138278
# Creation time: Sat Jun  5 12:53:42 2010


@<TRIPOS>MOLECULE
frag5-549-186/138278
   86    88     1     1     1
SMALL
USER_CHARGES


@<TRIPOS>ATOM
      1 C1         -3.7121   -1.1211   -0.1865 C.3        1 <1>        0.000
      2 C2         -3.4965   -0.5422   -1.5919 C.2        1 <1>        0.000
      3 O1         -2.7351   -2.0329    0.1626 O.3        1 <1>        0.000
      4 C3         -5.1058   -1.7059   -0.0450 C.3        1 <1>        0.000
      5 C4         -4.2930    0.7276   -1.8684 C.2        1 <1>        0.000
      6 O3         -2.8253   -0.9256   -2.5407 O.2        1 <1>        0.000
      7 C5         -2.8030   -3.4111    0.2954 C.3        1 <1>        0.000
      8 C12        -1.1660   -5.4074    0.7929 C.3        1 <1>        0.000
      9 C6         -5.2352   -3.1423   -0.5163 C.3        1 <1>        0.000
     10 N1         -4.1225    1.7645   -0.9858 N.am       1 <1>        0.000
     11 O4         -5.0965    0.5763   -2.7799 O.2        1 <1>        0.000
     12 C8         -1.4563   -4.0811    0.1151 C.3        1 <1>        0.000
     13 C9         -3.9497   -3.9601   -0.5514 C.3        1 <1>        0.000
     14 C10        -2.9623    2.6654   -0.9470 C.3        1 <1>        0.000
     15 C11        -5.2733    2.1913   -0.2271 C.3        1 <1>        0.000
     16 C28         2.5504    3.4636   -2.1493 C.2        1 <1>        0.000
     17 C29         3.4167   -4.7270    0.1766 C.2        1 <1>        0.000
     18 C31         2.1338    3.7273   -3.5894 C.3        1 <1>        0.000
     19 C13        -1.6001    1.9996   -0.8344 C.2        1 <1>        0.000
     20 C14        -2.9134    3.6992    0.1685 C.3        1 <1>        0.000
     21 C15        -5.4055    3.5504    0.4118 C.3        1 <1>        0.000
     22 C16         0.2211   -5.8785    0.5481 C.2        1 <1>        0.000
     23 O6         -0.5607    2.6276   -1.4388 O.3        1 <1>        0.000
     24 O7         -1.4896    1.0396   -0.0794 O.2        1 <1>        0.000
     25 C17        -4.1898    4.4265    0.4247 C.3        1 <1>        0.000
     26 C18         1.1747   -6.3830    1.3451 C.2        1 <1>        0.000
     27 C21         0.6198    2.7073   -0.6627 C.3        1 <1>        0.000
     28 C22         2.5381   -6.8117    1.1846 C.2        1 <1>        0.000
     29 C24         1.6110    3.7900   -1.0190 C.3        1 <1>        0.000
     30 C25         3.5479   -6.0754    0.6754 C.2        1 <1>        0.000
     31 O8          3.6649    3.0047   -1.8647 O.2        1 <1>        0.000
     32 C32         2.8556   -4.3924   -0.9887 C.2        1 <1>        0.000
     33 C35         2.8193    2.8704   -4.5922 C.2        1 <1>        0.000
     34 C37         2.5878   -3.0820   -1.6223 C.3        1 <1>        0.000
     35 C40         2.5395    1.6171   -4.9687 C.2        1 <1>        0.000
     36 C41         1.6227   -3.1686   -2.7920 C.3        1 <1>        0.000
     37 C44         1.4755    0.7296   -4.4529 C.3        1 <1>        0.000
     38 C46         0.5247   -2.1587   -2.9109 C.3        1 <1>        0.000
     39 C48         1.9839   -0.0494   -3.2840 C.3        1 <1>        0.000
     40 C49         0.9474   -0.7902   -2.5089 C.2        1 <1>        0.000
     41 O13         0.4792   -0.2881   -1.4870 O.2        1 <1>        0.000
     42 H          -3.6251   -0.2941    0.5182 H.spc      1 <1>        0.000
     43 H          -5.7690   -1.1048   -0.6670 H.spc      1 <1>        0.000
     44 H          -5.3503   -1.6951    1.0172 H.spc      1 <1>        0.000
     45 H          -3.0535   -3.6687    1.3245 H.spc      1 <1>        0.000
     46 H          -1.2905   -5.2709    1.8671 H.spc      1 <1>        0.000
     47 H          -1.8509   -6.1509    0.3852 H.spc      1 <1>        0.000
     48 H          -5.5917   -3.0931   -1.5452 H.spc      1 <1>        0.000
     49 H          -5.8910   -3.6385    0.1991 H.spc      1 <1>        0.000
     50 H          -1.4059   -4.3050   -0.9505 H.spc      1 <1>        0.000
     51 H          -0.7462   -3.3866    0.5641 H.spc      1 <1>        0.000
     52 H          -4.1937   -4.9424   -0.1469 H.spc      1 <1>        0.000
     53 H          -3.6045   -3.9545   -1.5853 H.spc      1 <1>        0.000
     54 H          -3.1347    3.1280   -1.9188 H.spc      1 <1>        0.000
     55 H          -6.0650    2.2001   -0.9762 H.spc      1 <1>        0.000
     56 H          -5.2553    1.5223    0.6332 H.spc      1 <1>        0.000
     57 H           3.8051   -3.9203    0.7983 H.spc      1 <1>        0.000
     58 H           1.0676    3.5117   -3.6591 H.spc      1 <1>        0.000
     59 H           2.3990    4.7600   -3.8157 H.spc      1 <1>        0.000
     60 H          -2.6752    3.1576    1.0839 H.spc      1 <1>        0.000
     61 H          -2.1836    4.4497   -0.1351 H.spc      1 <1>        0.000
     62 H          -5.6438    3.3619    1.4586 H.spc      1 <1>        0.000
     63 H          -6.1470    4.0843   -0.1824 H.spc      1 <1>        0.000
     64 H           0.5275   -5.7975   -0.4948 H.spc      1 <1>        0.000
     65 H          -4.3105    5.1579   -0.3744 H.spc      1 <1>        0.000
     66 H          -4.1178    4.8640    1.4205 H.spc      1 <1>        0.000
     67 H           0.8296   -6.4966    2.3728 H.spc      1 <1>        0.000
     68 H           0.2912    2.9304    0.3524 H.spc      1 <1>        0.000
     69 H           1.1425    1.7643   -0.8228 H.spc      1 <1>        0.000
     70 H           2.7782   -7.8258    1.5040 H.spc      1 <1>        0.000
     71 H           1.0264    4.6518   -1.3408 H.spc      1 <1>        0.000
     72 H           2.2307    3.9458   -0.1360 H.spc      1 <1>        0.000
     73 H           4.5365   -6.5330    0.6379 H.spc      1 <1>        0.000
     74 H           2.5343   -5.2459   -1.5857 H.spc      1 <1>        0.000
     75 H           3.6723    3.3287   -5.0927 H.spc      1 <1>        0.000
     76 H           3.5348   -2.6997   -2.0032 H.spc      1 <1>        0.000
     77 H           2.1361   -2.4370   -0.8686 H.spc      1 <1>        0.000
     78 H           3.1733    1.1997   -5.7511 H.spc      1 <1>        0.000
     79 H           1.1111   -4.1222   -2.6610 H.spc      1 <1>        0.000
     80 H           2.2414   -3.0127   -3.6757 H.spc      1 <1>        0.000
     81 H           1.1711    0.0392   -5.2395 H.spc      1 <1>        0.000
     82 H           0.6246    1.3341   -4.1389 H.spc      1 <1>        0.000
     83 H          -0.2823   -2.4658   -2.2456 H.spc      1 <1>        0.000
     84 H           0.2222   -2.1188   -3.9573 H.spc      1 <1>        0.000
     85 H           2.4281    0.6724   -2.5986 H.spc      1 <1>        0.000
     86 H           2.6682   -0.7981   -3.6830 H.spc      1 <1>        0.000
@<TRIPOS>BOND
     1   20   25 1  
     2   15   21 1  
     3   19   24 2  
     4   10   15 1  
     5   19   23 1  
     6   14   19 1  
     7    8   22 1  
     8   10   14 1  
     9   14   20 1  
    10   12    8 1  
    11   16   31 2  
    12   17   32 2  
    13   18   33 1  
    14   32   34 1  
    15   33   35 2  
    16   34   36 1  
    17   35   37 1  
    18   36   38 1  
    19   37   39 1  
    20   16   18 1  
    21   30   17 1  
    22   29   16 1  
    23   28   30 2  
    24   27   29 1  
    25   26   28 1  
    26    1    2 1  
    27    1    3 1  
    28    1    4 1  
    29   23   27 1  
    30    2    5 1  
    31   22   26 2  
    32    2    6 2  
    33    3    7 1  
    34    4    9 1  
    35    5   10 am 
    36    5   11 2  
    37   21   25 1  
    38    7   12 1  
    39    7   13 1  
    40    9   13 1  
    41   38   40 1  
    42   39   40 1  
    43   40   41 2  
    44    1   42 1  
    45    4   43 1  
    46    4   44 1  
    47    7   45 1  
    48    8   46 1  
    49    8   47 1  
    50    9   48 1  
    51    9   49 1  
    52   12   50 1  
    53   12   51 1  
    54   13   52 1  
    55   13   53 1  
    56   14   54 1  
    57   15   55 1  
    58   15   56 1  
    59   17   57 1  
    60   18   58 1  
    61   18   59 1  
    62   20   60 1  
    63   20   61 1  
    64   21   62 1  
    65   21   63 1  
    66   22   64 1  
    67   25   65 1  
    68   25   66 1  
    69   26   67 1  
    70   27   68 1  
    71   27   69 1  
    72   28   70 1  
    73   29   71 1  
    74   29   72 1  
    75   30   73 1  
    76   32   74 1  
    77   33   75 1  
    78   34   76 1  
    79   34   77 1  
    80   35   78 1  
    81   36   79 1  
    82   36   80 1  
    83   37   81 1  
    84   37   82 1  
    85   38   83 1  
    86   38   84 1  
    87   39   85 1  
    88   39   86 1  
# Name:          frag5-549-186/138278
# Creation time: Sat Jun  5 12:53:42 2010


@<TRIPOS>MOLECULE
frag5-549-186/138278
   86    88     1     1     1
SMALL
USER_CHARGES


@<TRIPOS>ATOM
      1 C1         -3.7420   -1.0138    0.3245 C.3        1 <1>        0.000
      2 C2         -3.0601   -0.6428   -1.0040 C.2        1 <1>        0.000
      3 O1         -2.9223   -1.7211    1.1762 O.3        1 <1>        0.000
      4 C3         -5.0099   -1.7915    0.0362 C.3        1 <1>        0.000
      5 C4         -3.7161    0.5220   -1.7294 C.2        1 <1>        0.000
      6 O3         -2.0875   -1.1160   -1.5815 O.2        1 <1>        0.000
      7 C5         -2.7715   -3.0929    1.2824 C.3        1 <1>        0.000
      8 C12        -0.9140   -4.8362    1.8228 C.3        1 <1>        0.000
      9 C6         -4.7428   -3.2357   -0.3525 C.3        1 <1>        0.000
     10 N1         -4.0105    1.5899   -0.9316 N.am       1 <1>        0.000
     11 O4         -3.9945    0.2701   -2.8920 O.2        1 <1>        0.000
     12 C8         -1.3769   -3.4132    1.7386 C.3        1 <1>        0.000
     13 C9         -3.3797   -3.7818    0.0630 C.3        1 <1>        0.000
     14 C10        -3.0542    2.6459   -0.5731 C.3        1 <1>        0.000
     15 C11        -5.3993    1.8762   -0.6351 C.3        1 <1>        0.000
     16 C28         1.7371    3.4125   -3.1283 C.2        1 <1>        0.000
     17 C29         2.5065   -5.8770   -1.0663 C.2        1 <1>        0.000
     18 C31         0.5277    3.1502   -4.0104 C.3        1 <1>        0.000
     19 C13        -1.5987    2.2138   -0.3440 C.2        1 <1>        0.000
     20 C14        -3.4792    3.5419    0.5667 C.3        1 <1>        0.000
     21 C15        -5.8695    3.2241   -0.1462 C.3        1 <1>        0.000
     22 C16        -0.3280   -5.3147    0.5544 C.2        1 <1>        0.000
     23 O6         -0.6482    2.9565   -0.9573 O.3        1 <1>        0.000
     24 O7         -1.3533    1.2461    0.3751 O.2        1 <1>        0.000
     25 C17        -4.7960    4.1961    0.2683 C.3        1 <1>        0.000
     26 C18        -0.4568   -6.3626   -0.2582 C.2        1 <1>        0.000
     27 C21         0.7139    2.6332   -0.7827 C.3        1 <1>        0.000
     28 C22         0.2054   -6.7489   -1.4698 C.2        1 <1>        0.000
     29 C24         1.7177    3.4056   -1.6121 C.3        1 <1>        0.000
     30 C25         1.4899   -6.5592   -1.8186 C.2        1 <1>        0.000
     31 O8          2.8089    3.7447   -3.6637 O.2        1 <1>        0.000
     32 C32         2.5575   -4.5523   -0.8907 C.2        1 <1>        0.000
     33 C35         0.9423    2.4539   -5.2580 C.2        1 <1>        0.000
     34 C37         3.4332   -3.6084   -0.1507 C.3        1 <1>        0.000
     35 C40         1.4338    1.2118   -5.3967 C.2        1 <1>        0.000
     36 C41         3.6378   -2.2334   -0.7648 C.3        1 <1>        0.000
     37 C44         1.6551    0.2142   -4.3121 C.3        1 <1>        0.000
     38 C46         2.8188   -1.7624   -1.9404 C.3        1 <1>        0.000
     39 C48         3.0683    0.0228   -3.8241 C.3        1 <1>        0.000
     40 C49         3.0956   -0.3519   -2.3723 C.2        1 <1>        0.000
     41 O13         3.2840    0.5273   -1.5266 O.2        1 <1>        0.000
     42 H          -3.9805   -0.0835    0.8401 H.spc      1 <1>        0.000
     43 H          -5.5129   -1.3090   -0.8018 H.spc      1 <1>        0.000
     44 H          -5.6107   -1.7974    0.9457 H.spc      1 <1>        0.000
     45 H          -3.3590   -3.5484    2.0795 H.spc      1 <1>        0.000
     46 H          -0.1447   -4.8952    2.5927 H.spc      1 <1>        0.000
     47 H          -1.7792   -5.4590    2.0503 H.spc      1 <1>        0.000
     48 H          -4.7769   -3.2772   -1.4412 H.spc      1 <1>        0.000
     49 H          -5.4907   -3.8403    0.1605 H.spc      1 <1>        0.000
     50 H          -0.7359   -2.9663    0.9786 H.spc      1 <1>        0.000
     51 H          -1.3424   -3.0577    2.7684 H.spc      1 <1>        0.000
     52 H          -3.5206   -4.8306    0.3244 H.spc      1 <1>        0.000
     53 H          -2.6994   -3.6149   -0.7721 H.spc      1 <1>        0.000
     54 H          -3.0762    3.2183   -1.5004 H.spc      1 <1>        0.000
     55 H          -5.8872    1.7781   -1.6049 H.spc      1 <1>        0.000
     56 H          -5.6167    1.2161    0.2046 H.spc      1 <1>        0.000
     57 H           3.2896   -6.4805   -0.6074 H.spc      1 <1>        0.000
     58 H          -0.1788    2.5211   -3.4689 H.spc      1 <1>        0.000
     59 H           0.0630    4.1013   -4.2705 H.spc      1 <1>        0.000
     60 H          -3.5832    2.9381    1.4682 H.spc      1 <1>        0.000
     61 H          -2.7251    4.3169    0.7043 H.spc      1 <1>        0.000
     62 H          -6.4657    3.0321    0.7459 H.spc      1 <1>        0.000
     63 H          -6.3898    3.6864   -0.9851 H.spc      1 <1>        0.000
     64 H           0.4183   -4.6151    0.1779 H.spc      1 <1>        0.000
     65 H          -4.6391    4.8846   -0.5620 H.spc      1 <1>        0.000
     66 H          -5.1328    4.6862    1.1818 H.spc      1 <1>        0.000
     67 H          -1.2210   -7.0701    0.0635 H.spc      1 <1>        0.000
     68 H           0.9439    2.8684    0.2565 H.spc      1 <1>        0.000
     69 H           0.8136    1.5921   -1.0898 H.spc      1 <1>        0.000
     70 H          -0.4137   -7.2639   -2.2044 H.spc      1 <1>        0.000
     71 H           1.4832    4.4421   -1.3698 H.spc      1 <1>        0.000
     72 H           2.6610    2.9202   -1.3616 H.spc      1 <1>        0.000
     73 H           1.7947   -6.9695   -2.7813 H.spc      1 <1>        0.000
     74 H           1.7576   -4.0375   -1.4229 H.spc      1 <1>        0.000
     75 H           0.8329    3.0262   -6.1792 H.spc      1 <1>        0.000
     76 H           4.4187   -4.0733   -0.1258 H.spc      1 <1>        0.000
     77 H           2.9437   -3.4368    0.8080 H.spc      1 <1>        0.000
     78 H           1.6983    0.9012   -6.4075 H.spc      1 <1>        0.000
     79 H           4.6543   -2.2730   -1.1563 H.spc      1 <1>        0.000
     80 H           3.3600   -1.5480    0.0359 H.spc      1 <1>        0.000
     81 H           1.3554   -0.7467   -4.7304 H.spc      1 <1>        0.000
     82 H           1.0947    0.5838   -3.4534 H.spc      1 <1>        0.000
     83 H           1.7732   -1.8014   -1.6348 H.spc      1 <1>        0.000
     84 H           3.0714   -2.4074   -2.7820 H.spc      1 <1>        0.000
     85 H           3.6099    0.9601   -3.9514 H.spc      1 <1>        0.000
     86 H           3.5288   -0.7806   -4.3991 H.spc      1 <1>        0.000
@<TRIPOS>BOND
     1   20   25 1  
     2   15   21 1  
     3   19   24 2  
     4   10   15 1  
     5   19   23 1  
     6   14   19 1  
     7    8   22 1  
     8   10   14 1  
     9   14   20 1  
    10   12    8 1  
    11   16   31 2  
    12   17   32 2  
    13   18   33 1  
    14   32   34 1  
    15   33   35 2  
    16   34   36 1  
    17   35   37 1  
    18   36   38 1  
    19   37   39 1  
    20   16   18 1  
    21   30   17 1  
    22   29   16 1  
    23   28   30 2  
    24   27   29 1  
    25   26   28 1  
    26    1    2 1  
    27    1    3 1  
    28    1    4 1  
    29   23   27 1  
    30    2    5 1  
    31   22   26 2  
    32    2    6 2  
    33    3    7 1  
    34    4    9 1  
    35    5   10 am 
    36    5   11 2  
    37   21   25 1  
    38    7   12 1  
    39    7   13 1  
    40    9   13 1  
    41   38   40 1  
    42   39   40 1  
    43   40   41 2  
    44    1   42 1  
    45    4   43 1  
    46    4   44 1  
    47    7   45 1  
    48    8   46 1  
    49    8   47 1  
    50    9   48 1  
    51    9   49 1  
    52   12   50 1  
    53   12   51 1  
    54   13   52 1  
    55   13   53 1  
    56   14   54 1  
    57   15   55 1  
    58   15   56 1  
    59   17   57 1  
    60   18   58 1  
    61   18   59 1  
    62   20   60 1  
    63   20   61 1  
    64   21   62 1  
    65   21   63 1  
    66   22   64 1  
    67   25   65 1  
    68   25   66 1  
    69   26   67 1  
    70   27   68 1  
    71   27   69 1  
    72   28   70 1  
    73   29   71 1  
    74   29   72 1  
    75   30   73 1  
    76   32   74 1  
    77   33   75 1  
    78   34   76 1  
    79   34   77 1  
    80   35   78 1  
    81   36   79 1  
    82   36   80 1  
    83   37   81 1  
    84   37   82 1  
    85   38   83 1  
    86   38   84 1  
    87   39   85 1  
    88   39   86 1  
# Name:          frag5-549-186/138278
# Creation time: Sat Jun  5 12:53:42 2010


@<TRIPOS>MOLECULE
frag5-549-186/138278
   86    88     1     1     1
SMALL
USER_CHARGES


@<TRIPOS>ATOM
      1 C1         -3.4593   -0.7402   -0.0349 C.3        1 <1>        0.000
      2 C2         -3.1593    0.0320   -1.3227 C.2        1 <1>        0.000
      3 O1         -2.5122   -1.7259    0.2232 O.3        1 <1>        0.000
      4 C3         -4.8791   -1.2907   -0.0550 C.3        1 <1>        0.000
      5 C4         -3.9653    1.3194   -1.5024 C.2        1 <1>        0.000
      6 O3         -2.3781   -0.1905   -2.2423 O.2        1 <1>        0.000
      7 C5         -2.6653   -3.1087    0.2376 C.3        1 <1>        0.000
      8 C12        -1.4401   -5.4146    0.3617 C.3        1 <1>        0.000
      9 C6         -5.0256   -2.6555   -0.6869 C.3        1 <1>        0.000
     10 N1         -3.9452    2.2182   -0.4662 N.am       1 <1>        0.000
     11 O4         -4.6023    1.3434   -2.5473 O.2        1 <1>        0.000
     12 C8         -1.3703   -3.9005    0.0956 C.3        1 <1>        0.000
     13 C9         -3.7775   -3.5115   -0.7280 C.3        1 <1>        0.000
     14 C10        -2.9027    3.2512   -0.3344 C.3        1 <1>        0.000
     15 C11        -5.2050    2.5736    0.1434 C.3        1 <1>        0.000
     16 C28         0.6629    3.0800   -4.4742 C.2        1 <1>        0.000
     17 C29         3.0992   -6.4273   -0.0966 C.2        1 <1>        0.000
     18 C31         2.1052    2.8804   -4.0314 C.3        1 <1>        0.000
     19 C13        -1.4966    2.6623   -0.4239 C.2        1 <1>        0.000
     20 C14        -2.8973    4.1111    0.9233 C.3        1 <1>        0.000
     21 C15        -5.1993    3.2898    1.4625 C.3        1 <1>        0.000
     22 C16        -0.3146   -6.2325   -0.1678 C.2        1 <1>        0.000
     23 O6         -0.5043    3.2532   -1.1046 O.3        1 <1>        0.000
     24 O7         -1.2715    1.6330    0.2263 O.2        1 <1>        0.000
     25 C17        -4.2423    4.4499    1.5021 C.3        1 <1>        0.000
     26 C18         0.2865   -7.3335    0.2902 C.2        1 <1>        0.000
     27 C21        -0.6801    3.8193   -2.3945 C.3        1 <1>        0.000
     28 C22         1.3931   -8.1653   -0.1213 C.2        1 <1>        0.000
     29 C24        -0.5560    2.8852   -3.5889 C.3        1 <1>        0.000
     30 C25         2.6680   -7.7825   -0.3088 C.2        1 <1>        0.000
     31 O8          0.4810    3.4066   -5.6594 O.2        1 <1>        0.000
     32 C32         2.8925   -5.3679   -0.9046 C.2        1 <1>        0.000
     33 C35         2.3684    2.8683   -2.5746 C.2        1 <1>        0.000
     34 C37         3.2847   -3.9655   -0.6159 C.3        1 <1>        0.000
     35 C40         2.0566    1.9752   -1.6258 C.2        1 <1>        0.000
     36 C41         3.7509   -3.0971   -1.7774 C.3        1 <1>        0.000
     37 C44         1.3212    0.6823   -1.6314 C.3        1 <1>        0.000
     38 C46         3.2426   -1.6887   -1.6427 C.3        1 <1>        0.000
     39 C48         1.4711   -0.2167   -2.8316 C.3        1 <1>        0.000
     40 C49         2.7927   -0.9458   -2.8708 C.2        1 <1>        0.000
     41 O13         3.4953   -0.9308   -3.8846 O.2        1 <1>        0.000
     42 H          -3.3903   -0.0376    0.7956 H.spc      1 <1>        0.000
     43 H          -5.4756   -0.6014   -0.6527 H.spc      1 <1>        0.000
     44 H          -5.1932   -1.3895    0.9841 H.spc      1 <1>        0.000
     45 H          -2.9804   -3.3959    1.2408 H.spc      1 <1>        0.000
     46 H          -1.4166   -5.5328    1.4450 H.spc      1 <1>        0.000
     47 H          -2.3371   -5.7699   -0.1454 H.spc      1 <1>        0.000
     48 H          -5.3091   -2.4812   -1.7249 H.spc      1 <1>        0.000
     49 H          -5.7464   -3.1980   -0.0752 H.spc      1 <1>        0.000
     50 H          -1.0723   -3.7965   -0.9477 H.spc      1 <1>        0.000
     51 H          -0.6929   -3.4982    0.8489 H.spc      1 <1>        0.000
     52 H          -4.0842   -4.5178   -0.4427 H.spc      1 <1>        0.000
     53 H          -3.3662   -3.4090   -1.7322 H.spc      1 <1>        0.000
     54 H          -3.1705    3.8963   -1.1712 H.spc      1 <1>        0.000
     55 H          -5.6666    3.2730   -0.5536 H.spc      1 <1>        0.000
     56 H          -5.6985    1.6224    0.3427 H.spc      1 <1>        0.000
     57 H           3.6558   -6.2348    0.8206 H.spc      1 <1>        0.000
     58 H           2.3924    1.8930   -4.3929 H.spc      1 <1>        0.000
     59 H           2.6572    3.7337   -4.4254 H.spc      1 <1>        0.000
     60 H          -2.3754    3.5322    1.6853 H.spc      1 <1>        0.000
     61 H          -2.4399    5.0595    0.6414 H.spc      1 <1>        0.000
     62 H          -4.8857    2.5764    2.2246 H.spc      1 <1>        0.000
     63 H          -6.2022    3.6827    1.6296 H.spc      1 <1>        0.000
     64 H           0.0967   -5.8627   -1.1071 H.spc      1 <1>        0.000
     65 H          -4.6694    5.2570    0.9069 H.spc      1 <1>        0.000
     66 H          -4.0972    4.7290    2.5457 H.spc      1 <1>        0.000
     67 H          -0.1756   -7.6968    1.2081 H.spc      1 <1>        0.000
     68 H          -1.7042    4.1918   -2.4163 H.spc      1 <1>        0.000
     69 H           0.1201    4.5507   -2.5074 H.spc      1 <1>        0.000
     70 H           1.1704   -9.2174   -0.2991 H.spc      1 <1>        0.000
     71 H          -0.4748    1.8785   -3.1789 H.spc      1 <1>        0.000
     72 H          -1.4229    3.0829   -4.2193 H.spc      1 <1>        0.000
     73 H           3.3988   -8.5237   -0.6323 H.spc      1 <1>        0.000
     74 H           2.3929   -5.5581   -1.8545 H.spc      1 <1>        0.000
     75 H           2.9118    3.7398   -2.2094 H.spc      1 <1>        0.000
     76 H           4.1427   -4.0379    0.0524 H.spc      1 <1>        0.000
     77 H           2.3811   -3.4848   -0.2411 H.spc      1 <1>        0.000
     78 H           2.4199    2.2565   -0.6374 H.spc      1 <1>        0.000
     79 H           3.3633   -3.5193   -2.7045 H.spc      1 <1>        0.000
     80 H           4.8407   -3.0746   -1.7790 H.spc      1 <1>        0.000
     81 H           0.2654    0.9519   -1.6041 H.spc      1 <1>        0.000
     82 H           1.7297    0.1155   -0.7947 H.spc      1 <1>        0.000
     83 H           4.0952   -1.1202   -1.2712 H.spc      1 <1>        0.000
     84 H           2.3475   -1.7744   -1.0266 H.spc      1 <1>        0.000
     85 H           1.4142    0.4100   -3.7216 H.spc      1 <1>        0.000
     86 H           0.6823   -0.9673   -2.7814 H.spc      1 <1>        0.000
@<TRIPOS>BOND
     1   20   25 1  
     2   15   21 1  
     3   19   24 2  
     4   10   15 1  
     5   19   23 1  
     6   14   19 1  
     7    8   22 1  
     8   10   14 1  
     9   14   20 1  
    10   12    8 1  
    11   16   31 2  
    12   17   32 2  
    13   18   33 1  
    14   32   34 1  
    15   33   35 2  
    16   34   36 1  
    17   35   37 1  
    18   36   38 1  
    19   37   39 1  
    20   16   18 1  
    21   30   17 1  
    22   29   16 1  
    23   28   30 2  
    24   27   29 1  
    25   26   28 1  
    26    1    2 1  
    27    1    3 1  
    28    1    4 1  
    29   23   27 1  
    30    2    5 1  
    31   22   26 2  
    32    2    6 2  
    33    3    7 1  
    34    4    9 1  
    35    5   10 am 
    36    5   11 2  
    37   21   25 1  
    38    7   12 1  
    39    7   13 1  
    40    9   13 1  
    41   38   40 1  
    42   39   40 1  
    43   40   41 2  
    44    1   42 1  
    45    4   43 1  
    46    4   44 1  
    47    7   45 1  
    48    8   46 1  
    49    8   47 1  
    50    9   48 1  
    51    9   49 1  
    52   12   50 1  
    53   12   51 1  
    54   13   52 1  
    55   13   53 1  
    56   14   54 1  
    57   15   55 1  
    58   15   56 1  
    59   17   57 1  
    60   18   58 1  
    61   18   59 1  
    62   20   60 1  
    63   20   61 1  
    64   21   62 1  
    65   21   63 1  
    66   22   64 1  
    67   25   65 1  
    68   25   66 1  
    69   26   67 1  
    70   27   68 1  
    71   27   69 1  
    72   28   70 1  
    73   29   71 1  
    74   29   72 1  
    75   30   73 1  
    76   32   74 1  
    77   33   75 1  
    78   34   76 1  
    79   34   77 1  
    80   35   78 1  
    81   36   79 1  
    82   36   80 1  
    83   37   81 1  
    84   37   82 1  
    85   38   83 1  
    86   38   84 1  
    87   39   85 1  
    88   39   86 1  
# Name:          frag5-549-186/138278
# Creation time: Sat Jun  5 12:53:42 2010


@<TRIPOS>MOLECULE
frag5-549-186/138278
   86    88     1     1     1
SMALL
USER_CHARGES


@<TRIPOS>ATOM
      1 C1         -3.5825   -0.9001    0.2048 C.3        1 <1>        0.000
      2 C2         -3.7863   -0.7206   -1.3135 C.2        1 <1>        0.000
      3 O1         -2.5291   -1.7423    0.5169 O.3        1 <1>        0.000
      4 C3         -4.8759   -1.3852    0.8297 C.3        1 <1>        0.000
      5 C4         -4.5652    0.5358   -1.6938 C.2        1 <1>        0.000
      6 O3         -3.4543   -1.4129   -2.2694 O.2        1 <1>        0.000
      7 C5         -2.6195   -3.0733    0.8844 C.3        1 <1>        0.000
      8 C12        -1.2254   -5.2064    1.3331 C.3        1 <1>        0.000
      9 C6         -5.1282   -2.8589    0.5594 C.3        1 <1>        0.000
     10 N1         -4.1853    1.6614   -1.0199 N.am       1 <1>        0.000
     11 O4         -5.5080    0.3166   -2.4416 O.2        1 <1>        0.000
     12 C8         -1.3104   -3.7966    0.7563 C.3        1 <1>        0.000
     13 C9         -3.8718   -3.6709    0.2488 C.3        1 <1>        0.000
     14 C10        -2.9626    2.4424   -1.2768 C.3        1 <1>        0.000
     15 C11        -5.0998    2.2580   -0.0762 C.3        1 <1>        0.000
     16 C28         1.5850    3.8173   -1.8449 C.2        1 <1>        0.000
     17 C29         2.8334   -5.3524   -0.7142 C.2        1 <1>        0.000
     18 C31         3.1071    3.8240   -1.9958 C.3        1 <1>        0.000
     19 C13        -1.6788    1.6327   -1.5130 C.2        1 <1>        0.000
     20 C14        -2.6446    3.5044   -0.2422 C.3        1 <1>        0.000
     21 C15        -5.1325    3.7505    0.1130 C.3        1 <1>        0.000
     22 C16        -0.0242   -5.8932    0.7945 C.2        1 <1>        0.000
     23 O6         -0.7694    1.9459   -2.4401 O.3        1 <1>        0.000
     24 O7         -1.4595    0.6579   -0.7921 O.2        1 <1>        0.000
     25 C17        -3.7938    4.4362    0.0188 C.3        1 <1>        0.000
     26 C18         1.0297   -6.3825    1.4749 C.2        1 <1>        0.000
     27 C21        -0.6883    3.2366   -2.9835 C.3        1 <1>        0.000
     28 C22         2.2546   -7.0000    1.0297 C.2        1 <1>        0.000
     29 C24         0.6743    3.8530   -3.0571 C.3        1 <1>        0.000
     30 C25         3.0869   -6.5392    0.0660 C.2        1 <1>        0.000
     31 O8          1.0866    3.8608   -0.7123 O.2        1 <1>        0.000
     32 C32         1.9979   -5.3301   -1.7563 C.2        1 <1>        0.000
     33 C35         3.4730    3.2657   -3.3237 C.2        1 <1>        0.000
     34 C37         1.4387   -4.3692   -2.7306 C.3        1 <1>        0.000
     35 C40         3.8426    2.0310   -3.6843 C.2        1 <1>        0.000
     36 C41         1.4460   -2.8923   -2.4196 C.3        1 <1>        0.000
     37 C44         4.0361    0.8157   -2.8511 C.3        1 <1>        0.000
     38 C46         2.0828   -2.0174   -3.4604 C.3        1 <1>        0.000
     39 C48         2.8102    0.1771   -2.2545 C.3        1 <1>        0.000
     40 C49         1.9310   -0.5360   -3.2446 C.2        1 <1>        0.000
     41 O13         1.1023    0.0996   -3.9039 O.2        1 <1>        0.000
     42 H          -3.3142    0.0715    0.6197 H.spc      1 <1>        0.000
     43 H          -5.6969   -0.8156    0.3942 H.spc      1 <1>        0.000
     44 H          -4.8038   -1.2463    1.9084 H.spc      1 <1>        0.000
     45 H          -2.7826   -3.1967    1.9550 H.spc      1 <1>        0.000
     46 H          -1.1537   -5.1497    2.4193 H.spc      1 <1>        0.000
     47 H          -2.1182   -5.7662    1.0544 H.spc      1 <1>        0.000
     48 H          -5.7703   -2.9164   -0.3195 H.spc      1 <1>        0.000
     49 H          -5.5634   -3.2793    1.4660 H.spc      1 <1>        0.000
     50 H          -1.1397   -3.9069   -0.3146 H.spc      1 <1>        0.000
     51 H          -0.5913   -3.2042    1.3221 H.spc      1 <1>        0.000
     52 H          -4.0098   -4.6732    0.6543 H.spc      1 <1>        0.000
     53 H          -3.7319   -3.6747   -0.8322 H.spc      1 <1>        0.000
     54 H          -3.2502    2.9183   -2.2143 H.spc      1 <1>        0.000
     55 H          -6.0875    2.0145   -0.4677 H.spc      1 <1>        0.000
     56 H          -4.7791    1.8710    0.8910 H.spc      1 <1>        0.000
     57 H           3.3476   -4.4310   -0.4406 H.spc      1 <1>        0.000
     58 H           3.4766    4.8463   -1.9160 H.spc      1 <1>        0.000
     59 H           3.5539    3.2159   -1.2092 H.spc      1 <1>        0.000
     60 H          -2.4116    2.9959    0.6934 H.spc      1 <1>        0.000
     61 H          -1.8153    4.1002   -0.6234 H.spc      1 <1>        0.000
     62 H          -5.5074    3.9310    1.1205 H.spc      1 <1>        0.000
     63 H          -5.7495    4.1551   -0.6893 H.spc      1 <1>        0.000
     64 H           0.0086   -6.0169   -0.2880 H.spc      1 <1>        0.000
     65 H          -3.8446    5.1289   -0.8212 H.spc      1 <1>        0.000
     66 H          -3.6085    4.9155    0.9801 H.spc      1 <1>        0.000
     67 H           0.9410   -6.2963    2.5579 H.spc      1 <1>        0.000
     68 H          -1.0340    3.1502   -4.0136 H.spc      1 <1>        0.000
     69 H          -1.2715    3.8773   -2.3220 H.spc      1 <1>        0.000
     70 H           2.5392   -7.9318    1.5183 H.spc      1 <1>        0.000
     71 H           1.1995    3.2673   -3.8116 H.spc      1 <1>        0.000
     72 H           0.4865    4.9131   -3.2274 H.spc      1 <1>        0.000
     73 H           4.0019   -7.0976   -0.1318 H.spc      1 <1>        0.000
     74 H           1.6078   -6.3298   -1.9473 H.spc      1 <1>        0.000
     75 H           3.4337    3.9837   -4.1429 H.spc      1 <1>        0.000
     76 H           0.3823   -4.6296   -2.7958 H.spc      1 <1>        0.000
     77 H           2.0775   -4.4669   -3.6084 H.spc      1 <1>        0.000
     78 H           4.0299    1.8965   -4.7496 H.spc      1 <1>        0.000
     79 H           2.0321   -2.7692   -1.5089 H.spc      1 <1>        0.000
     80 H           0.4028   -2.5840   -2.3501 H.spc      1 <1>        0.000
     81 H           4.6416    1.1356   -2.0031 H.spc      1 <1>        0.000
     82 H           4.4601    0.0668   -3.5200 H.spc      1 <1>        0.000
     83 H           1.5859   -2.2457   -4.4033 H.spc      1 <1>        0.000
     84 H           3.1520   -2.2271   -3.4294 H.spc      1 <1>        0.000
     85 H           2.2138    0.9788   -1.8191 H.spc      1 <1>        0.000
     86 H           3.1563   -0.5701   -1.5404 H.spc      1 <1>        0.000
@<TRIPOS>BOND
     1   20   25 1  
     2   15   21 1  
     3   19   24 2  
     4   10   15 1  
     5   19   23 1  
     6   14   19 1  
     7    8   22 1  
     8   10   14 1  
     9   14   20 1  
    10   12    8 1  
    11   16   31 2  
    12   17   32 2  
    13   18   33 1  
    14   32   34 1  
    15   33   35 2  
    16   34   36 1  
    17   35   37 1  
    18   36   38 1  
    19   37   39 1  
    20   16   18 1  
    21   30   17 1  
    22   29   16 1  
    23   28   30 2  
    24   27   29 1  
    25   26   28 1  
    26    1    2 1  
    27    1    3 1  
    28    1    4 1  
    29   23   27 1  
    30    2    5 1  
    31   22   26 2  
    32    2    6 2  
    33    3    7 1  
    34    4    9 1  
    35    5   10 am 
    36    5   11 2  
    37   21   25 1  
    38    7   12 1  
    39    7   13 1  
    40    9   13 1  
    41   38   40 1  
    42   39   40 1  
    43   40   41 2  
    44    1   42 1  
    45    4   43 1  
    46    4   44 1  
    47    7   45 1  
    48    8   46 1  
    49    8   47 1  
    50    9   48 1  
    51    9   49 1  
    52   12   50 1  
    53   12   51 1  
    54   13   52 1  
    55   13   53 1  
    56   14   54 1  
    57   15   55 1  
    58   15   56 1  
    59   17   57 1  
    60   18   58 1  
    61   18   59 1  
    62   20   60 1  
    63   20   61 1  
    64   21   62 1  
    65   21   63 1  
    66   22   64 1  
    67   25   65 1  
    68   25   66 1  
    69   26   67 1  
    70   27   68 1  
    71   27   69 1  
    72   28   70 1  
    73   29   71 1  
    74   29   72 1  
    75   30   73 1  
    76   32   74 1  
    77   33   75 1  
    78   34   76 1  
    79   34   77 1  
    80   35   78 1  
    81   36   79 1  
    82   36   80 1  
    83   37   81 1  
    84   37   82 1  
    85   38   83 1  
    86   38   84 1  
    87   39   85 1  
    88   39   86 1  
# Name:          frag5-549-186/138278
# Creation time: Sat Jun  5 12:53:42 2010


@<TRIPOS>MOLECULE
frag5-549-186/138278
   86    88     1     1     1
SMALL
USER_CHARGES


@<TRIPOS>ATOM
      1 C1         -3.0469   -0.6468    0.5852 C.3        1 <1>        0.000
      2 C2         -3.3314   -0.8109   -0.9147 C.2        1 <1>        0.000
      3 O1         -1.8176   -1.1599    0.9654 O.3        1 <1>        0.000
      4 C3         -4.1760   -1.2874    1.3679 C.3        1 <1>        0.000
      5 C4         -4.3142    0.2124   -1.5060 C.2        1 <1>        0.000
      6 O3         -2.9231   -1.6381   -1.7252 O.2        1 <1>        0.000
      7 C5         -1.5333   -2.3859    1.5477 C.3        1 <1>        0.000
      8 C12         0.2726   -4.2562    1.6599 C.3        1 <1>        0.000
      9 C6         -4.0648   -2.7945    1.4684 C.3        1 <1>        0.000
     10 N1         -4.1522    1.5049   -1.0645 N.am       1 <1>        0.000
     11 O4         -5.1702   -0.2882   -2.2146 O.2        1 <1>        0.000
     12 C8         -0.1250   -2.8470    1.2818 C.3        1 <1>        0.000
     13 C9         -2.6721   -3.3644    1.2846 C.3        1 <1>        0.000
     14 C10        -3.2837    2.5072   -1.7336 C.3        1 <1>        0.000
     15 C11        -5.1900    2.0579   -0.2271 C.3        1 <1>        0.000
     16 C28         0.7629    4.2082   -2.4930 C.2        1 <1>        0.000
     17 C29         1.4889   -6.6841   -1.8969 C.2        1 <1>        0.000
     18 C31         2.2163    3.7525   -2.4943 C.3        1 <1>        0.000
     19 C13        -1.9318    1.8877   -2.1010 C.2        1 <1>        0.000
     20 C14        -3.0366    3.8145   -0.9957 C.3        1 <1>        0.000
     21 C15        -4.8962    3.2820    0.5896 C.3        1 <1>        0.000
     22 C16         0.0481   -5.2172    0.5603 C.2        1 <1>        0.000
     23 O6         -1.2366    2.1454   -3.2179 O.3        1 <1>        0.000
     24 O7         -1.4416    1.0812   -1.3049 O.2        1 <1>        0.000
     25 C17        -4.1943    4.3465   -0.1967 C.3        1 <1>        0.000
     26 C18        -0.5264   -6.4085    0.3809 C.2        1 <1>        0.000
     27 C21        -1.2572    3.3933   -3.8656 C.3        1 <1>        0.000
     28 C22        -0.6355   -7.2572   -0.7730 C.2        1 <1>        0.000
     29 C24        -0.0190    4.2506   -3.7811 C.3        1 <1>        0.000
     30 C25         0.2540   -7.4032   -1.7765 C.2        1 <1>        0.000
     31 O8          0.2091    4.6091   -1.4615 O.2        1 <1>        0.000
     32 C32         1.6911   -5.4528   -2.3861 C.2        1 <1>        0.000
     33 C35         2.6010    2.8802   -1.3578 C.2        1 <1>        0.000
     34 C37         2.9263   -4.6364   -2.4902 C.3        1 <1>        0.000
     35 C40         2.4030    1.5677   -1.1731 C.2        1 <1>        0.000
     36 C41         2.6835   -3.1509   -2.7063 C.3        1 <1>        0.000
     37 C44         1.7026    0.5828   -2.0387 C.3        1 <1>        0.000
     38 C46         3.6020   -2.1485   -2.0582 C.3        1 <1>        0.000
     39 C48         2.4922   -0.0333   -3.1582 C.3        1 <1>        0.000
     40 C49         3.7121   -0.8182   -2.7607 C.2        1 <1>        0.000
     41 O13         4.8326   -0.3518   -3.0036 O.2        1 <1>        0.000
     42 H          -2.9963    0.4195    0.8057 H.spc      1 <1>        0.000
     43 H          -5.1053   -1.0623    0.8447 H.spc      1 <1>        0.000
     44 H          -4.1386   -0.8885    2.3816 H.spc      1 <1>        0.000
     45 H          -1.5097   -2.2954    2.6337 H.spc      1 <1>        0.000
     46 H           1.3368   -4.2552    1.8958 H.spc      1 <1>        0.000
     47 H          -0.3394   -4.5639    2.5078 H.spc      1 <1>        0.000
     48 H          -4.6746   -3.2035    0.6628 H.spc      1 <1>        0.000
     49 H          -4.3764   -3.0604    2.4785 H.spc      1 <1>        0.000
     50 H          -0.0180   -2.8078    0.1978 H.spc      1 <1>        0.000
     51 H           0.5011   -2.2044    1.9008 H.spc      1 <1>        0.000
     52 H          -2.5654   -4.1722    2.0086 H.spc      1 <1>        0.000
     53 H          -2.5917   -3.6661    0.2403 H.spc      1 <1>        0.000
     54 H          -3.8654    2.7850   -2.6126 H.spc      1 <1>        0.000
     55 H          -5.9735    2.3656   -0.9197 H.spc      1 <1>        0.000
     56 H          -5.4035    1.2786    0.5045 H.spc      1 <1>        0.000
     57 H           2.3784   -7.2067   -1.5449 H.spc      1 <1>        0.000
     58 H           2.3620    3.1681   -3.4028 H.spc      1 <1>        0.000
     59 H           2.8280    4.6517   -2.4218 H.spc      1 <1>        0.000
     60 H          -2.2359    3.6180   -0.2827 H.spc      1 <1>        0.000
     61 H          -2.8211    4.5620   -1.7592 H.spc      1 <1>        0.000
     62 H          -4.2434    2.9875    1.4113 H.spc      1 <1>        0.000
     63 H          -5.8463    3.6912    0.9332 H.spc      1 <1>        0.000
     64 H           0.4740   -4.8469   -0.3722 H.spc      1 <1>        0.000
     65 H          -4.9135    4.7737   -0.8956 H.spc      1 <1>        0.000
     66 H          -3.8035    5.0794    0.5091 H.spc      1 <1>        0.000
     67 H          -1.0006   -6.8121    1.2755 H.spc      1 <1>        0.000
     68 H          -1.3838    3.1691   -4.9247 H.spc      1 <1>        0.000
     69 H          -2.0413    3.9654   -3.3696 H.spc      1 <1>        0.000
     70 H          -1.5447   -7.8539   -0.8463 H.spc      1 <1>        0.000
     71 H           0.6556    3.8720   -4.5490 H.spc      1 <1>        0.000
     72 H          -0.3642    5.2794   -3.8836 H.spc      1 <1>        0.000
     73 H           0.0153   -8.1249   -2.5577 H.spc      1 <1>        0.000
     74 H           0.7952   -4.9680   -2.7739 H.spc      1 <1>        0.000
     75 H           3.1262    3.3851   -0.5471 H.spc      1 <1>        0.000
     76 H           3.4766   -4.9994   -3.3582 H.spc      1 <1>        0.000
     77 H           3.4571   -4.7386   -1.5437 H.spc      1 <1>        0.000
     78 H           2.8174    1.1617   -0.2503 H.spc      1 <1>        0.000
     79 H           1.7075   -2.9618   -2.2594 H.spc      1 <1>        0.000
     80 H           2.8208   -3.0006   -3.7771 H.spc      1 <1>        0.000
     81 H           0.8924    1.1333   -2.5168 H.spc      1 <1>        0.000
     82 H           1.4263   -0.2428   -1.3829 H.spc      1 <1>        0.000
     83 H           4.5991   -2.5887   -2.0698 H.spc      1 <1>        0.000
     84 H           3.1901   -1.9441   -1.0699 H.spc      1 <1>        0.000
     85 H           2.8504    0.7956   -3.7687 H.spc      1 <1>        0.000
     86 H           1.8229   -0.7404   -3.6481 H.spc      1 <1>        0.000
@<TRIPOS>BOND
     1   20   25 1  
     2   15   21 1  
     3   19   24 2  
     4   10   15 1  
     5   19   23 1  
     6   14   19 1  
     7    8   22 1  
     8   10   14 1  
     9   14   20 1  
    10   12    8 1  
    11   16   31 2  
    12   17   32 2  
    13   18   33 1  
    14   32   34 1  
    15   33   35 2  
    16   34   36 1  
    17   35   37 1  
    18   36   38 1  
    19   37   39 1  
    20   16   18 1  
    21   30   17 1  
    22   29   16 1  
    23   28   30 2  
    24   27   29 1  
    25   26   28 1  
    26    1    2 1  
    27    1    3 1  
    28    1    4 1  
    29   23   27 1  
    30    2    5 1  
    31   22   26 2  
    32    2    6 2  
    33    3    7 1  
    34    4    9 1  
    35    5   10 am 
    36    5   11 2  
    37   21   25 1  
    38    7   12 1  
    39    7   13 1  
    40    9   13 1  
    41   38   40 1  
    42   39   40 1  
    43   40   41 2  
    44    1   42 1  
    45    4   43 1  
    46    4   44 1  
    47    7   45 1  
    48    8   46 1  
    49    8   47 1  
    50    9   48 1  
    51    9   49 1  
    52   12   50 1  
    53   12   51 1  
    54   13   52 1  
    55   13   53 1  
    56   14   54 1  
    57   15   55 1  
    58   15   56 1  
    59   17   57 1  
    60   18   58 1  
    61   18   59 1  
    62   20   60 1  
    63   20   61 1  
    64   21   62 1  
    65   21   63 1  
    66   22   64 1  
    67   25   65 1  
    68   25   66 1  
    69   26   67 1  
    70   27   68 1  
    71   27   69 1  
    72   28   70 1  
    73   29   71 1  
    74   29   72 1  
    75   30   73 1  
    76   32   74 1  
    77   33   75 1  
    78   34   76 1  
    79   34   77 1  
    80   35   78 1  
    81   36   79 1  
    82   36   80 1  
    83   37   81 1  
    84   37   82 1  
    85   38   83 1  
    86   38   84 1  
    87   39   85 1  
    88   39   86 1  
# Name:          frag5-549-186/138278
# Creation time: Sat Jun  5 12:53:42 2010


@<TRIPOS>MOLECULE
frag5-549-186/138278
   86    88     1     1     1
SMALL
USER_CHARGES


@<TRIPOS>ATOM
      1 C1         -3.8973   -1.0184   -0.5594 C.3        1 <1>        0.000
      2 C2         -3.5534   -0.1290   -1.7514 C.2        1 <1>        0.000
      3 O1         -2.9032   -1.9632   -0.3725 O.3        1 <1>        0.000
      4 C3         -5.2692   -1.6316   -0.7824 C.3        1 <1>        0.000
      5 C4         -4.1425    1.2752   -1.6933 C.2        1 <1>        0.000
      6 O3         -2.8783   -0.3578   -2.7482 O.2        1 <1>        0.000
      7 C5         -2.9993   -3.3040   -0.6931 C.3        1 <1>        0.000
      8 C12        -1.5914   -5.1140    0.3370 C.3        1 <1>        0.000
      9 C6         -5.2450   -2.7976   -1.7556 C.3        1 <1>        0.000
     10 N1         -4.0883    1.8463   -0.4509 N.am       1 <1>        0.000
     11 O4         -4.6680    1.6409   -2.7349 O.2        1 <1>        0.000
     12 C8         -1.6847   -4.0394   -0.7312 C.3        1 <1>        0.000
     13 C9         -3.9093   -3.5088   -1.8893 C.3        1 <1>        0.000
     14 C10        -2.9400    2.6674    0.0047 C.3        1 <1>        0.000
     15 C11        -5.3488    2.0557    0.2415 C.3        1 <1>        0.000
     16 C28         1.7764    3.8949   -2.6666 C.2        1 <1>        0.000
     17 C29         3.2080   -5.0275    0.7063 C.2        1 <1>        0.000
     18 C31         1.1212    3.4357   -3.9627 C.3        1 <1>        0.000
     19 C13        -1.6025    1.9506   -0.2836 C.2        1 <1>        0.000
     20 C14        -2.9247    3.0936    1.4664 C.3        1 <1>        0.000
     21 C15        -5.3133    2.3602    1.7131 C.3        1 <1>        0.000
     22 C16        -0.2155   -5.5921    0.6713 C.2        1 <1>        0.000
     23 O6         -0.5403    2.4886   -0.9019 O.3        1 <1>        0.000
     24 O7         -1.5060    0.7823    0.1150 O.2        1 <1>        0.000
     25 C17        -4.2721    3.3829    2.0677 C.3        1 <1>        0.000
     26 C18         0.4278   -5.7046    1.8468 C.2        1 <1>        0.000
     27 C21        -0.4249    3.8469   -1.2712 C.3        1 <1>        0.000
     28 C22         1.7479   -6.1513    2.2781 C.2        1 <1>        0.000
     29 C24         0.9718    4.3835   -1.4841 C.3        1 <1>        0.000
     30 C25         2.9996   -5.8912    1.8209 C.2        1 <1>        0.000
     31 O8          3.0101    3.9729   -2.5730 O.2        1 <1>        0.000
     32 C32         3.0413   -5.4160   -0.5662 C.2        1 <1>        0.000
     33 C35         1.9640    2.5723   -4.8378 C.2        1 <1>        0.000
     34 C37         3.1410   -4.6985   -1.8537 C.3        1 <1>        0.000
     35 C40         2.8024    1.5558   -4.5876 C.2        1 <1>        0.000
     36 C41         2.5285   -3.3084   -1.9607 C.3        1 <1>        0.000
     37 C44         3.1962    0.8979   -3.3115 C.3        1 <1>        0.000
     38 C46         3.0687   -2.4738   -3.0896 C.3        1 <1>        0.000
     39 C48         2.1604   -0.0637   -2.8072 C.3        1 <1>        0.000
     40 C49         2.1785   -1.3604   -3.5577 C.2        1 <1>        0.000
     41 O13         1.4967   -1.5093   -4.5763 O.2        1 <1>        0.000
     42 H          -3.9442   -0.4344    0.3598 H.spc      1 <1>        0.000
     43 H          -5.9140   -0.8602   -1.2034 H.spc      1 <1>        0.000
     44 H          -5.6261   -2.0063    0.1769 H.spc      1 <1>        0.000
     45 H          -3.4905   -3.8025    0.1425 H.spc      1 <1>        0.000
     46 H          -1.9909   -4.6721    1.2498 H.spc      1 <1>        0.000
     47 H          -2.1285   -5.9788   -0.0527 H.spc      1 <1>        0.000
     48 H          -5.4783   -2.3873   -2.7381 H.spc      1 <1>        0.000
     49 H          -5.9527   -3.5344   -1.3755 H.spc      1 <1>        0.000
     50 H          -1.5968   -4.5227   -1.7042 H.spc      1 <1>        0.000
     51 H          -0.8887   -3.3165   -0.5527 H.spc      1 <1>        0.000
     52 H          -4.1111   -4.5768   -1.9712 H.spc      1 <1>        0.000
     53 H          -3.4030   -3.0982   -2.7629 H.spc      1 <1>        0.000
     54 H          -3.0664    3.5826   -0.5737 H.spc      1 <1>        0.000
     55 H          -5.7870    2.9391   -0.2229 H.spc      1 <1>        0.000
     56 H          -5.8818    1.1085    0.1581 H.spc      1 <1>        0.000
     57 H           3.5183   -4.0003    0.8979 H.spc      1 <1>        0.000
     58 H           0.2558    2.8374   -3.6777 H.spc      1 <1>        0.000
     59 H           0.9014    4.3368   -4.5353 H.spc      1 <1>        0.000
     60 H          -2.5050    2.2599    2.0294 H.spc      1 <1>        0.000
     61 H          -2.3566    4.0227    1.5139 H.spc      1 <1>        0.000
     62 H          -5.0699    1.4377    2.2402 H.spc      1 <1>        0.000
     63 H          -6.2866    2.7613    1.9957 H.spc      1 <1>        0.000
     64 H           0.3715   -5.9056   -0.1920 H.spc      1 <1>        0.000
     65 H          -4.6076    4.3436    1.6770 H.spc      1 <1>        0.000
     66 H          -4.1577    3.3742    3.1516 H.spc      1 <1>        0.000
     67 H          -0.1901   -5.3822    2.6849 H.spc      1 <1>        0.000
     68 H          -0.9285    3.9375   -2.2336 H.spc      1 <1>        0.000
     69 H          -0.8396    4.4176   -0.4402 H.spc      1 <1>        0.000
     70 H           1.7249   -6.8253    3.1344 H.spc      1 <1>        0.000
     71 H           0.8373    5.4508   -1.6596 H.spc      1 <1>        0.000
     72 H           1.5334    4.0555   -0.6094 H.spc      1 <1>        0.000
     73 H           3.8574   -6.3494    2.3132 H.spc      1 <1>        0.000
     74 H           2.7808   -6.4692   -0.6714 H.spc      1 <1>        0.000
     75 H           1.8823    2.8168   -5.8969 H.spc      1 <1>        0.000
     76 H           2.5851   -5.3101   -2.5644 H.spc      1 <1>        0.000
     77 H           4.2089   -4.5525   -2.0164 H.spc      1 <1>        0.000
     78 H           3.2792    1.1380   -5.4743 H.spc      1 <1>        0.000
     79 H           2.7645   -2.7837   -1.0349 H.spc      1 <1>        0.000
     80 H           1.4627   -3.4428   -2.1451 H.spc      1 <1>        0.000
     81 H           3.3215    1.6771   -2.5597 H.spc      1 <1>        0.000
     82 H           4.1116    0.3354   -3.4953 H.spc      1 <1>        0.000
     83 H           3.1950   -3.1462   -3.9382 H.spc      1 <1>        0.000
     84 H           3.9805   -2.0055   -2.7190 H.spc      1 <1>        0.000
     85 H           1.1798    0.3926   -2.9424 H.spc      1 <1>        0.000
     86 H           2.3755   -0.2752   -1.7598 H.spc      1 <1>        0.000
@<TRIPOS>BOND
     1   20   25 1  
     2   15   21 1  
     3   19   24 2  
     4   10   15 1  
     5   19   23 1  
     6   14   19 1  
     7    8   22 1  
     8   10   14 1  
     9   14   20 1  
    10   12    8 1  
    11   16   31 2  
    12   17   32 2  
    13   18   33 1  
    14   32   34 1  
    15   33   35 2  
    16   34   36 1  
    17   35   37 1  
    18   36   38 1  
    19   37   39 1  
    20   16   18 1  
    21   30   17 1  
    22   29   16 1  
    23   28   30 2  
    24   27   29 1  
    25   26   28 1  
    26    1    2 1  
    27    1    3 1  
    28    1    4 1  
    29   23   27 1  
    30    2    5 1  
    31   22   26 2  
    32    2    6 2  
    33    3    7 1  
    34    4    9 1  
    35    5   10 am 
    36    5   11 2  
    37   21   25 1  
    38    7   12 1  
    39    7   13 1  
    40    9   13 1  
    41   38   40 1  
    42   39   40 1  
    43   40   41 2  
    44    1   42 1  
    45    4   43 1  
    46    4   44 1  
    47    7   45 1  
    48    8   46 1  
    49    8   47 1  
    50    9   48 1  
    51    9   49 1  
    52   12   50 1  
    53   12   51 1  
    54   13   52 1  
    55   13   53 1  
    56   14   54 1  
    57   15   55 1  
    58   15   56 1  
    59   17   57 1  
    60   18   58 1  
    61   18   59 1  
    62   20   60 1  
    63   20   61 1  
    64   21   62 1  
    65   21   63 1  
    66   22   64 1  
    67   25   65 1  
    68   25   66 1  
    69   26   67 1  
    70   27   68 1  
    71   27   69 1  
    72   28   70 1  
    73   29   71 1  
    74   29   72 1  
    75   30   73 1  
    76   32   74 1  
    77   33   75 1  
    78   34   76 1  
    79   34   77 1  
    80   35   78 1  
    81   36   79 1  
    82   36   80 1  
    83   37   81 1  
    84   37   82 1  
    85   38   83 1  
    86   38   84 1  
    87   39   85 1  
    88   39   86 1  
# Name:          frag5-549-186/138278
# Creation time: Sat Jun  5 12:53:42 2010


@<TRIPOS>MOLECULE
frag5-549-186/138278
   86    88     1     1     1
SMALL
USER_CHARGES


@<TRIPOS>ATOM
      1 C1         -3.5753   -0.7828    0.1893 C.3        1 <1>        0.000
      2 C2         -3.5624   -0.3652   -1.2877 C.2        1 <1>        0.000
      3 O1         -2.4397   -1.4872    0.5330 O.3        1 <1>        0.000
      4 C3         -4.8502   -1.5393    0.5300 C.3        1 <1>        0.000
      5 C4         -4.5753    0.7194   -1.6039 C.2        1 <1>        0.000
      6 O3         -2.9013   -0.7346   -2.2532 O.2        1 <1>        0.000
      7 C5         -2.2935   -2.8279    0.8373 C.3        1 <1>        0.000
      8 C12        -0.4268   -4.5634    1.3453 C.3        1 <1>        0.000
      9 C6         -4.7936   -3.0320    0.2541 C.3        1 <1>        0.000
     10 N1         -4.4639    1.8879   -0.8893 N.am       1 <1>        0.000
     11 O4         -5.4644    0.3015   -2.3365 O.2        1 <1>        0.000
     12 C8         -0.8918   -3.3302    0.5989 C.3        1 <1>        0.000
     13 C9         -3.4046   -3.6462    0.1889 C.3        1 <1>        0.000
     14 C10        -3.3467    2.8677   -0.9075 C.3        1 <1>        0.000
     15 C11        -5.6452    2.3288   -0.1832 C.3        1 <1>        0.000
     16 C28         1.4950    4.1408   -3.4255 C.2        1 <1>        0.000
     17 C29         2.6643   -6.2340   -1.8606 C.2        1 <1>        0.000
     18 C31         2.2967    3.3989   -2.3657 C.3        1 <1>        0.000
     19 C13        -1.9513    2.2778   -1.1765 C.2        1 <1>        0.000
     20 C14        -3.2401    3.7859    0.3074 C.3        1 <1>        0.000
     21 C15        -5.7837    3.7537    0.2648 C.3        1 <1>        0.000
     22 C16         0.2879   -5.5711    0.5326 C.2        1 <1>        0.000
     23 O6         -1.1202    2.7493   -2.1223 O.3        1 <1>        0.000
     24 O7         -1.5703    1.3388   -0.4748 O.2        1 <1>        0.000
     25 C17        -4.5335    4.3275    0.8703 C.3        1 <1>        0.000
     26 C18         1.0757   -6.6019    0.8364 C.2        1 <1>        0.000
     27 C21        -0.6832    4.0786   -1.9913 C.3        1 <1>        0.000
     28 C22         1.7781   -7.5557    0.0492 C.2        1 <1>        0.000
     29 C24         0.1151    4.6848   -3.1191 C.3        1 <1>        0.000
     30 C25         2.4673   -7.4177   -1.0846 C.2        1 <1>        0.000
     31 O8          1.9773    4.3893   -4.5405 O.2        1 <1>        0.000
     32 C32         1.8417   -5.6003   -2.6975 C.2        1 <1>        0.000
     33 C35         3.4142    2.5908   -2.9245 C.2        1 <1>        0.000
     34 C37         2.0060   -4.3502   -3.4785 C.3        1 <1>        0.000
     35 C40         3.4125    1.2806   -3.2212 C.2        1 <1>        0.000
     36 C41         2.8079   -3.2589   -2.7966 C.3        1 <1>        0.000
     37 C44         2.2860    0.3076   -3.0891 C.3        1 <1>        0.000
     38 C46         2.2610   -2.7083   -1.5005 C.3        1 <1>        0.000
     39 C48         1.9300   -0.1211   -1.6823 C.3        1 <1>        0.000
     40 C49         2.6757   -1.3073   -1.1301 C.2        1 <1>        0.000
     41 O13         3.6473   -1.1318   -0.3802 O.2        1 <1>        0.000
     42 H          -3.5670    0.1249    0.7928 H.spc      1 <1>        0.000
     43 H          -5.6406   -1.1296   -0.0989 H.spc      1 <1>        0.000
     44 H          -5.0140   -1.4200    1.6010 H.spc      1 <1>        0.000
     45 H          -2.4206   -2.9615    1.9116 H.spc      1 <1>        0.000
     46 H           0.2784   -4.2195    2.1019 H.spc      1 <1>        0.000
     47 H          -1.3242   -5.0520    1.7249 H.spc      1 <1>        0.000
     48 H          -5.2391   -3.1782   -0.7299 H.spc      1 <1>        0.000
     49 H          -5.3034   -3.5165    1.0869 H.spc      1 <1>        0.000
     50 H          -0.8651   -3.6088   -0.4546 H.spc      1 <1>        0.000
     51 H          -0.2399   -2.5272    0.9429 H.spc      1 <1>        0.000
     52 H          -3.4558   -4.5878    0.7356 H.spc      1 <1>        0.000
     53 H          -3.1518   -3.7300   -0.8681 H.spc      1 <1>        0.000
     54 H          -3.6517    3.4659   -1.7661 H.spc      1 <1>        0.000
     55 H          -6.4516    2.1968   -0.9046 H.spc      1 <1>        0.000
     56 H          -5.6292    1.7580    0.7453 H.spc      1 <1>        0.000
     57 H           3.6465   -5.7743   -1.7506 H.spc      1 <1>        0.000
     58 H           2.7324    4.1457   -1.7020 H.spc      1 <1>        0.000
     59 H           1.6166    2.7127   -1.8611 H.spc      1 <1>        0.000
     60 H          -2.7992    3.1818    1.1004 H.spc      1 <1>        0.000
     61 H          -2.6718    4.6549   -0.0242 H.spc      1 <1>        0.000
     62 H          -6.5561    3.7776    1.0335 H.spc      1 <1>        0.000
     63 H          -6.0187    4.3490   -0.6175 H.spc      1 <1>        0.000
     64 H           0.1391   -5.4440   -0.5397 H.spc      1 <1>        0.000
     65 H          -4.5445    5.3965    0.6576 H.spc      1 <1>        0.000
     66 H          -4.5489    4.0654    1.9282 H.spc      1 <1>        0.000
     67 H           1.2093   -6.7432    1.9089 H.spc      1 <1>        0.000
     68 H          -1.5938    4.6748   -1.9325 H.spc      1 <1>        0.000
     69 H          -0.0103    4.0755   -1.1338 H.spc      1 <1>        0.000
     70 H           1.7482   -8.5732    0.4389 H.spc      1 <1>        0.000
     71 H          -0.4702    4.4807   -4.0157 H.spc      1 <1>        0.000
     72 H           0.2840    5.7183   -2.8167 H.spc      1 <1>        0.000
     73 H           2.9399   -8.3222   -1.4675 H.spc      1 <1>        0.000
     74 H           0.8763   -6.0882   -2.8314 H.spc      1 <1>        0.000
     75 H           4.3446    3.1254   -3.1158 H.spc      1 <1>        0.000
     76 H           1.0053   -3.9484   -3.6374 H.spc      1 <1>        0.000
     77 H           2.5510   -4.6178   -4.3838 H.spc      1 <1>        0.000
     78 H           4.3491    0.8771   -3.6061 H.spc      1 <1>        0.000
     79 H           2.8191   -2.4205   -3.4931 H.spc      1 <1>        0.000
     80 H           3.7678   -3.7100   -2.5451 H.spc      1 <1>        0.000
     81 H           2.6032   -0.5958   -3.6100 H.spc      1 <1>        0.000
     82 H           1.4036    0.8101   -3.4852 H.spc      1 <1>        0.000
     83 H           2.6494   -3.3540   -0.7129 H.spc      1 <1>        0.000
     84 H           1.1781   -2.6785   -1.6208 H.spc      1 <1>        0.000
     85 H           0.8803   -0.4131   -1.7131 H.spc      1 <1>        0.000
     86 H           2.1836    0.7206   -1.0378 H.spc      1 <1>        0.000
@<TRIPOS>BOND
     1   20   25 1  
     2   15   21 1  
     3   19   24 2  
     4   10   15 1  
     5   19   23 1  
     6   14   19 1  
     7    8   22 1  
     8   10   14 1  
     9   14   20 1  
    10   12    8 1  
    11   16   31 2  
    12   17   32 2  
    13   18   33 1  
    14   32   34 1  
    15   33   35 2  
    16   34   36 1  
    17   35   37 1  
    18   36   38 1  
    19   37   39 1  
    20   16   18 1  
    21   30   17 1  
    22   29   16 1  
    23   28   30 2  
    24   27   29 1  
    25   26   28 1  
    26    1    2 1  
    27    1    3 1  
    28    1    4 1  
    29   23   27 1  
    30    2    5 1  
    31   22   26 2  
    32    2    6 2  
    33    3    7 1  
    34    4    9 1  
    35    5   10 am 
    36    5   11 2  
    37   21   25 1  
    38    7   12 1  
    39    7   13 1  
    40    9   13 1  
    41   38   40 1  
    42   39   40 1  
    43   40   41 2  
    44    1   42 1  
    45    4   43 1  
    46    4   44 1  
    47    7   45 1  
    48    8   46 1  
    49    8   47 1  
    50    9   48 1  
    51    9   49 1  
    52   12   50 1  
    53   12   51 1  
    54   13   52 1  
    55   13   53 1  
    56   14   54 1  
    57   15   55 1  
    58   15   56 1  
    59   17   57 1  
    60   18   58 1  
    61   18   59 1  
    62   20   60 1  
    63   20   61 1  
    64   21   62 1  
    65   21   63 1  
    66   22   64 1  
    67   25   65 1  
    68   25   66 1  
    69   26   67 1  
    70   27   68 1  
    71   27   69 1  
    72   28   70 1  
    73   29   71 1  
    74   29   72 1  
    75   30   73 1  
    76   32   74 1  
    77   33   75 1  
    78   34   76 1  
    79   34   77 1  
    80   35   78 1  
    81   36   79 1  
    82   36   80 1  
    83   37   81 1  
    84   37   82 1  
    85   38   83 1  
    86   38   84 1  
    87   39   85 1  
    88   39   86 1  
# Name:          frag5-549-186/138278
# Creation time: Sat Jun  5 12:53:42 2010


@<TRIPOS>MOLECULE
frag5-549-186/138278
   86    88     1     1     1
SMALL
USER_CHARGES


@<TRIPOS>ATOM
      1 C1         -3.5395   -0.9692    0.2117 C.3        1 <1>        0.000
      2 C2         -2.8776   -0.5207   -1.0957 C.2        1 <1>        0.000
      3 O1         -2.6910   -1.6856    1.0329 O.3        1 <1>        0.000
      4 C3         -4.7970   -1.7480   -0.1189 C.3        1 <1>        0.000
      5 C4         -3.5814    0.6469   -1.7816 C.2        1 <1>        0.000
      6 O3         -1.8856   -0.9244   -1.6904 O.2        1 <1>        0.000
      7 C5         -2.5927   -3.0597    1.1826 C.3        1 <1>        0.000
      8 C12        -0.9126   -4.9677    1.7096 C.3        1 <1>        0.000
      9 C6         -4.5437   -3.1996   -0.4707 C.3        1 <1>        0.000
     10 N1         -3.9265    1.6675   -0.9342 N.am       1 <1>        0.000
     11 O4         -3.8210    0.4604   -2.9633 O.2        1 <1>        0.000
     12 C8         -1.2265   -3.4944    1.6447 C.3        1 <1>        0.000
     13 C9         -3.2060   -3.7596   -0.0231 C.3        1 <1>        0.000
     14 C10        -3.0244    2.7848   -0.6222 C.3        1 <1>        0.000
     15 C11        -5.3276    1.9744   -0.7634 C.3        1 <1>        0.000
     16 C28         1.3153    4.1717   -3.5170 C.2        1 <1>        0.000
     17 C29         2.4885   -6.0519   -1.2148 C.2        1 <1>        0.000
     18 C31         0.9036    2.8796   -4.2033 C.3        1 <1>        0.000
     19 C13        -1.5650    2.3361   -0.4225 C.2        1 <1>        0.000
     20 C14        -3.4004    3.6803    0.5451 C.3        1 <1>        0.000
     21 C15        -5.7486    2.8218    0.4050 C.3        1 <1>        0.000
     22 C16        -0.3267   -5.4898    0.4637 C.2        1 <1>        0.000
     23 O6         -0.5079    2.9008   -1.0305 O.3        1 <1>        0.000
     24 O7         -1.3599    1.4104    0.3694 O.2        1 <1>        0.000
     25 C17        -4.8646    4.0178    0.6197 C.3        1 <1>        0.000
     26 C18        -0.5105   -6.5241   -0.3617 C.2        1 <1>        0.000
     27 C21        -0.6716    4.0282   -1.8559 C.3        1 <1>        0.000
     28 C22         0.1678   -6.9265   -1.5609 C.2        1 <1>        0.000
     29 C24         0.5557    4.7453   -2.3454 C.3        1 <1>        0.000
     30 C25         1.4485   -6.7476   -1.9241 C.2        1 <1>        0.000
     31 O8          2.2832    4.8264   -3.9344 O.2        1 <1>        0.000
     32 C32         2.5893   -4.7351   -0.9971 C.2        1 <1>        0.000
     33 C35         2.0669    2.0417   -4.5799 C.2        1 <1>        0.000
     34 C37         3.5726   -3.9060   -0.2651 C.3        1 <1>        0.000
     35 C40         2.8549    1.2799   -3.8102 C.2        1 <1>        0.000
     36 C41         3.7681   -2.4857   -0.7587 C.3        1 <1>        0.000
     37 C44         2.8194    1.0593   -2.3391 C.3        1 <1>        0.000
     38 C46         3.5009   -2.1207   -2.1967 C.3        1 <1>        0.000
     39 C48         1.9114   -0.0488   -1.8754 C.3        1 <1>        0.000
     40 C49         2.2032   -1.4009   -2.4765 C.2        1 <1>        0.000
     41 O13         1.3814   -1.9244   -3.2367 O.2        1 <1>        0.000
     42 H          -3.7999   -0.0794    0.7849 H.spc      1 <1>        0.000
     43 H          -5.2507   -1.2770   -0.9909 H.spc      1 <1>        0.000
     44 H          -5.4299   -1.7347    0.7685 H.spc      1 <1>        0.000
     45 H          -3.2032   -3.4027    2.0179 H.spc      1 <1>        0.000
     46 H          -0.1830   -5.1158    2.5058 H.spc      1 <1>        0.000
     47 H          -1.8489   -5.4982    1.8826 H.spc      1 <1>        0.000
     48 H          -4.5562   -3.2609   -1.5589 H.spc      1 <1>        0.000
     49 H          -5.3097   -3.7806    0.0429 H.spc      1 <1>        0.000
     50 H          -0.5373   -3.0925    0.9020 H.spc      1 <1>        0.000
     51 H          -1.1540   -3.1458    2.6749 H.spc      1 <1>        0.000
     52 H          -3.3774   -4.7965    0.2659 H.spc      1 <1>        0.000
     53 H          -2.5128   -3.6258   -0.8535 H.spc      1 <1>        0.000
     54 H          -3.1375    3.3903   -1.5214 H.spc      1 <1>        0.000
     55 H          -5.5981    2.5557   -1.6449 H.spc      1 <1>        0.000
     56 H          -5.8092    1.0103   -0.6001 H.spc      1 <1>        0.000
     57 H           3.2885   -6.6695   -0.8066 H.spc      1 <1>        0.000
     58 H           0.2897    2.3092   -3.5062 H.spc      1 <1>        0.000
     59 H           0.3668    3.1395   -5.1156 H.spc      1 <1>        0.000
     60 H          -3.1488    3.1402    1.4578 H.spc      1 <1>        0.000
     61 H          -2.8611    4.6187    0.4162 H.spc      1 <1>        0.000
     62 H          -5.6888    2.2026    1.3000 H.spc      1 <1>        0.000
     63 H          -6.7549    3.1878    0.2013 H.spc      1 <1>        0.000
     64 H           0.4867   -4.8524    0.1169 H.spc      1 <1>        0.000
     65 H          -5.0817    4.7394   -0.1678 H.spc      1 <1>        0.000
     66 H          -5.0671    4.4082    1.6170 H.spc      1 <1>        0.000
     67 H          -1.3270   -7.1849   -0.0704 H.spc      1 <1>        0.000
     68 H          -1.1597    3.6535   -2.7556 H.spc      1 <1>        0.000
     69 H          -1.2001    4.7565   -1.2409 H.spc      1 <1>        0.000
     70 H          -0.4493   -7.4571   -2.2860 H.spc      1 <1>        0.000
     71 H           0.1973    5.7156   -2.6893 H.spc      1 <1>        0.000
     72 H           1.2555    4.7092   -1.5105 H.spc      1 <1>        0.000
     73 H           1.7368   -7.1861   -2.8794 H.spc      1 <1>        0.000
     74 H           1.7845   -4.1565   -1.4506 H.spc      1 <1>        0.000
     75 H           2.3183    2.0462   -5.6405 H.spc      1 <1>        0.000
     76 H           4.5352   -4.4021   -0.3896 H.spc      1 <1>        0.000
     77 H           3.1937   -3.8203    0.7533 H.spc      1 <1>        0.000
     78 H           3.6397    0.7408   -4.3408 H.spc      1 <1>        0.000
     79 H           4.8361   -2.3070   -0.6344 H.spc      1 <1>        0.000
     80 H           3.0338   -1.9073   -0.1980 H.spc      1 <1>        0.000
     81 H           2.4402    1.9796   -1.8949 H.spc      1 <1>        0.000
     82 H           3.8299    0.7795   -2.0413 H.spc      1 <1>        0.000
     83 H           3.4488   -3.0622   -2.7434 H.spc      1 <1>        0.000
     84 H           4.2964   -1.4348   -2.4878 H.spc      1 <1>        0.000
     85 H           0.9009    0.2217   -2.1818 H.spc      1 <1>        0.000
     86 H           2.0537   -0.1443   -0.7990 H.spc      1 <1>        0.000
@<TRIPOS>BOND
     1   20   25 1  
     2   15   21 1  
     3   19   24 2  
     4   10   15 1  
     5   19   23 1  
     6   14   19 1  
     7    8   22 1  
     8   10   14 1  
     9   14   20 1  
    10   12    8 1  
    11   16   31 2  
    12   17   32 2  
    13   18   33 1  
    14   32   34 1  
    15   33   35 2  
    16   34   36 1  
    17   35   37 1  
    18   36   38 1  
    19   37   39 1  
    20   16   18 1  
    21   30   17 1  
    22   29   16 1  
    23   28   30 2  
    24   27   29 1  
    25   26   28 1  
    26    1    2 1  
    27    1    3 1  
    28    1    4 1  
    29   23   27 1  
    30    2    5 1  
    31   22   26 2  
    32    2    6 2  
    33    3    7 1  
    34    4    9 1  
    35    5   10 am 
    36    5   11 2  
    37   21   25 1  
    38    7   12 1  
    39    7   13 1  
    40    9   13 1  
    41   38   40 1  
    42   39   40 1  
    43   40   41 2  
    44    1   42 1  
    45    4   43 1  
    46    4   44 1  
    47    7   45 1  
    48    8   46 1  
    49    8   47 1  
    50    9   48 1  
    51    9   49 1  
    52   12   50 1  
    53   12   51 1  
    54   13   52 1  
    55   13   53 1  
    56   14   54 1  
    57   15   55 1  
    58   15   56 1  
    59   17   57 1  
    60   18   58 1  
    61   18   59 1  
    62   20   60 1  
    63   20   61 1  
    64   21   62 1  
    65   21   63 1  
    66   22   64 1  
    67   25   65 1  
    68   25   66 1  
    69   26   67 1  
    70   27   68 1  
    71   27   69 1  
    72   28   70 1  
    73   29   71 1  
    74   29   72 1  
    75   30   73 1  
    76   32   74 1  
    77   33   75 1  
    78   34   76 1  
    79   34   77 1  
    80   35   78 1  
    81   36   79 1  
    82   36   80 1  
    83   37   81 1  
    84   37   82 1  
    85   38   83 1  
    86   38   84 1  
    87   39   85 1  
    88   39   86 1  
# Name:          frag5-549-186/138278
# Creation time: Sat Jun  5 12:53:42 2010


@<TRIPOS>MOLECULE
frag5-549-186/138278
   86    88     1     1     1
SMALL
USER_CHARGES


@<TRIPOS>ATOM
      1 C1         -3.5544   -0.8353    0.6101 C.3        1 <1>        0.000
      2 C2         -3.4753   -0.6950   -0.9219 C.2        1 <1>        0.000
      3 O1         -2.4380   -1.4343    1.1590 O.3        1 <1>        0.000
      4 C3         -4.8175   -1.5852    0.9869 C.3        1 <1>        0.000
      5 C4         -4.4164    0.3541   -1.5021 C.2        1 <1>        0.000
      6 O3         -2.8153   -1.2884   -1.7687 O.2        1 <1>        0.000
      7 C5         -2.2090   -2.7711    1.4504 C.3        1 <1>        0.000
      8 C12        -0.2559   -4.5229    1.5759 C.3        1 <1>        0.000
      9 C6         -4.6906   -3.0946    0.8603 C.3        1 <1>        0.000
     10 N1         -4.4406    1.5694   -0.8656 N.am       1 <1>        0.000
     11 O4         -5.1374   -0.1056   -2.3806 O.2        1 <1>        0.000
     12 C8         -0.7565   -3.1319    1.2577 C.3        1 <1>        0.000
     13 C9         -3.2705   -3.6455    0.7890 C.3        1 <1>        0.000
     14 C10        -3.4496    2.6623   -0.9910 C.3        1 <1>        0.000
     15 C11        -5.6926    1.9795   -0.2697 C.3        1 <1>        0.000
     16 C28         1.4528    2.4264   -3.9016 C.2        1 <1>        0.000
     17 C29         2.0603   -5.9610   -2.1439 C.2        1 <1>        0.000
     18 C31         1.9758    3.7588   -3.3835 C.3        1 <1>        0.000
     19 C13        -1.9833    2.2665   -1.1634 C.2        1 <1>        0.000
     20 C14        -3.4680    3.7255    0.0990 C.3        1 <1>        0.000
     21 C15        -5.9804    3.4381   -0.0526 C.3        1 <1>        0.000
     22 C16         0.0087   -5.3613    0.3847 C.2        1 <1>        0.000
     23 O6         -1.1279    3.1110   -1.7792 O.3        1 <1>        0.000
     24 O7         -1.5676    1.2144   -0.6852 O.2        1 <1>        0.000
     25 C17        -4.8306    4.2073    0.5366 C.3        1 <1>        0.000
     26 C18         0.2088   -6.6725    0.2154 C.2        1 <1>        0.000
     27 C21        -1.0033    2.9516   -3.1736 C.3        1 <1>        0.000
     28 C22         0.4893   -7.4571   -0.9390 C.2        1 <1>        0.000
     29 C24         0.0176    1.9641   -3.6906 C.3        1 <1>        0.000
     30 C25         1.3001   -7.1499   -1.9663 C.2        1 <1>        0.000
     31 O8          2.2098    1.6907   -4.5530 O.2        1 <1>        0.000
     32 C32         1.6726   -4.7859   -2.6553 C.2        1 <1>        0.000
     33 C35         3.4052    3.7864   -2.9536 C.2        1 <1>        0.000
     34 C37         2.4513   -3.5263   -2.7986 C.3        1 <1>        0.000
     35 C40         4.0903    2.9945   -2.1124 C.2        1 <1>        0.000
     36 C41         1.6235   -2.2842   -2.5423 C.3        1 <1>        0.000
     37 C44         3.6957    1.7945   -1.3106 C.3        1 <1>        0.000
     38 C46         2.3200   -0.9584   -2.5937 C.3        1 <1>        0.000
     39 C48         4.3100    0.5049   -1.8007 C.3        1 <1>        0.000
     40 C49         3.4224   -0.6880   -1.6016 C.2        1 <1>        0.000
     41 O13         3.5893   -1.4026   -0.6094 O.2        1 <1>        0.000
     42 H          -3.5868    0.1706    1.0288 H.spc      1 <1>        0.000
     43 H          -5.6036   -1.2651    0.3031 H.spc      1 <1>        0.000
     44 H          -5.0303   -1.3619    2.0324 H.spc      1 <1>        0.000
     45 H          -2.3491   -2.9796    2.5111 H.spc      1 <1>        0.000
     46 H           0.6899   -4.4104    2.1059 H.spc      1 <1>        0.000
     47 H          -1.0357   -5.0208    2.1522 H.spc      1 <1>        0.000
     48 H          -5.1695   -3.3630   -0.0814 H.spc      1 <1>        0.000
     49 H          -5.1358   -3.5148    1.7621 H.spc      1 <1>        0.000
     50 H          -0.5974   -3.0309    0.1841 H.spc      1 <1>        0.000
     51 H          -0.2273   -2.4909    1.9627 H.spc      1 <1>        0.000
     52 H          -3.2735   -4.5963    1.3220 H.spc      1 <1>        0.000
     53 H          -3.0106   -3.7131   -0.2674 H.spc      1 <1>        0.000
     54 H          -3.8284    3.0697   -1.9284 H.spc      1 <1>        0.000
     55 H          -6.4518    1.6554   -0.9815 H.spc      1 <1>        0.000
     56 H          -5.6684    1.5546    0.7338 H.spc      1 <1>        0.000
     57 H           3.0996   -6.0137   -1.8197 H.spc      1 <1>        0.000
     58 H           1.8951    4.4601   -4.2140 H.spc      1 <1>        0.000
     59 H           1.3874    3.9914   -2.4959 H.spc      1 <1>        0.000
     60 H          -3.0097    3.2698    0.9767 H.spc      1 <1>        0.000
     61 H          -2.9559    4.5944   -0.3144 H.spc      1 <1>        0.000
     62 H          -6.8083    3.5027    0.6535 H.spc      1 <1>        0.000
     63 H          -6.1948    3.8741   -1.0283 H.spc      1 <1>        0.000
     64 H           0.0486   -4.7933   -0.5448 H.spc      1 <1>        0.000
     65 H          -4.9290    5.2387    0.1981 H.spc      1 <1>        0.000
     66 H          -4.8823    4.0812    1.6181 H.spc      1 <1>        0.000
     67 H           0.1450   -7.2510    1.1370 H.spc      1 <1>        0.000
     68 H          -1.9680    2.5690   -3.5068 H.spc      1 <1>        0.000
     69 H          -0.6784    3.9230   -3.5463 H.spc      1 <1>        0.000
     70 H          -0.0136   -8.4224   -0.9968 H.spc      1 <1>        0.000
     71 H           0.0809    1.1966   -2.9192 H.spc      1 <1>        0.000
     72 H          -0.3370    1.6885   -4.6838 H.spc      1 <1>        0.000
     73 H           1.3847   -7.8984   -2.7542 H.spc      1 <1>        0.000
     74 H           0.6449   -4.7467   -3.0164 H.spc      1 <1>        0.000
     75 H           3.9947    4.5876   -3.3994 H.spc      1 <1>        0.000
     76 H           2.8147   -3.4763   -3.8250 H.spc      1 <1>        0.000
     77 H           3.2541   -3.5474   -2.0616 H.spc      1 <1>        0.000
     78 H           5.1348    3.2813   -1.9904 H.spc      1 <1>        0.000
     79 H           1.2598   -2.3826   -1.5195 H.spc      1 <1>        0.000
     80 H           0.8848   -2.2562   -3.3433 H.spc      1 <1>        0.000
     81 H           2.6137    1.6906   -1.3921 H.spc      1 <1>        0.000
     82 H           4.0468    1.9549   -0.2912 H.spc      1 <1>        0.000
     83 H           1.5483   -0.2216   -2.3709 H.spc      1 <1>        0.000
     84 H           2.8013   -0.9264   -3.5712 H.spc      1 <1>        0.000
     85 H           5.2223    0.3361   -1.2285 H.spc      1 <1>        0.000
     86 H           4.4860    0.6097   -2.8713 H.spc      1 <1>        0.000
@<TRIPOS>BOND
     1   20   25 1  
     2   15   21 1  
     3   19   24 2  
     4   10   15 1  
     5   19   23 1  
     6   14   19 1  
     7    8   22 1  
     8   10   14 1  
     9   14   20 1  
    10   12    8 1  
    11   16   31 2  
    12   17   32 2  
    13   18   33 1  
    14   32   34 1  
    15   33   35 2  
    16   34   36 1  
    17   35   37 1  
    18   36   38 1  
    19   37   39 1  
    20   16   18 1  
    21   30   17 1  
    22   29   16 1  
    23   28   30 2  
    24   27   29 1  
    25   26   28 1  
    26    1    2 1  
    27    1    3 1  
    28    1    4 1  
    29   23   27 1  
    30    2    5 1  
    31   22   26 2  
    32    2    6 2  
    33    3    7 1  
    34    4    9 1  
    35    5   10 am 
    36    5   11 2  
    37   21   25 1  
    38    7   12 1  
    39    7   13 1  
    40    9   13 1  
    41   38   40 1  
    42   39   40 1  
    43   40   41 2  
    44    1   42 1  
    45    4   43 1  
    46    4   44 1  
    47    7   45 1  
    48    8   46 1  
    49    8   47 1  
    50    9   48 1  
    51    9   49 1  
    52   12   50 1  
    53   12   51 1  
    54   13   52 1  
    55   13   53 1  
    56   14   54 1  
    57   15   55 1  
    58   15   56 1  
    59   17   57 1  
    60   18   58 1  
    61   18   59 1  
    62   20   60 1  
    63   20   61 1  
    64   21   62 1  
    65   21   63 1  
    66   22   64 1  
    67   25   65 1  
    68   25   66 1  
    69   26   67 1  
    70   27   68 1  
    71   27   69 1  
    72   28   70 1  
    73   29   71 1  
    74   29   72 1  
    75   30   73 1  
    76   32   74 1  
    77   33   75 1  
    78   34   76 1  
    79   34   77 1  
    80   35   78 1  
    81   36   79 1  
    82   36   80 1  
    83   37   81 1  
    84   37   82 1  
    85   38   83 1  
    86   38   84 1  
    87   39   85 1  
    88   39   86 1  
# Name:          frag5-549-186/138278
# Creation time: Sat Jun  5 12:53:42 2010


@<TRIPOS>MOLECULE
frag5-549-186/138278
   86    88     1     1     1
SMALL
USER_CHARGES


@<TRIPOS>ATOM
      1 C1         -3.7393   -0.8067   -0.5244 C.3        1 <1>        0.000
      2 C2         -2.9200   -0.0909   -1.5984 C.2        1 <1>        0.000
      3 O1         -3.0305   -1.7963    0.1128 O.3        1 <1>        0.000
      4 C3         -4.9975   -1.3238   -1.1813 C.3        1 <1>        0.000
      5 C4         -3.3237    1.3560   -1.8281 C.2        1 <1>        0.000
      6 O3         -2.0167   -0.4690   -2.3332 O.2        1 <1>        0.000
      7 C5         -2.9486   -3.1416   -0.1879 C.3        1 <1>        0.000
      8 C12        -1.4662   -5.1257    0.5758 C.3        1 <1>        0.000
      9 C6         -4.7745   -2.6113   -1.9551 C.3        1 <1>        0.000
     10 N1         -3.6038    2.0429   -0.6835 N.am       1 <1>        0.000
     11 O4         -3.3885    1.6993   -2.9990 O.2        1 <1>        0.000
     12 C8         -1.5635   -3.6963    0.0658 C.3        1 <1>        0.000
     13 C9         -3.5565   -3.4408   -1.5592 C.3        1 <1>        0.000
     14 C10        -2.5777    2.8452   -0.0186 C.3        1 <1>        0.000
     15 C11        -4.9491    2.5204   -0.4690 C.3        1 <1>        0.000
     16 C28         0.9392    3.8681   -3.3546 C.2        1 <1>        0.000
     17 C29         3.3100   -5.6009    0.4619 C.2        1 <1>        0.000
     18 C31         0.0376    2.6935   -3.7116 C.3        1 <1>        0.000
     19 C13        -1.1983    2.1726   -0.0179 C.2        1 <1>        0.000
     20 C14        -2.8850    3.3411    1.3789 C.3        1 <1>        0.000
     21 C15        -5.3239    3.0445    0.8909 C.3        1 <1>        0.000
     22 C16        -0.1582   -5.7602    0.2578 C.2        1 <1>        0.000
     23 O6         -0.0782    2.7484   -0.4849 O.3        1 <1>        0.000
     24 O7         -1.1248    1.0348    0.4588 O.2        1 <1>        0.000
     25 C17        -4.2663    3.9284    1.4992 C.3        1 <1>        0.000
     26 C18         0.4227   -6.9135    0.6034 C.2        1 <1>        0.000
     27 C21        -0.0285    4.0735   -0.9793 C.3        1 <1>        0.000
     28 C22         1.6876   -7.4934    0.2757 C.2        1 <1>        0.000
     29 C24         1.0908    4.3981   -1.9408 C.3        1 <1>        0.000
     30 C25         2.9160   -6.9603    0.2302 C.2        1 <1>        0.000
     31 O8          1.5845    4.4368   -4.2493 O.2        1 <1>        0.000
     32 C32         3.0045   -4.5683   -0.3250 C.2        1 <1>        0.000
     33 C35         0.7168    1.6884   -4.5662 C.2        1 <1>        0.000
     34 C37         3.2822   -3.1153   -0.2610 C.3        1 <1>        0.000
     35 C40         1.6755    0.8117   -4.2385 C.2        1 <1>        0.000
     36 C41         3.6984   -2.5548   -1.6025 C.3        1 <1>        0.000
     37 C44         2.3500    0.6111   -2.9273 C.3        1 <1>        0.000
     38 C46         2.6740   -2.6009   -2.7093 C.3        1 <1>        0.000
     39 C48         1.6233   -0.3135   -1.9870 C.3        1 <1>        0.000
     40 C49         1.4702   -1.7213   -2.5019 C.2        1 <1>        0.000
     41 O13         0.3584   -2.1670   -2.8008 O.2        1 <1>        0.000
     42 H          -3.9974   -0.1060    0.2697 H.spc      1 <1>        0.000
     43 H          -5.3398   -0.5667   -1.8867 H.spc      1 <1>        0.000
     44 H          -5.7231   -1.5299   -0.3944 H.spc      1 <1>        0.000
     45 H          -3.5726   -3.7025    0.5079 H.spc      1 <1>        0.000
     46 H          -1.5723   -5.1024    1.6604 H.spc      1 <1>        0.000
     47 H          -2.2484   -5.7088    0.0897 H.spc      1 <1>        0.000
     48 H          -4.6149   -2.3165   -2.9923 H.spc      1 <1>        0.000
     49 H          -5.6441   -3.2377   -1.7561 H.spc      1 <1>        0.000
     50 H          -1.0633   -3.6942   -0.9026 H.spc      1 <1>        0.000
     51 H          -1.1359   -3.0733    0.8514 H.spc      1 <1>        0.000
     52 H          -3.8941   -4.4765   -1.5219 H.spc      1 <1>        0.000
     53 H          -2.7821   -3.2108   -2.2910 H.spc      1 <1>        0.000
     54 H          -2.5700    3.7337   -0.6500 H.spc      1 <1>        0.000
     55 H          -5.0567    3.3728   -1.1398 H.spc      1 <1>        0.000
     56 H          -5.5859    1.6489   -0.6213 H.spc      1 <1>        0.000
     57 H           3.9060   -5.3955    1.3511 H.spc      1 <1>        0.000
     58 H          -0.2537    2.2014   -2.7837 H.spc      1 <1>        0.000
     59 H          -0.8152    3.0834   -4.2673 H.spc      1 <1>        0.000
     60 H          -2.8244    2.4892    2.0562 H.spc      1 <1>        0.000
     61 H          -2.1669    4.1248    1.6204 H.spc      1 <1>        0.000
     62 H          -5.4564    2.1867    1.5502 H.spc      1 <1>        0.000
     63 H          -6.2280    3.6424    0.7765 H.spc      1 <1>        0.000
     64 H           0.4615   -5.1516   -0.4007 H.spc      1 <1>        0.000
     65 H          -4.2751    4.8791    0.9661 H.spc      1 <1>        0.000
     66 H          -4.4922    4.0423    2.5594 H.spc      1 <1>        0.000
     67 H          -0.1862   -7.5317    1.2631 H.spc      1 <1>        0.000
     68 H          -0.9542    4.2211   -1.5356 H.spc      1 <1>        0.000
     69 H           0.1279    4.7124   -0.1101 H.spc      1 <1>        0.000
     70 H           1.6455   -8.5518    0.0185 H.spc      1 <1>        0.000
     71 H           1.1124    5.4846   -2.0251 H.spc      1 <1>        0.000
     72 H           1.9856    3.9265   -1.5346 H.spc      1 <1>        0.000
     73 H           3.7225   -7.6511   -0.0154 H.spc      1 <1>        0.000
     74 H           2.4266   -4.8556   -1.2034 H.spc      1 <1>        0.000
     75 H           0.3902    1.6593   -5.6057 H.spc      1 <1>        0.000
     76 H           4.1001   -2.9566    0.4418 H.spc      1 <1>        0.000
     77 H           2.3688   -2.6084    0.0502 H.spc      1 <1>        0.000
     78 H           2.0070    0.1551   -5.0429 H.spc      1 <1>        0.000
     79 H           4.5299   -3.1738   -1.9395 H.spc      1 <1>        0.000
     80 H           3.9070   -1.4985   -1.4328 H.spc      1 <1>        0.000
     81 H           2.3999    1.5856   -2.4416 H.spc      1 <1>        0.000
     82 H           3.3202    0.1590   -3.1333 H.spc      1 <1>        0.000
     83 H           2.3088   -3.6268   -2.7564 H.spc      1 <1>        0.000
     84 H           3.1709   -2.2452   -3.6119 H.spc      1 <1>        0.000
     85 H           0.6201    0.0901   -1.8501 H.spc      1 <1>        0.000
     86 H           2.2112   -0.3680   -1.0708 H.spc      1 <1>        0.000
@<TRIPOS>BOND
     1   20   25 1  
     2   15   21 1  
     3   19   24 2  
     4   10   15 1  
     5   19   23 1  
     6   14   19 1  
     7    8   22 1  
     8   10   14 1  
     9   14   20 1  
    10   12    8 1  
    11   16   31 2  
    12   17   32 2  
    13   18   33 1  
    14   32   34 1  
    15   33   35 2  
    16   34   36 1  
    17   35   37 1  
    18   36   38 1  
    19   37   39 1  
    20   16   18 1  
    21   30   17 1  
    22   29   16 1  
    23   28   30 2  
    24   27   29 1  
    25   26   28 1  
    26    1    2 1  
    27    1    3 1  
    28    1    4 1  
    29   23   27 1  
    30    2    5 1  
    31   22   26 2  
    32    2    6 2  
    33    3    7 1  
    34    4    9 1  
    35    5   10 am 
    36    5   11 2  
    37   21   25 1  
    38    7   12 1  
    39    7   13 1  
    40    9   13 1  
    41   38   40 1  
    42   39   40 1  
    43   40   41 2  
    44    1   42 1  
    45    4   43 1  
    46    4   44 1  
    47    7   45 1  
    48    8   46 1  
    49    8   47 1  
    50    9   48 1  
    51    9   49 1  
    52   12   50 1  
    53   12   51 1  
    54   13   52 1  
    55   13   53 1  
    56   14   54 1  
    57   15   55 1  
    58   15   56 1  
    59   17   57 1  
    60   18   58 1  
    61   18   59 1  
    62   20   60 1  
    63   20   61 1  
    64   21   62 1  
    65   21   63 1  
    66   22   64 1  
    67   25   65 1  
    68   25   66 1  
    69   26   67 1  
    70   27   68 1  
    71   27   69 1  
    72   28   70 1  
    73   29   71 1  
    74   29   72 1  
    75   30   73 1  
    76   32   74 1  
    77   33   75 1  
    78   34   76 1  
    79   34   77 1  
    80   35   78 1  
    81   36   79 1  
    82   36   80 1  
    83   37   81 1  
    84   37   82 1  
    85   38   83 1  
    86   38   84 1  
    87   39   85 1  
    88   39   86 1  
# Name:          frag5-549-186/138278
# Creation time: Sat Jun  5 12:53:42 2010


@<TRIPOS>MOLECULE
frag5-549-186/138278
   86    88     1     1     1
SMALL
USER_CHARGES


@<TRIPOS>ATOM
      1 C1         -3.8130   -0.8151    0.1997 C.3        1 <1>        0.000
      2 C2         -3.8570   -0.2783   -1.2354 C.2        1 <1>        0.000
      3 O1         -2.7173   -1.6210    0.3996 O.3        1 <1>        0.000
      4 C3         -5.1125   -1.5195    0.5227 C.3        1 <1>        0.000
      5 C4         -4.6793    0.9931   -1.3657 C.2        1 <1>        0.000
      6 O3         -3.3509   -0.6691   -2.2795 O.2        1 <1>        0.000
      7 C5         -2.6953   -2.9964    0.4626 C.3        1 <1>        0.000
      8 C12        -0.9248   -4.7425    1.0346 C.3        1 <1>        0.000
      9 C6         -5.1882   -2.9179   -0.0602 C.3        1 <1>        0.000
     10 N1         -4.3737    1.9324   -0.4213 N.am       1 <1>        0.000
     11 O4         -5.5654    0.9215   -2.2039 O.2        1 <1>        0.000
     12 C8         -1.3147   -3.5308    0.2346 C.3        1 <1>        0.000
     13 C9         -3.8422   -3.5681   -0.3572 C.3        1 <1>        0.000
     14 C10        -3.1577    2.7522   -0.4249 C.3        1 <1>        0.000
     15 C11        -5.3795    2.3478    0.5225 C.3        1 <1>        0.000
     16 C28         0.9704    3.9245   -3.7659 C.2        1 <1>        0.000
     17 C29         2.9250   -6.5715   -0.4641 C.2        1 <1>        0.000
     18 C31         2.4259    4.2855   -3.6218 C.3        1 <1>        0.000
     19 C13        -1.8467    2.0202   -0.7494 C.2        1 <1>        0.000
     20 C14        -2.9042    3.5935    0.8061 C.3        1 <1>        0.000
     21 C15        -5.4230    3.7721    1.0027 C.3        1 <1>        0.000
     22 C16        -0.0812   -5.7065    0.3061 C.2        1 <1>        0.000
     23 O6         -1.0172    2.3668   -1.7428 O.3        1 <1>        0.000
     24 O7         -1.5341    1.0679   -0.0274 O.2        1 <1>        0.000
     25 C17        -4.0836    4.4429    1.1818 C.3        1 <1>        0.000
     26 C18         0.0837   -7.0258    0.4115 C.2        1 <1>        0.000
     27 C21        -1.2075    3.5097   -2.5441 C.3        1 <1>        0.000
     28 C22         0.9040   -7.9751   -0.2854 C.2        1 <1>        0.000
     29 C24        -0.0165    4.3967   -2.7442 C.3        1 <1>        0.000
     30 C25         2.1836   -7.7838   -0.6678 C.2        1 <1>        0.000
     31 O8          0.5671    3.2806   -4.7388 O.2        1 <1>        0.000
     32 C32         2.9062   -5.5017   -1.2698 C.2        1 <1>        0.000
     33 C35         3.2658    3.2702   -2.9476 C.2        1 <1>        0.000
     34 C37         3.5454   -4.1670   -1.1921 C.3        1 <1>        0.000
     35 C40         3.2925    1.9313   -2.9475 C.2        1 <1>        0.000
     36 C41         2.6602   -3.1157   -1.8330 C.3        1 <1>        0.000
     37 C44         2.4665    0.9134   -3.6573 C.3        1 <1>        0.000
     38 C46         2.9540   -1.6682   -1.5849 C.3        1 <1>        0.000
     39 C48         3.0931   -0.4395   -3.8807 C.3        1 <1>        0.000
     40 C49         3.7666   -1.0398   -2.6751 C.2        1 <1>        0.000
     41 O13         4.9984   -1.0258   -2.5810 O.2        1 <1>        0.000
     42 H          -3.7049    0.0224    0.8889 H.spc      1 <1>        0.000
     43 H          -5.9242   -0.9346    0.0900 H.spc      1 <1>        0.000
     44 H          -5.1826   -1.6070    1.6069 H.spc      1 <1>        0.000
     45 H          -2.9027   -3.3600    1.4690 H.spc      1 <1>        0.000
     46 H          -0.3447   -4.3900    1.8874 H.spc      1 <1>        0.000
     47 H          -1.8462   -5.2605    1.3006 H.spc      1 <1>        0.000
     48 H          -5.7127   -2.8332   -1.0120 H.spc      1 <1>        0.000
     49 H          -5.6808   -3.5424    0.6851 H.spc      1 <1>        0.000
     50 H          -1.2772   -3.8345   -0.8116 H.spc      1 <1>        0.000
     51 H          -0.6302   -2.7374    0.5348 H.spc      1 <1>        0.000
     52 H          -3.9277   -4.6254   -0.1065 H.spc      1 <1>        0.000
     53 H          -3.6158   -3.3854   -1.4077 H.spc      1 <1>        0.000
     54 H          -3.4206    3.4089   -1.2542 H.spc      1 <1>        0.000
     55 H          -6.3219    2.2117   -0.0081 H.spc      1 <1>        0.000
     56 H          -5.1667    1.7658    1.4192 H.spc      1 <1>        0.000
     57 H           3.5573   -6.5170    0.4221 H.spc      1 <1>        0.000
     58 H           2.8212    4.3970   -4.6315 H.spc      1 <1>        0.000
     59 H           2.4652    5.1829   -3.0044 H.spc      1 <1>        0.000
     60 H          -2.7009    2.9176    1.6368 H.spc      1 <1>        0.000
     61 H          -2.0684    4.2589    0.5898 H.spc      1 <1>        0.000
     62 H          -5.8924    3.7522    1.9863 H.spc      1 <1>        0.000
     63 H          -5.9529    4.3398    0.2378 H.spc      1 <1>        0.000
     64 H           0.5292   -5.2509   -0.4736 H.spc      1 <1>        0.000
     65 H          -4.0724    5.3118    0.5238 H.spc      1 <1>        0.000
     66 H          -3.9834    4.6754    2.2420 H.spc      1 <1>        0.000
     67 H          -0.5330   -7.4770    1.1888 H.spc      1 <1>        0.000
     68 H          -1.4772    3.1411   -3.5338 H.spc      1 <1>        0.000
     69 H          -1.9514    4.1173   -2.0288 H.spc      1 <1>        0.000
     70 H           0.4526   -8.9372   -0.5275 H.spc      1 <1>        0.000
     71 H          -0.3975    5.3545   -3.0985 H.spc      1 <1>        0.000
     72 H           0.5122    4.4279   -1.7915 H.spc      1 <1>        0.000
     73 H           2.6910   -8.6091   -1.1674 H.spc      1 <1>        0.000
     74 H           2.2977   -5.6410   -2.1633 H.spc      1 <1>        0.000
     75 H           4.0326    3.7098   -2.3097 H.spc      1 <1>        0.000
     76 H           4.4974   -4.1990   -1.7220 H.spc      1 <1>        0.000
     77 H           3.6998   -3.9089   -0.1444 H.spc      1 <1>        0.000
     78 H           4.0646    1.5050   -2.3070 H.spc      1 <1>        0.000
     79 H           1.6728   -3.2794   -1.4013 H.spc      1 <1>        0.000
     80 H           2.7975   -3.2498   -2.9060 H.spc      1 <1>        0.000
     81 H           2.2778    1.3221   -4.6500 H.spc      1 <1>        0.000
     82 H           1.5982    0.7385   -3.0221 H.spc      1 <1>        0.000
     83 H           3.5288   -1.5999   -0.6613 H.spc      1 <1>        0.000
     84 H           2.0017   -1.1403   -1.5346 H.spc      1 <1>        0.000
     85 H           3.8662   -0.3057   -4.6374 H.spc      1 <1>        0.000
     86 H           2.2855   -1.1169   -4.1583 H.spc      1 <1>        0.000
@<TRIPOS>BOND
     1   20   25 1  
     2   15   21 1  
     3   19   24 2  
     4   10   15 1  
     5   19   23 1  
     6   14   19 1  
     7    8   22 1  
     8   10   14 1  
     9   14   20 1  
    10   12    8 1  
    11   16   31 2  
    12   17   32 2  
    13   18   33 1  
    14   32   34 1  
    15   33   35 2  
    16   34   36 1  
    17   35   37 1  
    18   36   38 1  
    19   37   39 1  
    20   16   18 1  
    21   30   17 1  
    22   29   16 1  
    23   28   30 2  
    24   27   29 1  
    25   26   28 1  
    26    1    2 1  
    27    1    3 1  
    28    1    4 1  
    29   23   27 1  
    30    2    5 1  
    31   22   26 2  
    32    2    6 2  
    33    3    7 1  
    34    4    9 1  
    35    5   10 am 
    36    5   11 2  
    37   21   25 1  
    38    7   12 1  
    39    7   13 1  
    40    9   13 1  
    41   38   40 1  
    42   39   40 1  
    43   40   41 2  
    44    1   42 1  
    45    4   43 1  
    46    4   44 1  
    47    7   45 1  
    48    8   46 1  
    49    8   47 1  
    50    9   48 1  
    51    9   49 1  
    52   12   50 1  
    53   12   51 1  
    54   13   52 1  
    55   13   53 1  
    56   14   54 1  
    57   15   55 1  
    58   15   56 1  
    59   17   57 1  
    60   18   58 1  
    61   18   59 1  
    62   20   60 1  
    63   20   61 1  
    64   21   62 1  
    65   21   63 1  
    66   22   64 1  
    67   25   65 1  
    68   25   66 1  
    69   26   67 1  
    70   27   68 1  
    71   27   69 1  
    72   28   70 1  
    73   29   71 1  
    74   29   72 1  
    75   30   73 1  
    76   32   74 1  
    77   33   75 1  
    78   34   76 1  
    79   34   77 1  
    80   35   78 1  
    81   36   79 1  
    82   36   80 1  
    83   37   81 1  
    84   37   82 1  
    85   38   83 1  
    86   38   84 1  
    87   39   85 1  
    88   39   86 1  
# Name:          frag5-549-186/138278
# Creation time: Sat Jun  5 12:53:42 2010


@<TRIPOS>MOLECULE
frag5-549-186/138278
   86    88     1     1     1
SMALL
USER_CHARGES


@<TRIPOS>ATOM
      1 C1         -3.7859   -0.7123    0.4196 C.3        1 <1>        0.000
      2 C2         -3.7912   -0.3293   -1.0768 C.2        1 <1>        0.000
      3 O1         -2.7324   -1.5527    0.7377 O.3        1 <1>        0.000
      4 C3         -5.1056   -1.3430    0.8085 C.3        1 <1>        0.000
      5 C4         -4.6227    0.9036   -1.4176 C.2        1 <1>        0.000
      6 O3         -3.2623   -0.8458   -2.0560 O.2        1 <1>        0.000
      7 C5         -2.6923   -2.9338    0.6579 C.3        1 <1>        0.000
      8 C12        -1.3772   -4.7501   -0.6149 C.3        1 <1>        0.000
      9 C6         -5.2485   -2.7732    0.3373 C.3        1 <1>        0.000
     10 N1         -4.4514    1.9788   -0.5871 N.am       1 <1>        0.000
     11 O4         -5.4446    0.6954   -2.3018 O.2        1 <1>        0.000
     12 C8         -1.3663   -3.4494    0.1519 C.3        1 <1>        0.000
     13 C9         -3.9495   -3.4577   -0.0315 C.3        1 <1>        0.000
     14 C10        -3.2815    2.9024   -0.5273 C.3        1 <1>        0.000
     15 C11        -5.5725    2.3383    0.2434 C.3        1 <1>        0.000
     16 C28         1.2478    3.6746   -3.7652 C.2        1 <1>        0.000
     17 C29         3.0240   -6.0696   -0.4789 C.2        1 <1>        0.000
     18 C31         1.0926    2.2644   -4.3097 C.3        1 <1>        0.000
     19 C13        -1.9496    2.1844   -0.7921 C.2        1 <1>        0.000
     20 C14        -3.1445    3.7128    0.7603 C.3        1 <1>        0.000
     21 C15        -5.6898    3.7338    0.7646 C.3        1 <1>        0.000
     22 C16        -0.0932   -5.1818   -1.1937 C.2        1 <1>        0.000
     23 O6         -1.0432    2.4952   -1.7238 O.3        1 <1>        0.000
     24 O7         -1.6951    1.2137   -0.0734 O.2        1 <1>        0.000
     25 C17        -4.4190    4.2180    1.4020 C.3        1 <1>        0.000
     26 C18         0.2713   -6.3597   -1.7011 C.2        1 <1>        0.000
     27 C21        -0.7301    3.7943   -2.1734 C.3        1 <1>        0.000
     28 C22         1.4913   -6.8745   -2.2396 C.2        1 <1>        0.000
     29 C24         0.7471    4.0364   -2.3887 C.3        1 <1>        0.000
     30 C25         2.7144   -6.7697   -1.6930 C.2        1 <1>        0.000
     31 O8          1.7830    4.5570   -4.4513 O.2        1 <1>        0.000
     32 C32         3.0624   -4.7388   -0.3559 C.2        1 <1>        0.000
     33 C35         2.3511    1.7728   -4.9310 C.2        1 <1>        0.000
     34 C37         3.2872   -3.7756    0.7466 C.3        1 <1>        0.000
     35 C40         3.0924    0.6913   -4.6570 C.2        1 <1>        0.000
     36 C41         4.3212   -2.7038    0.4737 C.3        1 <1>        0.000
     37 C44         2.8863   -0.3893   -3.6557 C.3        1 <1>        0.000
     38 C46         4.4113   -2.0700   -0.8940 C.3        1 <1>        0.000
     39 C48         3.3247   -0.0955   -2.2454 C.3        1 <1>        0.000
     40 C49         3.1973   -1.2907   -1.3424 C.2        1 <1>        0.000
     41 O13         2.0654   -1.6579   -1.0101 O.2        1 <1>        0.000
     42 H          -3.6502    0.2063    0.9905 H.spc      1 <1>        0.000
     43 H          -5.8991   -0.7613    0.3395 H.spc      1 <1>        0.000
     44 H          -5.1595   -1.3483    1.8972 H.spc      1 <1>        0.000
     45 H          -2.7274   -3.3639    1.6588 H.spc      1 <1>        0.000
     46 H          -1.6599   -5.5210    0.1019 H.spc      1 <1>        0.000
     47 H          -2.0525   -4.5987   -1.4570 H.spc      1 <1>        0.000
     48 H          -5.8584   -2.7477   -0.5658 H.spc      1 <1>        0.000
     49 H          -5.6769   -3.3365    1.1663 H.spc      1 <1>        0.000
     50 H          -1.0044   -2.6966   -0.5485 H.spc      1 <1>        0.000
     51 H          -0.7631   -3.6354    1.0405 H.spc      1 <1>        0.000
     52 H          -4.0551   -4.4977    0.2773 H.spc      1 <1>        0.000
     53 H          -3.8064   -3.2846   -1.0981 H.spc      1 <1>        0.000
     54 H          -3.5006    3.6087   -1.3281 H.spc      1 <1>        0.000
     55 H          -6.4433    2.2106   -0.3996 H.spc      1 <1>        0.000
     56 H          -5.4642    1.7200    1.1345 H.spc      1 <1>        0.000
     57 H           3.2437   -6.6659    0.4067 H.spc      1 <1>        0.000
     58 H           0.8372    1.6029   -3.4819 H.spc      1 <1>        0.000
     59 H           0.3142    2.2747   -5.0727 H.spc      1 <1>        0.000
     60 H          -2.6959    3.0366    1.4880 H.spc      1 <1>        0.000
     61 H          -2.5776    4.6035    0.4893 H.spc      1 <1>        0.000
     62 H          -6.4722    3.7449    1.5234 H.spc      1 <1>        0.000
     63 H          -5.9152    4.3893   -0.0766 H.spc      1 <1>        0.000
     64 H           0.6826   -4.4163   -1.2097 H.spc      1 <1>        0.000
     65 H          -4.4117    5.3033    1.3014 H.spc      1 <1>        0.000
     66 H          -4.4218    3.8479    2.4272 H.spc      1 <1>        0.000
     67 H          -0.5380   -7.0898   -1.7065 H.spc      1 <1>        0.000
     68 H          -1.2218    3.9284   -3.1369 H.spc      1 <1>        0.000
     69 H          -1.0610    4.4900   -1.4023 H.spc      1 <1>        0.000
     70 H           1.4225   -7.4054   -3.1891 H.spc      1 <1>        0.000
     71 H           0.9169    5.1052   -2.2588 H.spc      1 <1>        0.000
     72 H           1.2803    3.4034   -1.6793 H.spc      1 <1>        0.000
     73 H           3.5388   -7.2562   -2.2143 H.spc      1 <1>        0.000
     74 H           2.8831   -4.2361   -1.3063 H.spc      1 <1>        0.000
     75 H           2.7325    2.3938   -5.7415 H.spc      1 <1>        0.000
     76 H           3.6552   -4.3538    1.5942 H.spc      1 <1>        0.000
     77 H           2.3402   -3.2602    0.9069 H.spc      1 <1>        0.000
     78 H           3.9907    0.5862   -5.2653 H.spc      1 <1>        0.000
     79 H           5.2779   -3.2099    0.6024 H.spc      1 <1>        0.000
     80 H           4.0438   -1.8835    1.1358 H.spc      1 <1>        0.000
     81 H           3.4944   -1.2296   -3.9907 H.spc      1 <1>        0.000
     82 H           1.8098   -0.5535   -3.6079 H.spc      1 <1>        0.000
     83 H           4.5297   -2.8885   -1.6040 H.spc      1 <1>        0.000
     84 H           5.2339   -1.3563   -0.8476 H.spc      1 <1>        0.000
     85 H           2.6841    0.6935   -1.8515 H.spc      1 <1>        0.000
     86 H           4.3750    0.1947   -2.2732 H.spc      1 <1>        0.000
@<TRIPOS>BOND
     1   20   25 1  
     2   15   21 1  
     3   19   24 2  
     4   10   15 1  
     5   19   23 1  
     6   14   19 1  
     7    8   22 1  
     8   10   14 1  
     9   14   20 1  
    10   12    8 1  
    11   16   31 2  
    12   17   32 2  
    13   18   33 1  
    14   32   34 1  
    15   33   35 2  
    16   34   36 1  
    17   35   37 1  
    18   36   38 1  
    19   37   39 1  
    20   16   18 1  
    21   30   17 1  
    22   29   16 1  
    23   28   30 2  
    24   27   29 1  
    25   26   28 1  
    26    1    2 1  
    27    1    3 1  
    28    1    4 1  
    29   23   27 1  
    30    2    5 1  
    31   22   26 2  
    32    2    6 2  
    33    3    7 1  
    34    4    9 1  
    35    5   10 am 
    36    5   11 2  
    37   21   25 1  
    38    7   12 1  
    39    7   13 1  
    40    9   13 1  
    41   38   40 1  
    42   39   40 1  
    43   40   41 2  
    44    1   42 1  
    45    4   43 1  
    46    4   44 1  
    47    7   45 1  
    48    8   46 1  
    49    8   47 1  
    50    9   48 1  
    51    9   49 1  
    52   12   50 1  
    53   12   51 1  
    54   13   52 1  
    55   13   53 1  
    56   14   54 1  
    57   15   55 1  
    58   15   56 1  
    59   17   57 1  
    60   18   58 1  
    61   18   59 1  
    62   20   60 1  
    63   20   61 1  
    64   21   62 1  
    65   21   63 1  
    66   22   64 1  
    67   25   65 1  
    68   25   66 1  
    69   26   67 1  
    70   27   68 1  
    71   27   69 1  
    72   28   70 1  
    73   29   71 1  
    74   29   72 1  
    75   30   73 1  
    76   32   74 1  
    77   33   75 1  
    78   34   76 1  
    79   34   77 1  
    80   35   78 1  
    81   36   79 1  
    82   36   80 1  
    83   37   81 1  
    84   37   82 1  
    85   38   83 1  
    86   38   84 1  
    87   39   85 1  
    88   39   86 1  
# Name:          frag5-549-186/138278
# Creation time: Sat Jun  5 12:53:42 2010


@<TRIPOS>MOLECULE
frag5-549-186/138278
   86    88     1     1     1
SMALL
USER_CHARGES


@<TRIPOS>ATOM
      1 C1         -3.2356   -0.9398    0.9446 C.3        1 <1>        0.000
      2 C2         -3.8203   -1.2594   -0.4398 C.2        1 <1>        0.000
      3 O1         -2.0809   -1.6515    1.2219 O.3        1 <1>        0.000
      4 C3         -4.2880   -1.1371    2.0283 C.3        1 <1>        0.000
      5 C4         -4.6469   -0.1373   -1.0909 C.2        1 <1>        0.000
      6 O3         -3.7577   -2.2835   -1.1132 O.2        1 <1>        0.000
      7 C5         -1.8889   -2.7265    2.0708 C.3        1 <1>        0.000
      8 C12        -0.9043   -4.6268    0.5047 C.3        1 <1>        0.000
      9 C6         -4.3917   -2.5304    2.6118 C.3        1 <1>        0.000
     10 N1         -4.1784    1.1450   -0.9579 N.am       1 <1>        0.000
     11 O4         -5.7015   -0.5323   -1.5715 O.2        1 <1>        0.000
     12 C8         -0.7625   -3.6482    1.6565 C.3        1 <1>        0.000
     13 C9         -3.1996   -3.4274    2.3723 C.3        1 <1>        0.000
     14 C10        -3.2593    1.7929   -1.9096 C.3        1 <1>        0.000
     15 C11        -4.9587    2.0771   -0.1810 C.3        1 <1>        0.000
     16 C28         1.2549    2.7007   -4.1018 C.2        1 <1>        0.000
     17 C29         1.6424   -4.2029   -3.3559 C.2        1 <1>        0.000
     18 C31         1.3872    2.9556   -2.6075 C.3        1 <1>        0.000
     19 C13        -2.0263    0.9261   -2.1317 C.2        1 <1>        0.000
     20 C14        -2.8056    3.1987   -1.5511 C.3        1 <1>        0.000
     21 C15        -4.2952    3.2575    0.4637 C.3        1 <1>        0.000
     22 C16        -0.5376   -4.0863   -0.8413 C.2        1 <1>        0.000
     23 O6         -1.5297    0.6623   -3.3467 O.3        1 <1>        0.000
     24 O7         -1.4755    0.4501   -1.1351 O.2        1 <1>        0.000
     25 C17        -2.9396    3.5648   -0.0961 C.3        1 <1>        0.000
     26 C18        -1.1131   -4.0425   -2.0551 C.2        1 <1>        0.000
     27 C21        -1.1193    1.7008   -4.2139 C.3        1 <1>        0.000
     28 C22        -0.7699   -3.5597   -3.3718 C.2        1 <1>        0.000
     29 C24         0.3274    1.6370   -4.6312 C.3        1 <1>        0.000
     30 C25         0.4464   -3.6526   -3.9580 C.2        1 <1>        0.000
     31 O8          1.8864    3.3934   -4.9113 O.2        1 <1>        0.000
     32 C32         2.3877   -3.6140   -2.4139 C.2        1 <1>        0.000
     33 C35         2.7751    2.8692   -2.0714 C.2        1 <1>        0.000
     34 C37         3.6033   -3.9790   -1.6378 C.3        1 <1>        0.000
     35 C40         3.2258    2.1721   -1.0160 C.2        1 <1>        0.000
     36 C41         3.6894   -3.2703   -0.2966 C.3        1 <1>        0.000
     37 C44         2.5229    1.2923   -0.0338 C.3        1 <1>        0.000
     38 C46         4.1557   -1.8391   -0.2205 C.3        1 <1>        0.000
     39 C48         2.2040   -0.0967   -0.5080 C.3        1 <1>        0.000
     40 C49         3.3828   -0.8501   -1.0565 C.2        1 <1>        0.000
     41 O13         3.7173   -0.6592   -2.2322 O.2        1 <1>        0.000
     42 H          -2.9430    0.1101    0.9315 H.spc      1 <1>        0.000
     43 H          -5.2503   -0.9303    1.5600 H.spc      1 <1>        0.000
     44 H          -4.0040   -0.4820    2.8519 H.spc      1 <1>        0.000
     45 H          -1.5330   -2.3220    3.0183 H.spc      1 <1>        0.000
     46 H          -0.2193   -5.4499    0.7080 H.spc      1 <1>        0.000
     47 H          -1.9583   -4.9001    0.4550 H.spc      1 <1>        0.000
     48 H          -5.2419   -3.0080    2.1247 H.spc      1 <1>        0.000
     49 H          -4.4762   -2.4088    3.6917 H.spc      1 <1>        0.000
     50 H           0.0155   -2.9645    1.3168 H.spc      1 <1>        0.000
     51 H          -0.6273   -4.2931    2.5248 H.spc      1 <1>        0.000
     52 H          -3.0438   -3.9824    3.2974 H.spc      1 <1>        0.000
     53 H          -3.4374   -4.0232    1.4911 H.spc      1 <1>        0.000
     54 H          -3.8554    1.8963   -2.8163 H.spc      1 <1>        0.000
     55 H          -5.6540    2.5138   -0.8979 H.spc      1 <1>        0.000
     56 H          -5.3352    1.4868    0.6544 H.spc      1 <1>        0.000
     57 H           1.9646   -5.1853   -3.7011 H.spc      1 <1>        0.000
     58 H           1.0461    3.9759   -2.4320 H.spc      1 <1>        0.000
     59 H           0.8080    2.1811   -2.1047 H.spc      1 <1>        0.000
     60 H          -1.7440    3.2556   -1.7915 H.spc      1 <1>        0.000
     61 H          -3.4449    3.8849   -2.1065 H.spc      1 <1>        0.000
     62 H          -4.1665    3.0228    1.5203 H.spc      1 <1>        0.000
     63 H          -4.9277    4.1266    0.2828 H.spc      1 <1>        0.000
     64 H           0.4419   -3.6081   -0.8363 H.spc      1 <1>        0.000
     65 H          -2.7805    4.6396   -0.0085 H.spc      1 <1>        0.000
     66 H          -2.2096    2.9785    0.4620 H.spc      1 <1>        0.000
     67 H          -2.1058   -4.4924   -2.0419 H.spc      1 <1>        0.000
     68 H          -1.7159    1.6108   -5.1217 H.spc      1 <1>        0.000
     69 H          -1.2527    2.6376   -3.6729 H.spc      1 <1>        0.000
     70 H          -1.5614   -3.0771   -3.9452 H.spc      1 <1>        0.000
     71 H           0.7052    0.6952   -4.2332 H.spc      1 <1>        0.000
     72 H           0.3252    1.7634   -5.7138 H.spc      1 <1>        0.000
     73 H           0.5336   -3.2784   -4.9780 H.spc      1 <1>        0.000
     74 H           2.0126   -2.6250   -2.1507 H.spc      1 <1>        0.000
     75 H           3.5252    3.4500   -2.6082 H.spc      1 <1>        0.000
     76 H           4.4725   -3.6830   -2.2252 H.spc      1 <1>        0.000
     77 H           3.5630   -5.0509   -1.4440 H.spc      1 <1>        0.000
     78 H           4.2983    2.2647   -0.8448 H.spc      1 <1>        0.000
     79 H           4.4442   -3.8297    0.2561 H.spc      1 <1>        0.000
     80 H           2.6592   -3.2376    0.0578 H.spc      1 <1>        0.000
     81 H           1.5670    1.7713    0.1781 H.spc      1 <1>        0.000
     82 H           3.1975    1.1795    0.8149 H.spc      1 <1>        0.000
     83 H           5.1779   -1.8285   -0.5987 H.spc      1 <1>        0.000
     84 H           4.0293   -1.5295    0.8169 H.spc      1 <1>        0.000
     85 H           1.4805   -0.0005   -1.3176 H.spc      1 <1>        0.000
     86 H           1.8410   -0.6544    0.3553 H.spc      1 <1>        0.000
@<TRIPOS>BOND
     1   20   25 1  
     2   15   21 1  
     3   19   24 2  
     4   10   15 1  
     5   19   23 1  
     6   14   19 1  
     7    8   22 1  
     8   10   14 1  
     9   14   20 1  
    10   12    8 1  
    11   16   31 2  
    12   17   32 2  
    13   18   33 1  
    14   32   34 1  
    15   33   35 2  
    16   34   36 1  
    17   35   37 1  
    18   36   38 1  
    19   37   39 1  
    20   16   18 1  
    21   30   17 1  
    22   29   16 1  
    23   28   30 2  
    24   27   29 1  
    25   26   28 1  
    26    1    2 1  
    27    1    3 1  
    28    1    4 1  
    29   23   27 1  
    30    2    5 1  
    31   22   26 2  
    32    2    6 2  
    33    3    7 1  
    34    4    9 1  
    35    5   10 am 
    36    5   11 2  
    37   21   25 1  
    38    7   12 1  
    39    7   13 1  
    40    9   13 1  
    41   38   40 1  
    42   39   40 1  
    43   40   41 2  
    44    1   42 1  
    45    4   43 1  
    46    4   44 1  
    47    7   45 1  
    48    8   46 1  
    49    8   47 1  
    50    9   48 1  
    51    9   49 1  
    52   12   50 1  
    53   12   51 1  
    54   13   52 1  
    55   13   53 1  
    56   14   54 1  
    57   15   55 1  
    58   15   56 1  
    59   17   57 1  
    60   18   58 1  
    61   18   59 1  
    62   20   60 1  
    63   20   61 1  
    64   21   62 1  
    65   21   63 1  
    66   22   64 1  
    67   25   65 1  
    68   25   66 1  
    69   26   67 1  
    70   27   68 1  
    71   27   69 1  
    72   28   70 1  
    73   29   71 1  
    74   29   72 1  
    75   30   73 1  
    76   32   74 1  
    77   33   75 1  
    78   34   76 1  
    79   34   77 1  
    80   35   78 1  
    81   36   79 1  
    82   36   80 1  
    83   37   81 1  
    84   37   82 1  
    85   38   83 1  
    86   38   84 1  
    87   39   85 1  
    88   39   86 1  
# Name:          frag5-549-186/138278
# Creation time: Sat Jun  5 12:53:42 2010


@<TRIPOS>MOLECULE
frag5-549-186/138278
   86    88     1     1     1
SMALL
USER_CHARGES


@<TRIPOS>ATOM
      1 C1         -3.7311   -0.8418    0.4425 C.3        1 <1>        0.000
      2 C2         -4.1761   -0.6117   -1.0092 C.2        1 <1>        0.000
      3 O1         -2.6416   -1.6962    0.5294 O.3        1 <1>        0.000
      4 C3         -4.9062   -1.3194    1.2766 C.3        1 <1>        0.000
      5 C4         -4.7914    0.7559   -1.2996 C.2        1 <1>        0.000
      6 O3         -4.1221   -1.3481   -1.9881 O.2        1 <1>        0.000
      7 C5         -2.6027   -3.0305    0.9071 C.3        1 <1>        0.000
      8 C12        -1.2443   -5.2300    0.6864 C.3        1 <1>        0.000
      9 C6         -5.1442   -2.8067    1.2351 C.3        1 <1>        0.000
     10 N1         -4.1684    1.8170   -0.6989 N.am       1 <1>        0.000
     11 O4         -5.8382    0.7039   -1.9308 O.2        1 <1>        0.000
     12 C8         -1.4738   -3.7959    0.2700 C.3        1 <1>        0.000
     13 C9         -3.9815   -3.6560    0.7688 C.3        1 <1>        0.000
     14 C10        -3.1069    2.6145   -1.3745 C.3        1 <1>        0.000
     15 C11        -4.8575    2.5000    0.3872 C.3        1 <1>        0.000
     16 C28         1.1956    4.1949   -3.7571 C.2        1 <1>        0.000
     17 C29         2.9444   -6.5310   -0.7915 C.2        1 <1>        0.000
     18 C31         1.8472    3.0236   -4.4418 C.3        1 <1>        0.000
     19 C13        -1.8873    1.7715   -1.8542 C.2        1 <1>        0.000
     20 C14        -2.4947    3.7340   -0.5454 C.3        1 <1>        0.000
     21 C15        -4.0417    3.2874    1.3797 C.3        1 <1>        0.000
     22 C16        -0.2285   -5.8733   -0.1857 C.2        1 <1>        0.000
     23 O6         -1.0496    2.0614   -2.8613 O.3        1 <1>        0.000
     24 O7         -1.6227    0.7595   -1.1935 O.2        1 <1>        0.000
     25 C17        -2.6204    3.5392    0.9428 C.3        1 <1>        0.000
     26 C18        -0.0886   -7.1012   -0.6833 C.2        1 <1>        0.000
     27 C21        -1.2301    3.1238   -3.7727 C.3        1 <1>        0.000
     28 C22         0.8897   -7.7766   -1.5081 C.2        1 <1>        0.000
     29 C24        -0.2996    4.2902   -3.5454 C.3        1 <1>        0.000
     30 C25         2.2090   -7.5298   -1.5524 C.2        1 <1>        0.000
     31 O8          1.8850    5.1582   -3.3822 O.2        1 <1>        0.000
     32 C32         2.9689   -5.2147   -1.0960 C.2        1 <1>        0.000
     33 C35         3.1867    2.7611   -3.8610 C.2        1 <1>        0.000
     34 C37         3.5818   -4.0031   -0.4981 C.3        1 <1>        0.000
     35 C40         3.5310    2.3181   -2.6441 C.2        1 <1>        0.000
     36 C41         2.7471   -2.7390   -0.7147 C.3        1 <1>        0.000
     37 C44         2.6777    1.9276   -1.4920 C.3        1 <1>        0.000
     38 C46         3.4289   -1.3981   -0.7495 C.3        1 <1>        0.000
     39 C48         1.9945    0.5999   -1.6490 C.3        1 <1>        0.000
     40 C49         2.9226   -0.5576   -1.8870 C.2        1 <1>        0.000
     41 O13         3.2614   -0.8379   -3.0434 O.2        1 <1>        0.000
     42 H          -3.3913    0.1107    0.8491 H.spc      1 <1>        0.000
     43 H          -5.7985   -0.8437    0.8696 H.spc      1 <1>        0.000
     44 H          -4.6855   -1.0621    2.3125 H.spc      1 <1>        0.000
     45 H          -2.3534   -3.0870    1.9667 H.spc      1 <1>        0.000
     46 H          -0.8858   -5.2452    1.7156 H.spc      1 <1>        0.000
     47 H          -2.1827   -5.7774    0.5976 H.spc      1 <1>        0.000
     48 H          -5.9465   -2.9668    0.5149 H.spc      1 <1>        0.000
     49 H          -5.3514   -3.1108    2.2611 H.spc      1 <1>        0.000
     50 H          -1.7270   -3.8453   -0.7890 H.spc      1 <1>        0.000
     51 H          -0.5688   -3.2661    0.5673 H.spc      1 <1>        0.000
     52 H          -3.9792   -4.5451    1.3993 H.spc      1 <1>        0.000
     53 H          -4.1349   -3.8270   -0.2967 H.spc      1 <1>        0.000
     54 H          -3.6769    3.0255   -2.2077 H.spc      1 <1>        0.000
     55 H          -5.4968    3.2355   -0.1010 H.spc      1 <1>        0.000
     56 H          -5.3241    1.7061    0.9704 H.spc      1 <1>        0.000
     57 H           3.5105   -6.8653    0.0779 H.spc      1 <1>        0.000
     58 H           1.2226    2.1409   -4.3043 H.spc      1 <1>        0.000
     59 H           1.9594    3.2509   -5.5019 H.spc      1 <1>        0.000
     60 H          -1.4301    3.7611   -0.7776 H.spc      1 <1>        0.000
     61 H          -3.0298    4.6498   -0.7963 H.spc      1 <1>        0.000
     62 H          -3.9988    2.7031    2.2989 H.spc      1 <1>        0.000
     63 H          -4.5218    4.2593    1.4942 H.spc      1 <1>        0.000
     64 H           0.5732   -5.1967   -0.4816 H.spc      1 <1>        0.000
     65 H          -2.2777    4.4522    1.4296 H.spc      1 <1>        0.000
     66 H          -2.0268    2.6672    1.2172 H.spc      1 <1>        0.000
     67 H          -0.9119   -7.7569   -0.4000 H.spc      1 <1>        0.000
     68 H          -1.0235    2.7341   -4.7695 H.spc      1 <1>        0.000
     69 H          -2.2481    3.4916   -3.6440 H.spc      1 <1>        0.000
     70 H           0.5177   -8.5667   -2.1604 H.spc      1 <1>        0.000
     71 H          -0.6142    5.0127   -4.2985 H.spc      1 <1>        0.000
     72 H          -0.3901    4.4787   -2.4757 H.spc      1 <1>        0.000
     73 H           2.7943   -8.1465   -2.2345 H.spc      1 <1>        0.000
     74 H           2.4014   -4.9885   -1.9987 H.spc      1 <1>        0.000
     75 H           4.0237    2.9601   -4.5303 H.spc      1 <1>        0.000
     76 H           4.5477   -3.8487   -0.9791 H.spc      1 <1>        0.000
     77 H           3.6608   -4.1678    0.5765 H.spc      1 <1>        0.000
     78 H           4.6039    2.2306   -2.4727 H.spc      1 <1>        0.000
     79 H           2.0871   -2.6914    0.1515 H.spc      1 <1>        0.000
     80 H           2.3186   -2.8575   -1.7099 H.spc      1 <1>        0.000
     81 H           1.8956    2.6815   -1.4029 H.spc      1 <1>        0.000
     82 H           3.3299    1.8511   -0.6220 H.spc      1 <1>        0.000
     83 H           4.4989   -1.5563   -0.8845 H.spc      1 <1>        0.000
     84 H           3.2202   -0.8784    0.1856 H.spc      1 <1>        0.000
     85 H           1.3498    0.6757   -2.5246 H.spc      1 <1>        0.000
     86 H           1.4699    0.3999   -0.7147 H.spc      1 <1>        0.000
@<TRIPOS>BOND
     1   20   25 1  
     2   15   21 1  
     3   19   24 2  
     4   10   15 1  
     5   19   23 1  
     6   14   19 1  
     7    8   22 1  
     8   10   14 1  
     9   14   20 1  
    10   12    8 1  
    11   16   31 2  
    12   17   32 2  
    13   18   33 1  
    14   32   34 1  
    15   33   35 2  
    16   34   36 1  
    17   35   37 1  
    18   36   38 1  
    19   37   39 1  
    20   16   18 1  
    21   30   17 1  
    22   29   16 1  
    23   28   30 2  
    24   27   29 1  
    25   26   28 1  
    26    1    2 1  
    27    1    3 1  
    28    1    4 1  
    29   23   27 1  
    30    2    5 1  
    31   22   26 2  
    32    2    6 2  
    33    3    7 1  
    34    4    9 1  
    35    5   10 am 
    36    5   11 2  
    37   21   25 1  
    38    7   12 1  
    39    7   13 1  
    40    9   13 1  
    41   38   40 1  
    42   39   40 1  
    43   40   41 2  
    44    1   42 1  
    45    4   43 1  
    46    4   44 1  
    47    7   45 1  
    48    8   46 1  
    49    8   47 1  
    50    9   48 1  
    51    9   49 1  
    52   12   50 1  
    53   12   51 1  
    54   13   52 1  
    55   13   53 1  
    56   14   54 1  
    57   15   55 1  
    58   15   56 1  
    59   17   57 1  
    60   18   58 1  
    61   18   59 1  
    62   20   60 1  
    63   20   61 1  
    64   21   62 1  
    65   21   63 1  
    66   22   64 1  
    67   25   65 1  
    68   25   66 1  
    69   26   67 1  
    70   27   68 1  
    71   27   69 1  
    72   28   70 1  
    73   29   71 1  
    74   29   72 1  
    75   30   73 1  
    76   32   74 1  
    77   33   75 1  
    78   34   76 1  
    79   34   77 1  
    80   35   78 1  
    81   36   79 1  
    82   36   80 1  
    83   37   81 1  
    84   37   82 1  
    85   38   83 1  
    86   38   84 1  
    87   39   85 1  
    88   39   86 1  
# Name:          frag5-549-186/138278
# Creation time: Sat Jun  5 12:53:42 2010


@<TRIPOS>MOLECULE
frag5-549-186/138278
   86    88     1     1     1
SMALL
USER_CHARGES


@<TRIPOS>ATOM
      1 C1         -3.8269   -0.7553    0.3508 C.3        1 <1>        0.000
      2 C2         -3.8681   -0.2820   -1.1063 C.2        1 <1>        0.000
      3 O1         -2.8018   -1.6437    0.6214 O.3        1 <1>        0.000
      4 C3         -5.1783   -1.3547    0.7006 C.3        1 <1>        0.000
      5 C4         -4.7485    0.9503   -1.3113 C.2        1 <1>        0.000
      6 O3         -3.3392   -0.7046   -2.1263 O.2        1 <1>        0.000
      7 C5         -2.8908   -3.0258    0.6581 C.3        1 <1>        0.000
      8 C12        -1.5728   -5.2203    0.4559 C.3        1 <1>        0.000
      9 C6         -5.3704   -2.7228    0.0939 C.3        1 <1>        0.000
     10 N1         -4.5130    1.9656   -0.4251 N.am       1 <1>        0.000
     11 O4         -5.6270    0.7852   -2.1454 O.2        1 <1>        0.000
     12 C8         -1.5788   -3.7077    0.3817 C.3        1 <1>        0.000
     13 C9         -4.0855   -3.4892   -0.1642 C.3        1 <1>        0.000
     14 C10        -3.3326    2.8366   -0.4060 C.3        1 <1>        0.000
     15 C11        -5.5617    2.3866    0.4653 C.3        1 <1>        0.000
     16 C28         0.9169    3.0261   -3.5948 C.2        1 <1>        0.000
     17 C29         2.9096   -5.8595   -0.4106 C.2        1 <1>        0.000
     18 C31         0.8450    1.5176   -3.8292 C.3        1 <1>        0.000
     19 C13        -2.1137    2.1218   -0.9577 C.2        1 <1>        0.000
     20 C14        -2.9864    3.5022    0.9135 C.3        1 <1>        0.000
     21 C15        -5.5005    3.7734    1.0371 C.3        1 <1>        0.000
     22 C16        -0.4702   -5.8552   -0.2731 C.2        1 <1>        0.000
     23 O6         -1.7071    2.4000   -2.1991 O.3        1 <1>        0.000
     24 O7         -1.5465    1.2564   -0.3032 O.2        1 <1>        0.000
     25 C17        -4.1621    4.1108    1.6434 C.3        1 <1>        0.000
     26 C18         0.1036   -7.0548   -0.1816 C.2        1 <1>        0.000
     27 C21        -1.1162    3.6612   -2.3467 C.3        1 <1>        0.000
     28 C22         1.2060   -7.6397   -0.8626 C.2        1 <1>        0.000
     29 C24         0.3745    3.5981   -2.3268 C.3        1 <1>        0.000
     30 C25         2.4429   -7.1193   -0.9562 C.2        1 <1>        0.000
     31 O8          1.3844    3.8017   -4.4371 O.2        1 <1>        0.000
     32 C32         2.5837   -4.6669   -0.9176 C.2        1 <1>        0.000
     33 C35         1.9641    1.0646   -4.6966 C.2        1 <1>        0.000
     34 C37         2.8278   -3.2142   -0.6836 C.3        1 <1>        0.000
     35 C40         3.2920    1.1344   -4.5040 C.2        1 <1>        0.000
     36 C41         3.3569   -2.6234   -1.9741 C.3        1 <1>        0.000
     37 C44         4.0631    1.6661   -3.3373 C.3        1 <1>        0.000
     38 C46         3.3982   -1.1589   -2.2877 C.3        1 <1>        0.000
     39 C48         5.1427    0.7604   -2.7973 C.3        1 <1>        0.000
     40 C49         4.6645   -0.4124   -1.9575 C.2        1 <1>        0.000
     41 O13         5.3446   -0.7657   -0.9877 O.2        1 <1>        0.000
     42 H          -3.6179    0.1125    0.9764 H.spc      1 <1>        0.000
     43 H          -5.9529   -0.6973    0.3058 H.spc      1 <1>        0.000
     44 H          -5.2345   -1.4539    1.7846 H.spc      1 <1>        0.000
     45 H          -3.0970   -3.3518    1.6776 H.spc      1 <1>        0.000
     46 H          -1.4604   -5.4897    1.5061 H.spc      1 <1>        0.000
     47 H          -2.5004   -5.5677    0.0010 H.spc      1 <1>        0.000
     48 H          -5.8517   -2.5761   -0.8730 H.spc      1 <1>        0.000
     49 H          -5.9504   -3.3076    0.8078 H.spc      1 <1>        0.000
     50 H          -1.3189   -3.4555   -0.6464 H.spc      1 <1>        0.000
     51 H          -0.8923   -3.3654    1.1561 H.spc      1 <1>        0.000
     52 H          -4.2752   -4.5271    0.1096 H.spc      1 <1>        0.000
     53 H          -3.8286   -3.3333   -1.2120 H.spc      1 <1>        0.000
     54 H          -3.6313    3.6606   -1.0540 H.spc      1 <1>        0.000
     55 H          -6.4714    2.3652   -0.1348 H.spc      1 <1>        0.000
     56 H          -5.4910    1.7201    1.3249 H.spc      1 <1>        0.000
     57 H           3.5626   -5.8868    0.4617 H.spc      1 <1>        0.000
     58 H           0.9169    1.0086   -2.8680 H.spc      1 <1>        0.000
     59 H          -0.0987    1.2829   -4.3216 H.spc      1 <1>        0.000
     60 H          -2.5780    2.7269    1.5618 H.spc      1 <1>        0.000
     61 H          -2.2985    4.3167    0.6865 H.spc      1 <1>        0.000
     62 H          -6.2460    3.8358    1.8298 H.spc      1 <1>        0.000
     63 H          -5.6782    4.4740    0.2212 H.spc      1 <1>        0.000
     64 H          -0.0328   -5.2197   -1.0431 H.spc      1 <1>        0.000
     65 H          -4.0482    5.1937    1.5942 H.spc      1 <1>        0.000
     66 H          -4.1560    3.7106    2.6573 H.spc      1 <1>        0.000
     67 H          -0.3600   -7.7115    0.5545 H.spc      1 <1>        0.000
     68 H          -1.4233    4.0663   -3.3109 H.spc      1 <1>        0.000
     69 H          -1.4381    4.2838   -1.5119 H.spc      1 <1>        0.000
     70 H           1.0332   -8.5973   -1.3537 H.spc      1 <1>        0.000
     71 H           0.7607    4.6110   -2.2128 H.spc      1 <1>        0.000
     72 H           0.6812    2.9567   -1.5006 H.spc      1 <1>        0.000
     73 H           3.1766   -7.7110   -1.5036 H.spc      1 <1>        0.000
     74 H           1.9290   -4.7978   -1.7792 H.spc      1 <1>        0.000
     75 H           1.6596    0.6035   -5.6362 H.spc      1 <1>        0.000
     76 H           3.5494   -3.0753    0.1214 H.spc      1 <1>        0.000
     77 H           1.9038   -2.7166   -0.3890 H.spc      1 <1>        0.000
     78 H           3.8992    0.7448   -5.3211 H.spc      1 <1>        0.000
     79 H           2.6502   -3.0018   -2.7127 H.spc      1 <1>        0.000
     80 H           4.4143   -2.8853   -1.9360 H.spc      1 <1>        0.000
     81 H           3.3441    1.8041   -2.5298 H.spc      1 <1>        0.000
     82 H           4.5641    2.5696   -3.6849 H.spc      1 <1>        0.000
     83 H           2.6212   -0.7051   -1.6726 H.spc      1 <1>        0.000
     84 H           3.2891   -1.0874   -3.3699 H.spc      1 <1>        0.000
     85 H           5.7610    1.3751   -2.1432 H.spc      1 <1>        0.000
     86 H           5.6471    0.3327   -3.6638 H.spc      1 <1>        0.000
@<TRIPOS>BOND
     1   20   25 1  
     2   15   21 1  
     3   19   24 2  
     4   10   15 1  
     5   19   23 1  
     6   14   19 1  
     7    8   22 1  
     8   10   14 1  
     9   14   20 1  
    10   12    8 1  
    11   16   31 2  
    12   17   32 2  
    13   18   33 1  
    14   32   34 1  
    15   33   35 2  
    16   34   36 1  
    17   35   37 1  
    18   36   38 1  
    19   37   39 1  
    20   16   18 1  
    21   30   17 1  
    22   29   16 1  
    23   28   30 2  
    24   27   29 1  
    25   26   28 1  
    26    1    2 1  
    27    1    3 1  
    28    1    4 1  
    29   23   27 1  
    30    2    5 1  
    31   22   26 2  
    32    2    6 2  
    33    3    7 1  
    34    4    9 1  
    35    5   10 am 
    36    5   11 2  
    37   21   25 1  
    38    7   12 1  
    39    7   13 1  
    40    9   13 1  
    41   38   40 1  
    42   39   40 1  
    43   40   41 2  
    44    1   42 1  
    45    4   43 1  
    46    4   44 1  
    47    7   45 1  
    48    8   46 1  
    49    8   47 1  
    50    9   48 1  
    51    9   49 1  
    52   12   50 1  
    53   12   51 1  
    54   13   52 1  
    55   13   53 1  
    56   14   54 1  
    57   15   55 1  
    58   15   56 1  
    59   17   57 1  
    60   18   58 1  
    61   18   59 1  
    62   20   60 1  
    63   20   61 1  
    64   21   62 1  
    65   21   63 1  
    66   22   64 1  
    67   25   65 1  
    68   25   66 1  
    69   26   67 1  
    70   27   68 1  
    71   27   69 1  
    72   28   70 1  
    73   29   71 1  
    74   29   72 1  
    75   30   73 1  
    76   32   74 1  
    77   33   75 1  
    78   34   76 1  
    79   34   77 1  
    80   35   78 1  
    81   36   79 1  
    82   36   80 1  
    83   37   81 1  
    84   37   82 1  
    85   38   83 1  
    86   38   84 1  
    87   39   85 1  
    88   39   86 1  
# Name:          frag5-549-186/138278
# Creation time: Sat Jun  5 12:53:42 2010


@<TRIPOS>MOLECULE
frag5-549-186/138278
   86    88     1     1     1
SMALL
USER_CHARGES


@<TRIPOS>ATOM
      1 C1         -3.6300   -0.7231    0.1169 C.3        1 <1>        0.000
      2 C2         -3.1555   -0.2900   -1.2819 C.2        1 <1>        0.000
      3 O1         -2.6529   -1.4388    0.7838 O.3        1 <1>        0.000
      4 C3         -4.9230   -1.5025    0.0163 C.3        1 <1>        0.000
      5 C4         -3.9812    0.8328   -1.8967 C.2        1 <1>        0.000
      6 O3         -2.2461   -0.6891   -1.9983 O.2        1 <1>        0.000
      7 C5         -2.5581   -2.8084    0.9528 C.3        1 <1>        0.000
      8 C12        -0.9945   -4.7176    1.6969 C.3        1 <1>        0.000
      9 C6         -4.7215   -2.9341   -0.4285 C.3        1 <1>        0.000
     10 N1         -4.2239    1.9147   -1.0895 N.am       1 <1>        0.000
     11 O4         -4.4395    0.5244   -2.9894 O.2        1 <1>        0.000
     12 C8         -1.1502   -3.2997    1.1867 C.3        1 <1>        0.000
     13 C9         -3.3485   -3.5191   -0.1426 C.3        1 <1>        0.000
     14 C10        -3.2531    2.9529   -0.6656 C.3        1 <1>        0.000
     15 C11        -5.5968    2.1998   -0.7591 C.3        1 <1>        0.000
     16 C28         1.9384    3.5871   -1.7338 C.2        1 <1>        0.000
     17 C29         3.0381   -5.4483   -0.5410 C.2        1 <1>        0.000
     18 C31         1.6146    2.7835   -2.9766 C.3        1 <1>        0.000
     19 C13        -1.8720    2.4060   -0.3373 C.2        1 <1>        0.000
     20 C14        -3.6397    3.8322    0.5165 C.3        1 <1>        0.000
     21 C15        -5.9983    3.5932   -0.3824 C.3        1 <1>        0.000
     22 C16         0.0163   -5.5295    0.9812 C.2        1 <1>        0.000
     23 O6         -0.7181    2.9349   -0.7143 O.3        1 <1>        0.000
     24 O7         -1.8064    1.4021    0.3758 O.2        1 <1>        0.000
     25 C17        -5.0896    4.2261    0.6314 C.3        1 <1>        0.000
     26 C18         0.9126   -6.4086    1.4276 C.2        1 <1>        0.000
     27 C21        -0.4789    4.1989   -1.2748 C.3        1 <1>        0.000
     28 C22         1.9353   -7.1947    0.8165 C.2        1 <1>        0.000
     29 C24         0.9670    4.6032   -1.1801 C.3        1 <1>        0.000
     30 C25         2.8783   -6.7781   -0.0301 C.2        1 <1>        0.000
     31 O8          3.0262    3.4335   -1.1662 O.2        1 <1>        0.000
     32 C32         2.2893   -4.8661   -1.4767 C.2        1 <1>        0.000
     33 C35         1.0423    1.4435   -2.6901 C.2        1 <1>        0.000
     34 C37         2.3218   -3.4931   -2.0458 C.3        1 <1>        0.000
     35 C40         0.9607    0.3792   -3.4980 C.2        1 <1>        0.000
     36 C41         1.8947   -3.3741   -3.4976 C.3        1 <1>        0.000
     37 C44         1.4365    0.2335   -4.8959 C.3        1 <1>        0.000
     38 C46         2.8027   -2.7288   -4.5093 C.3        1 <1>        0.000
     39 C48         2.8841   -0.1573   -5.0102 C.3        1 <1>        0.000
     40 C49         3.3195   -1.3477   -4.2009 C.2        1 <1>        0.000
     41 O13         4.1220   -1.1898   -3.2747 O.2        1 <1>        0.000
     42 H          -3.8215    0.1741    0.7055 H.spc      1 <1>        0.000
     43 H          -5.5489   -1.0100   -0.7278 H.spc      1 <1>        0.000
     44 H          -5.3737   -1.5248    1.0085 H.spc      1 <1>        0.000
     45 H          -3.0343   -3.0820    1.8943 H.spc      1 <1>        0.000
     46 H          -0.6656   -4.6459    2.7336 H.spc      1 <1>        0.000
     47 H          -1.9554   -5.2119    1.5541 H.spc      1 <1>        0.000
     48 H          -4.8441   -2.9434   -1.5115 H.spc      1 <1>        0.000
     49 H          -5.4385   -3.5368    0.1289 H.spc      1 <1>        0.000
     50 H          -0.6610   -3.2777    0.2129 H.spc      1 <1>        0.000
     51 H          -0.7348   -2.6563    1.9623 H.spc      1 <1>        0.000
     52 H          -3.5077   -4.5421    0.1983 H.spc      1 <1>        0.000
     53 H          -2.7689   -3.4233   -1.0607 H.spc      1 <1>        0.000
     54 H          -3.2525    3.5676   -1.5658 H.spc      1 <1>        0.000
     55 H          -6.1479    1.9944   -1.6768 H.spc      1 <1>        0.000
     56 H          -5.7924    1.6072    0.1346 H.spc      1 <1>        0.000
     57 H           3.8518   -4.8555   -0.1231 H.spc      1 <1>        0.000
     58 H           0.8678    3.3426   -3.5404 H.spc      1 <1>        0.000
     59 H           2.5485    2.6298   -3.5173 H.spc      1 <1>        0.000
     60 H          -3.4194    3.2454    1.4083 H.spc      1 <1>        0.000
     61 H          -3.0879    4.7633    0.3876 H.spc      1 <1>        0.000
     62 H          -6.9935    3.5389    0.0589 H.spc      1 <1>        0.000
     63 H          -5.9549    4.2017   -1.2857 H.spc      1 <1>        0.000
     64 H           0.0293   -5.3823   -0.0987 H.spc      1 <1>        0.000
     65 H          -5.1379    5.3030    0.4700 H.spc      1 <1>        0.000
     66 H          -5.4303    3.8936    1.6119 H.spc      1 <1>        0.000
     67 H           0.8507   -6.5625    2.5049 H.spc      1 <1>        0.000
     68 H          -0.7491    4.1568   -2.3299 H.spc      1 <1>        0.000
     69 H          -1.0705    4.9299   -0.7237 H.spc      1 <1>        0.000
     70 H           1.9471   -8.2547    1.0701 H.spc      1 <1>        0.000
     71 H           1.0839    5.5117   -1.7710 H.spc      1 <1>        0.000
     72 H           1.1970    4.7207   -0.1211 H.spc      1 <1>        0.000
     73 H           3.5992   -7.5231   -0.3669 H.spc      1 <1>        0.000
     74 H           1.5174   -5.5094   -1.8991 H.spc      1 <1>        0.000
     75 H           0.6343    1.3085   -1.6884 H.spc      1 <1>        0.000
     76 H           3.3600   -3.1641   -2.0008 H.spc      1 <1>        0.000
     77 H           1.6141   -2.9009   -1.4656 H.spc      1 <1>        0.000
     78 H           0.4791   -0.5003   -3.0707 H.spc      1 <1>        0.000
     79 H           1.0202   -2.7241   -3.4681 H.spc      1 <1>        0.000
     80 H           1.8048   -4.4061   -3.8368 H.spc      1 <1>        0.000
     81 H           1.3240    1.2040   -5.3791 H.spc      1 <1>        0.000
     82 H           0.8493   -0.5608   -5.3567 H.spc      1 <1>        0.000
     83 H           2.2044   -2.6224   -5.4142 H.spc      1 <1>        0.000
     84 H           3.6848   -3.3670   -4.5604 H.spc      1 <1>        0.000
     85 H           3.4576    0.6904   -4.6354 H.spc      1 <1>        0.000
     86 H           3.0443   -0.4255   -6.0545 H.spc      1 <1>        0.000
@<TRIPOS>BOND
     1   20   25 1  
     2   15   21 1  
     3   19   24 2  
     4   10   15 1  
     5   19   23 1  
     6   14   19 1  
     7    8   22 1  
     8   10   14 1  
     9   14   20 1  
    10   12    8 1  
    11   16   31 2  
    12   17   32 2  
    13   18   33 1  
    14   32   34 1  
    15   33   35 2  
    16   34   36 1  
    17   35   37 1  
    18   36   38 1  
    19   37   39 1  
    20   16   18 1  
    21   30   17 1  
    22   29   16 1  
    23   28   30 2  
    24   27   29 1  
    25   26   28 1  
    26    1    2 1  
    27    1    3 1  
    28    1    4 1  
    29   23   27 1  
    30    2    5 1  
    31   22   26 2  
    32    2    6 2  
    33    3    7 1  
    34    4    9 1  
    35    5   10 am 
    36    5   11 2  
    37   21   25 1  
    38    7   12 1  
    39    7   13 1  
    40    9   13 1  
    41   38   40 1  
    42   39   40 1  
    43   40   41 2  
    44    1   42 1  
    45    4   43 1  
    46    4   44 1  
    47    7   45 1  
    48    8   46 1  
    49    8   47 1  
    50    9   48 1  
    51    9   49 1  
    52   12   50 1  
    53   12   51 1  
    54   13   52 1  
    55   13   53 1  
    56   14   54 1  
    57   15   55 1  
    58   15   56 1  
    59   17   57 1  
    60   18   58 1  
    61   18   59 1  
    62   20   60 1  
    63   20   61 1  
    64   21   62 1  
    65   21   63 1  
    66   22   64 1  
    67   25   65 1  
    68   25   66 1  
    69   26   67 1  
    70   27   68 1  
    71   27   69 1  
    72   28   70 1  
    73   29   71 1  
    74   29   72 1  
    75   30   73 1  
    76   32   74 1  
    77   33   75 1  
    78   34   76 1  
    79   34   77 1  
    80   35   78 1  
    81   36   79 1  
    82   36   80 1  
    83   37   81 1  
    84   37   82 1  
    85   38   83 1  
    86   38   84 1  
    87   39   85 1  
    88   39   86 1  
# Name:          frag5-549-186/138278
# Creation time: Sat Jun  5 12:53:43 2010


@<TRIPOS>MOLECULE
frag5-549-186/138278
   86    88     1     1     1
SMALL
USER_CHARGES


@<TRIPOS>ATOM
      1 C1         -4.0182   -0.9998   -0.0233 C.3        1 <1>        0.000
      2 C2         -3.9480   -0.3434   -1.4141 C.2        1 <1>        0.000
      3 O1         -2.9985   -1.9071    0.2003 O.3        1 <1>        0.000
      4 C3         -5.4021   -1.6099    0.1642 C.3        1 <1>        0.000
      5 C4         -4.7200    0.9708   -1.5529 C.2        1 <1>        0.000
      6 O3         -3.3858   -0.6841   -2.4484 O.2        1 <1>        0.000
      7 C5         -3.0604   -3.2585    0.4791 C.3        1 <1>        0.000
      8 C12        -1.6508   -5.4217    0.9265 C.3        1 <1>        0.000
      9 C6         -5.5250   -3.0867   -0.1799 C.3        1 <1>        0.000
     10 N1         -4.4321    1.9273   -0.6066 N.am       1 <1>        0.000
     11 O4         -5.5918    0.9268   -2.4142 O.2        1 <1>        0.000
     12 C8         -1.7564   -4.0052    0.3597 C.3        1 <1>        0.000
     13 C9         -4.2351   -3.8702   -0.2579 C.3        1 <1>        0.000
     14 C10        -3.2668    2.8285   -0.6552 C.3        1 <1>        0.000
     15 C11        -5.5403    2.4534    0.1625 C.3        1 <1>        0.000
     16 C28         1.7428    4.0835   -2.9009 C.2        1 <1>        0.000
     17 C29         2.8968   -5.5891   -0.6365 C.2        1 <1>        0.000
     18 C31         1.3632    3.8353   -4.3496 C.3        1 <1>        0.000
     19 C13        -1.9741    2.0436   -0.8679 C.2        1 <1>        0.000
     20 C14        -3.0820    3.7719    0.5239 C.3        1 <1>        0.000
     21 C15        -5.2616    3.0142    1.5428 C.3        1 <1>        0.000
     22 C16        -0.2689   -5.9951    0.7363 C.2        1 <1>        0.000
     23 O6         -1.0373    2.3908   -1.7624 O.3        1 <1>        0.000
     24 O7         -1.7953    1.0426   -0.1681 O.2        1 <1>        0.000
     25 C17        -3.8167    3.3798    1.7843 C.3        1 <1>        0.000
     26 C18         0.7012   -6.3962    1.5810 C.2        1 <1>        0.000
     27 C21        -0.7119    3.7422   -1.9920 C.3        1 <1>        0.000
     28 C22         2.0191   -6.9319    1.3244 C.2        1 <1>        0.000
     29 C24         0.7374    4.0980   -1.7704 C.3        1 <1>        0.000
     30 C25         2.9171   -6.5943    0.3741 C.2        1 <1>        0.000
     31 O8          2.9200    4.3594   -2.6198 O.2        1 <1>        0.000
     32 C32         2.2303   -5.5101   -1.7860 C.2        1 <1>        0.000
     33 C35         2.1932    2.8894   -5.1372 C.2        1 <1>        0.000
     34 C37         2.1596   -4.4579   -2.8273 C.3        1 <1>        0.000
     35 C40         3.0498    1.8871   -4.8932 C.2        1 <1>        0.000
     36 C41         2.1574   -2.9703   -2.4646 C.3        1 <1>        0.000
     37 C44         3.5735    1.2155   -3.6629 C.3        1 <1>        0.000
     38 C46         3.4216   -2.3294   -1.9255 C.3        1 <1>        0.000
     39 C48         3.3747   -0.2829   -3.6424 C.3        1 <1>        0.000
     40 C49         3.9629   -1.0153   -2.4626 C.2        1 <1>        0.000
     41 O13         4.9812   -0.5578   -1.9219 O.2        1 <1>        0.000
     42 H          -3.8651   -0.2298    0.7329 H.spc      1 <1>        0.000
     43 H          -6.0681   -1.0784   -0.5155 H.spc      1 <1>        0.000
     44 H          -5.6378   -1.5197    1.2246 H.spc      1 <1>        0.000
     45 H          -3.2481   -3.3691    1.5471 H.spc      1 <1>        0.000
     46 H          -1.8625   -5.3814    1.9950 H.spc      1 <1>        0.000
     47 H          -2.3625   -6.0571    0.3995 H.spc      1 <1>        0.000
     48 H          -5.9647   -3.1290   -1.1764 H.spc      1 <1>        0.000
     49 H          -6.1038   -3.5374    0.6263 H.spc      1 <1>        0.000
     50 H          -1.5997   -4.1220   -0.7126 H.spc      1 <1>        0.000
     51 H          -1.0455   -3.4187    0.9417 H.spc      1 <1>        0.000
     52 H          -4.4278   -4.8361    0.2090 H.spc      1 <1>        0.000
     53 H          -3.9568   -3.9093   -1.3110 H.spc      1 <1>        0.000
     54 H          -3.4924    3.4713   -1.5061 H.spc      1 <1>        0.000
     55 H          -5.9144    3.2971   -0.4175 H.spc      1 <1>        0.000
     56 H          -6.2009    1.6025    0.3289 H.spc      1 <1>        0.000
     57 H           3.5410   -4.7340   -0.4317 H.spc      1 <1>        0.000
     58 H           0.3700    3.3877   -4.3149 H.spc      1 <1>        0.000
     59 H           1.4745    4.7992   -4.8462 H.spc      1 <1>        0.000
     60 H          -2.0194    3.7645    0.7665 H.spc      1 <1>        0.000
     61 H          -3.4821    4.7381    0.2167 H.spc      1 <1>        0.000
     62 H          -5.5209    2.2381    2.2629 H.spc      1 <1>        0.000
     63 H          -5.8450    3.9297    1.6410 H.spc      1 <1>        0.000
     64 H           0.0045   -6.1100   -0.3126 H.spc      1 <1>        0.000
     65 H          -3.8015    4.2384    2.4556 H.spc      1 <1>        0.000
     66 H          -3.3189    2.5022    2.1968 H.spc      1 <1>        0.000
     67 H           0.4495   -6.3005    2.6372 H.spc      1 <1>        0.000
     68 H          -0.9274    3.9430   -3.0414 H.spc      1 <1>        0.000
     69 H          -1.2917    4.3299   -1.2803 H.spc      1 <1>        0.000
     70 H           2.3353   -7.7275    1.9990 H.spc      1 <1>        0.000
     71 H           0.7030    5.1449   -1.4689 H.spc      1 <1>        0.000
     72 H           1.0945    3.3186   -1.0973 H.spc      1 <1>        0.000
     73 H           3.8226   -7.2010    0.3810 H.spc      1 <1>        0.000
     74 H           1.6199   -6.3867   -2.0029 H.spc      1 <1>        0.000
     75 H           2.0734    3.0552   -6.2078 H.spc      1 <1>        0.000
     76 H           1.1845   -4.6142   -3.2887 H.spc      1 <1>        0.000
     77 H           3.0842   -4.5867   -3.3899 H.spc      1 <1>        0.000
     78 H           3.4623    1.4606   -5.8075 H.spc      1 <1>        0.000
     79 H           1.4366   -2.8856   -1.6513 H.spc      1 <1>        0.000
     80 H           1.9679   -2.4567   -3.4072 H.spc      1 <1>        0.000
     81 H           3.0242    1.6244   -2.8148 H.spc      1 <1>        0.000
     82 H           4.6476    1.3978   -3.6295 H.spc      1 <1>        0.000
     83 H           4.1992   -3.0477   -2.1852 H.spc      1 <1>        0.000
     84 H           3.1643   -2.0932   -0.8930 H.spc      1 <1>        0.000
     85 H           3.8829   -0.6699   -4.5256 H.spc      1 <1>        0.000
     86 H           2.2981   -0.4470   -3.5971 H.spc      1 <1>        0.000
@<TRIPOS>BOND
     1   20   25 1  
     2   15   21 1  
     3   19   24 2  
     4   10   15 1  
     5   19   23 1  
     6   14   19 1  
     7    8   22 1  
     8   10   14 1  
     9   14   20 1  
    10   12    8 1  
    11   16   31 2  
    12   17   32 2  
    13   18   33 1  
    14   32   34 1  
    15   33   35 2  
    16   34   36 1  
    17   35   37 1  
    18   36   38 1  
    19   37   39 1  
    20   16   18 1  
    21   30   17 1  
    22   29   16 1  
    23   28   30 2  
    24   27   29 1  
    25   26   28 1  
    26    1    2 1  
    27    1    3 1  
    28    1    4 1  
    29   23   27 1  
    30    2    5 1  
    31   22   26 2  
    32    2    6 2  
    33    3    7 1  
    34    4    9 1  
    35    5   10 am 
    36    5   11 2  
    37   21   25 1  
    38    7   12 1  
    39    7   13 1  
    40    9   13 1  
    41   38   40 1  
    42   39   40 1  
    43   40   41 2  
    44    1   42 1  
    45    4   43 1  
    46    4   44 1  
    47    7   45 1  
    48    8   46 1  
    49    8   47 1  
    50    9   48 1  
    51    9   49 1  
    52   12   50 1  
    53   12   51 1  
    54   13   52 1  
    55   13   53 1  
    56   14   54 1  
    57   15   55 1  
    58   15   56 1  
    59   17   57 1  
    60   18   58 1  
    61   18   59 1  
    62   20   60 1  
    63   20   61 1  
    64   21   62 1  
    65   21   63 1  
    66   22   64 1  
    67   25   65 1  
    68   25   66 1  
    69   26   67 1  
    70   27   68 1  
    71   27   69 1  
    72   28   70 1  
    73   29   71 1  
    74   29   72 1  
    75   30   73 1  
    76   32   74 1  
    77   33   75 1  
    78   34   76 1  
    79   34   77 1  
    80   35   78 1  
    81   36   79 1  
    82   36   80 1  
    83   37   81 1  
    84   37   82 1  
    85   38   83 1  
    86   38   84 1  
    87   39   85 1  
    88   39   86 1  
# Name:          frag5-549-186/138278
# Creation time: Sat Jun  5 12:53:43 2010


@<TRIPOS>MOLECULE
frag5-549-186/138278
   86    88     1     1     1
SMALL
USER_CHARGES


@<TRIPOS>ATOM
      1 C1         -3.5498   -0.7756    0.2828 C.3        1 <1>        0.000
      2 C2         -4.3280   -0.3446   -0.9681 C.2        1 <1>        0.000
      3 O1         -2.5704   -1.7181    0.0166 O.3        1 <1>        0.000
      4 C3         -4.5408   -1.2621    1.3290 C.3        1 <1>        0.000
      5 C4         -5.0581    0.9940   -0.8233 C.2        1 <1>        0.000
      6 O3         -4.4751   -0.8874   -2.0566 O.2        1 <1>        0.000
      7 C5         -2.5749   -3.0612    0.3549 C.3        1 <1>        0.000
      8 C12        -1.3843   -5.3242    0.0777 C.3        1 <1>        0.000
      9 C6         -4.9684   -2.7039    1.1425 C.3        1 <1>        0.000
     10 N1         -4.3038    1.9911   -0.2542 N.am       1 <1>        0.000
     11 O4         -6.2440    0.9389   -1.1220 O.2        1 <1>        0.000
     12 C8         -1.5779   -3.9034   -0.3944 C.3        1 <1>        0.000
     13 C9         -3.9973   -3.5775    0.3773 C.3        1 <1>        0.000
     14 C10        -3.4016    2.8767   -1.0226 C.3        1 <1>        0.000
     15 C11        -4.7467    2.5234    1.0161 C.3        1 <1>        0.000
     16 C28         1.0676    3.5083   -4.4052 C.2        1 <1>        0.000
     17 C29         2.9814   -6.4125   -0.5354 C.2        1 <1>        0.000
     18 C31         2.5306    3.1023   -4.4819 C.3        1 <1>        0.000
     19 C13        -2.5266    2.1063   -2.0173 C.2        1 <1>        0.000
     20 C14        -2.4715    3.7872   -0.2329 C.3        1 <1>        0.000
     21 C15        -3.7756    3.3099    1.8498 C.3        1 <1>        0.000
     22 C16        -0.2414   -6.0049   -0.5655 C.2        1 <1>        0.000
     23 O6         -2.4836    2.4857   -3.3015 O.3        1 <1>        0.000
     24 O7         -1.8549    1.1541   -1.6148 O.2        1 <1>        0.000
     25 C17        -3.0198    4.3338    1.0561 C.3        1 <1>        0.000
     26 C18         0.0782   -7.2812   -0.8064 C.2        1 <1>        0.000
     27 C21        -1.3806    3.2655   -3.6927 C.3        1 <1>        0.000
     28 C22         1.2269   -7.9053   -1.4041 C.2        1 <1>        0.000
     29 C24         0.0284    2.7171   -3.6493 C.3        1 <1>        0.000
     30 C25         2.5195   -7.5452   -1.2824 C.2        1 <1>        0.000
     31 O8          0.7212    4.5292   -5.0183 O.2        1 <1>        0.000
     32 C32         3.0352   -5.1609   -1.0072 C.2        1 <1>        0.000
     33 C35         3.3080    3.0991   -3.2096 C.2        1 <1>        0.000
     34 C37         3.4103   -3.8648   -0.3990 C.3        1 <1>        0.000
     35 C40         3.3245    2.4672   -2.0261 C.2        1 <1>        0.000
     36 C41         2.4743   -2.7589   -0.8549 C.3        1 <1>        0.000
     37 C44         2.5352    1.4076   -1.3392 C.3        1 <1>        0.000
     38 C46         2.9150   -1.8709   -1.9878 C.3        1 <1>        0.000
     39 C48         3.3720    0.3432   -0.6719 C.3        1 <1>        0.000
     40 C49         3.8499   -0.7649   -1.5729 C.2        1 <1>        0.000
     41 O13         5.0196   -0.7704   -1.9704 O.2        1 <1>        0.000
     42 H          -3.0076    0.0887    0.6663 H.spc      1 <1>        0.000
     43 H          -5.4345   -0.6442    1.2424 H.spc      1 <1>        0.000
     44 H          -4.0497   -1.1916    2.2995 H.spc      1 <1>        0.000
     45 H          -2.1920   -3.1575    1.3709 H.spc      1 <1>        0.000
     46 H          -1.1865   -5.2907    1.1491 H.spc      1 <1>        0.000
     47 H          -2.2854   -5.8815   -0.1783 H.spc      1 <1>        0.000
     48 H          -5.8903   -2.6817    0.5614 H.spc      1 <1>        0.000
     49 H          -5.0532   -3.1342    2.1404 H.spc      1 <1>        0.000
     50 H          -1.9593   -3.9787   -1.4127 H.spc      1 <1>        0.000
     51 H          -0.6142   -3.4123   -0.2597 H.spc      1 <1>        0.000
     52 H          -3.9778   -4.5465    0.8760 H.spc      1 <1>        0.000
     53 H          -4.3421   -3.6094   -0.6562 H.spc      1 <1>        0.000
     54 H          -4.1305    3.5179   -1.5183 H.spc      1 <1>        0.000
     55 H          -5.5395    3.2284    0.7658 H.spc      1 <1>        0.000
     56 H          -4.9922    1.6488    1.6185 H.spc      1 <1>        0.000
     57 H           3.3122   -6.5822    0.4892 H.spc      1 <1>        0.000
     58 H           2.5319    2.0696   -4.8307 H.spc      1 <1>        0.000
     59 H           3.0099    3.8462   -5.1182 H.spc      1 <1>        0.000
     60 H          -1.6062    3.1813    0.0357 H.spc      1 <1>        0.000
     61 H          -2.2734    4.6488   -0.8705 H.spc      1 <1>        0.000
     62 H          -3.0509    2.6099    2.2656 H.spc      1 <1>        0.000
     63 H          -4.3449    3.8365    2.6157 H.spc      1 <1>        0.000
     64 H           0.5143   -5.3072   -0.9263 H.spc      1 <1>        0.000
     65 H          -3.7108    5.1397    0.8087 H.spc      1 <1>        0.000
     66 H          -2.1770    4.6682    1.6611 H.spc      1 <1>        0.000
     67 H          -0.6852   -7.9898   -0.4852 H.spc      1 <1>        0.000
     68 H          -1.5555    3.4515   -4.7524 H.spc      1 <1>        0.000
     69 H          -1.3662    4.0791   -2.9675 H.spc      1 <1>        0.000
     70 H           1.0283   -8.7744   -2.0312 H.spc      1 <1>        0.000
     71 H           0.3319    2.7334   -2.6025 H.spc      1 <1>        0.000
     72 H          -0.0103    1.7342   -4.1188 H.spc      1 <1>        0.000
     73 H           3.2662   -8.1581   -1.7873 H.spc      1 <1>        0.000
     74 H           2.7428   -5.0797   -2.0541 H.spc      1 <1>        0.000
     75 H           4.1091    3.8368   -3.2548 H.spc      1 <1>        0.000
     76 H           4.4250   -3.6139   -0.7081 H.spc      1 <1>        0.000
     77 H           3.3436   -3.9548    0.6852 H.spc      1 <1>        0.000
     78 H           4.1372    2.8277   -1.3955 H.spc      1 <1>        0.000
     79 H           2.3734   -2.0968    0.0051 H.spc      1 <1>        0.000
     80 H           1.5844   -3.2703   -1.2217 H.spc      1 <1>        0.000
     81 H           1.9334    0.9116   -2.1008 H.spc      1 <1>        0.000
     82 H           1.9550    1.8966   -0.5567 H.spc      1 <1>        0.000
     83 H           2.0204   -1.4012   -2.3967 H.spc      1 <1>        0.000
     84 H           3.4522   -2.4979   -2.6994 H.spc      1 <1>        0.000
     85 H           2.7383   -0.1220    0.0831 H.spc      1 <1>        0.000
     86 H           4.2641    0.8418   -0.2929 H.spc      1 <1>        0.000
@<TRIPOS>BOND
     1   20   25 1  
     2   15   21 1  
     3   19   24 2  
     4   10   15 1  
     5   19   23 1  
     6   14   19 1  
     7    8   22 1  
     8   10   14 1  
     9   14   20 1  
    10   12    8 1  
    11   16   31 2  
    12   17   32 2  
    13   18   33 1  
    14   32   34 1  
    15   33   35 2  
    16   34   36 1  
    17   35   37 1  
    18   36   38 1  
    19   37   39 1  
    20   16   18 1  
    21   30   17 1  
    22   29   16 1  
    23   28   30 2  
    24   27   29 1  
    25   26   28 1  
    26    1    2 1  
    27    1    3 1  
    28    1    4 1  
    29   23   27 1  
    30    2    5 1  
    31   22   26 2  
    32    2    6 2  
    33    3    7 1  
    34    4    9 1  
    35    5   10 am 
    36    5   11 2  
    37   21   25 1  
    38    7   12 1  
    39    7   13 1  
    40    9   13 1  
    41   38   40 1  
    42   39   40 1  
    43   40   41 2  
    44    1   42 1  
    45    4   43 1  
    46    4   44 1  
    47    7   45 1  
    48    8   46 1  
    49    8   47 1  
    50    9   48 1  
    51    9   49 1  
    52   12   50 1  
    53   12   51 1  
    54   13   52 1  
    55   13   53 1  
    56   14   54 1  
    57   15   55 1  
    58   15   56 1  
    59   17   57 1  
    60   18   58 1  
    61   18   59 1  
    62   20   60 1  
    63   20   61 1  
    64   21   62 1  
    65   21   63 1  
    66   22   64 1  
    67   25   65 1  
    68   25   66 1  
    69   26   67 1  
    70   27   68 1  
    71   27   69 1  
    72   28   70 1  
    73   29   71 1  
    74   29   72 1  
    75   30   73 1  
    76   32   74 1  
    77   33   75 1  
    78   34   76 1  
    79   34   77 1  
    80   35   78 1  
    81   36   79 1  
    82   36   80 1  
    83   37   81 1  
    84   37   82 1  
    85   38   83 1  
    86   38   84 1  
    87   39   85 1  
    88   39   86 1  
# Name:          frag5-549-186/138278 -- energy: -20.519173
# Creation time: Sat Jun  5 12:53:43 2010


@<TRIPOS>MOLECULE
frag5-549-186/138278 -- energy: -20.519173
   86    88     1     1     1
SMALL
USER_CHARGES


@<TRIPOS>ATOM
      1 C1         -3.4339   -1.0233    0.3797 C.3        1 <1>        0.000
      2 C2         -2.9340   -0.6785   -1.0313 C.2        1 <1>        0.000
      3 O1         -2.4657   -1.6633    1.1331 O.3        1 <1>        0.000
      4 C3         -4.7169   -1.8299    0.3106 C.3        1 <1>        0.000
      5 C4         -3.8156    0.3144   -1.7722 C.2        1 <1>        0.000
      6 O3         -1.9561   -1.0472   -1.6731 O.2        1 <1>        0.000
      7 C5         -2.3492   -3.0111    1.4355 C.3        1 <1>        0.000
      8 C12        -0.6670   -4.8541    2.1773 C.3        1 <1>        0.000
      9 C6         -4.5004   -3.3114    0.0778 C.3        1 <1>        0.000
     10 N1         -4.0661    1.4910   -1.1164 N.am       1 <1>        0.000
     11 O4         -4.2946   -0.1636   -2.7919 O.2        1 <1>        0.000
     12 C8         -0.9357   -3.4220    1.7742 C.3        1 <1>        0.000
     13 C9         -3.1097   -3.8317    0.4021 C.3        1 <1>        0.000
     14 C10        -3.1144    2.6062   -0.9200 C.3        1 <1>        0.000
     15 C11        -5.4338    1.7935   -0.7617 C.3        1 <1>        0.000
     16 C28         1.7133    4.7556   -2.8871 C.2        1 <1>        0.000
     17 C29         2.0789   -6.3593   -1.1121 C.2        1 <1>        0.000
     18 C31         1.8629    3.6931   -3.9473 C.3        1 <1>        0.000
     19 C13        -1.6941    2.1705   -0.5340 C.2        1 <1>        0.000
     20 C14        -3.5497    3.6824    0.0588 C.3        1 <1>        0.000
     21 C15        -5.9285    3.2121   -0.6829 C.3        1 <1>        0.000
     22 C16        -0.3054   -5.7467    1.0546 C.2        1 <1>        0.000
     23 O6         -0.5679    2.6516   -1.0827 O.3        1 <1>        0.000
     24 O7         -1.5817    1.3334    0.3620 O.2        1 <1>        0.000
     25 C17        -4.9308    4.2244   -0.1851 C.3        1 <1>        0.000
     26 C18         0.0803   -7.0249    1.0085 C.2        1 <1>        0.000
     27 C21        -0.5041    3.8373   -1.8451 C.3        1 <1>        0.000
     28 C22         0.4800   -7.8898   -0.0621 C.2        1 <1>        0.000
     29 C24         0.7681    4.6412   -1.7167 C.3        1 <1>        0.000
     30 C25         1.3854   -7.6012   -1.0127 C.2        1 <1>        0.000
     31 O8          2.4406    5.7547   -2.9427 O.2        1 <1>        0.000
     32 C32         1.6016   -5.1995   -1.5819 C.2        1 <1>        0.000
     33 C35         3.1368    2.9674   -3.7446 C.2        1 <1>        0.000
     34 C37         2.2366   -3.8726   -1.6451 C.3        1 <1>        0.000
     35 C40         3.3832    1.9049   -2.9699 C.2        1 <1>        0.000
     36 C41         2.4533   -3.2615   -2.9980 C.3        1 <1>        0.000
     37 C44         2.4502    1.1575   -2.0874 C.3        1 <1>        0.000
     38 C46         3.1765   -1.9492   -2.9734 C.3        1 <1>        0.000
     39 C48         1.6195    0.1238   -2.7965 C.3        1 <1>        0.000
     40 C49         2.4278   -0.8317   -3.6317 C.2        1 <1>        0.000
     41 O13         2.4830   -0.6992   -4.8535 O.2        1 <1>        0.000
     42 H          -3.6525   -0.0857    0.8908 H.spc      1 <1>        0.000
     43 H          -5.2928   -1.4503   -0.5334 H.spc      1 <1>        0.000
     44 H          -5.2185   -1.7233    1.2724 H.spc      1 <1>        0.000
     45 H          -2.8441   -3.2379    2.3798 H.spc      1 <1>        0.000
     46 H           0.1816   -4.8403    2.8613 H.spc      1 <1>        0.000
     47 H          -1.5883   -5.2427    2.6112 H.spc      1 <1>        0.000
     48 H          -4.6539   -3.4826   -0.9877 H.spc      1 <1>        0.000
     49 H          -5.1885   -3.8328    0.7432 H.spc      1 <1>        0.000
     50 H          -0.3725   -3.2789    0.8520 H.spc      1 <1>        0.000
     51 H          -0.6726   -2.8291    2.6502 H.spc      1 <1>        0.000
     52 H          -3.2337   -4.8312    0.8189 H.spc      1 <1>        0.000
     53 H          -2.5326   -3.7927   -0.5217 H.spc      1 <1>        0.000
     54 H          -3.1082    3.0377   -1.9209 H.spc      1 <1>        0.000
     55 H          -6.0161    1.3590   -1.5742 H.spc      1 <1>        0.000
     56 H          -5.5248    1.4284    0.2613 H.spc      1 <1>        0.000
     57 H           3.1129   -6.3532   -0.7672 H.spc      1 <1>        0.000
     58 H           1.0311    2.9921   -3.8781 H.spc      1 <1>        0.000
     59 H           1.8646    4.1608   -4.9318 H.spc      1 <1>        0.000
     60 H          -3.5551    3.2291    1.0501 H.spc      1 <1>        0.000
     61 H          -2.8555    4.5153   -0.0530 H.spc      1 <1>        0.000
     62 H          -6.7518    3.2128    0.0314 H.spc      1 <1>        0.000
     63 H          -6.1857    3.5065   -1.7004 H.spc      1 <1>        0.000
     64 H          -0.3652   -5.2696    0.0764 H.spc      1 <1>        0.000
     65 H          -4.8394    4.9857   -0.9598 H.spc      1 <1>        0.000
     66 H          -5.3013    4.5887    0.7731 H.spc      1 <1>        0.000
     67 H           0.0938   -7.5091    1.9850 H.spc      1 <1>        0.000
     68 H          -0.5690    3.5327   -2.8897 H.spc      1 <1>        0.000
     69 H          -1.3081    4.4776   -1.4821 H.spc      1 <1>        0.000
     70 H           0.0069   -8.8706   -0.1098 H.spc      1 <1>        0.000
     71 H           0.4277    5.6618   -1.5420 H.spc      1 <1>        0.000
     72 H           1.3438    4.1181   -0.9531 H.spc      1 <1>        0.000
     73 H           1.6039   -8.3672   -1.7568 H.spc      1 <1>        0.000
     74 H           0.5873   -5.2448   -1.9784 H.spc      1 <1>        0.000
     75 H           3.9909    3.3510   -4.3027 H.spc      1 <1>        0.000
     76 H           3.2333   -4.0079   -1.2251 H.spc      1 <1>        0.000
     77 H           1.5526   -3.1990   -1.1289 H.spc      1 <1>        0.000
     78 H           4.4091    1.5370   -2.9886 H.spc      1 <1>        0.000
     79 H           1.4688   -3.0771   -3.4280 H.spc      1 <1>        0.000
     80 H           3.0692   -3.9564   -3.5688 H.spc      1 <1>        0.000
     81 H           1.7600    1.8857   -1.6613 H.spc      1 <1>        0.000
     82 H           3.0581    0.6303   -1.3521 H.spc      1 <1>        0.000
     83 H           4.1088   -2.0824   -3.5221 H.spc      1 <1>        0.000
     84 H           3.3151   -1.6749   -1.9276 H.spc      1 <1>        0.000
     85 H           0.9439    0.6531   -3.4684 H.spc      1 <1>        0.000
     86 H           1.1075   -0.4626   -2.0336 H.spc      1 <1>        0.000
@<TRIPOS>BOND
     1   20   25 1  
     2   15   21 1  
     3   19   24 2  
     4   10   15 1  
     5   19   23 1  
     6   14   19 1  
     7    8   22 1  
     8   10   14 1  
     9   14   20 1  
    10   12    8 1  
    11   16   31 2  
    12   17   32 2  
    13   18   33 1  
    14   32   34 1  
    15   33   35 2  
    16   34   36 1  
    17   35   37 1  
    18   36   38 1  
    19   37   39 1  
    20   16   18 1  
    21   30   17 1  
    22   29   16 1  
    23   28   30 2  
    24   27   29 1  
    25   26   28 1  
    26    1    2 1  
    27    1    3 1  
    28    1    4 1  
    29   23   27 1  
    30    2    5 1  
    31   22   26 2  
    32    2    6 2  
    33    3    7 1  
    34    4    9 1  
    35    5   10 am 
    36    5   11 2  
    37   21   25 1  
    38    7   12 1  
    39    7   13 1  
    40    9   13 1  
    41   38   40 1  
    42   39   40 1  
    43   40   41 2  
    44    1   42 1  
    45    4   43 1  
    46    4   44 1  
    47    7   45 1  
    48    8   46 1  
    49    8   47 1  
    50    9   48 1  
    51    9   49 1  
    52   12   50 1  
    53   12   51 1  
    54   13   52 1  
    55   13   53 1  
    56   14   54 1  
    57   15   55 1  
    58   15   56 1  
    59   17   57 1  
    60   18   58 1  
    61   18   59 1  
    62   20   60 1  
    63   20   61 1  
    64   21   62 1  
    65   21   63 1  
    66   22   64 1  
    67   25   65 1  
    68   25   66 1  
    69   26   67 1  
    70   27   68 1  
    71   27   69 1  
    72   28   70 1  
    73   29   71 1  
    74   29   72 1  
    75   30   73 1  
    76   32   74 1  
    77   33   75 1  
    78   34   76 1  
    79   34   77 1  
    80   35   78 1  
    81   36   79 1  
    82   36   80 1  
    83   37   81 1  
    84   37   82 1  
    85   38   83 1  
    86   38   84 1  
    87   39   85 1  
    88   39   86 1  
# Name:          frag5-549-186/138278 -- energy: -20.905750
# Creation time: Sat Jun  5 12:53:43 2010


@<TRIPOS>MOLECULE
frag5-549-186/138278 -- energy: -20.905750
   86    88     1     1     1
SMALL
USER_CHARGES


@<TRIPOS>ATOM
      1 C1         -3.5441   -0.4604    0.0901 C.3        1 <1>        0.000
      2 C2         -3.8793   -0.2391   -1.3927 C.2        1 <1>        0.000
      3 O1         -2.4406   -1.2833    0.2365 O.3        1 <1>        0.000
      4 C3         -4.7542   -1.0223    0.8190 C.3        1 <1>        0.000
      5 C4         -4.7518    0.9823   -1.6561 C.2        1 <1>        0.000
      6 O3         -3.5839   -0.8742   -2.3985 O.2        1 <1>        0.000
      7 C5         -2.4697   -2.6316    0.5526 C.3        1 <1>        0.000
      8 C12        -1.0050   -4.7003    0.8856 C.3        1 <1>        0.000
      9 C6         -4.9976   -2.4910    0.5302 C.3        1 <1>        0.000
     10 N1         -4.3874    2.0977   -0.9568 N.am       1 <1>        0.000
     11 O4         -5.7441    0.7275   -2.3254 O.2        1 <1>        0.000
     12 C8         -1.2004   -3.3561    0.2211 C.3        1 <1>        0.000
     13 C9         -3.7690   -3.2429    0.0541 C.3        1 <1>        0.000
     14 C10        -3.2301    2.9796   -1.2229 C.3        1 <1>        0.000
     15 C11        -5.2778    2.5564    0.0777 C.3        1 <1>        0.000
     16 C28         0.9472    3.1663   -1.5868 C.2        1 <1>        0.000
     17 C29         3.1724   -4.7783   -1.0507 C.2        1 <1>        0.000
     18 C31         1.8619    2.4651   -0.5989 C.3        1 <1>        0.000
     19 C13        -2.0687    2.2917   -1.9521 C.2        1 <1>        0.000
     20 C14        -2.6622    3.7513   -0.0324 C.3        1 <1>        0.000
     21 C15        -5.0721    3.9049    0.6916 C.3        1 <1>        0.000
     22 C16         0.3180   -5.2808    0.5678 C.2        1 <1>        0.000
     23 O6         -1.6151    2.8150   -3.1075 O.3        1 <1>        0.000
     24 O7         -1.5568    1.2935   -1.4403 O.2        1 <1>        0.000
     25 C17        -3.6352    4.1323    1.0573 C.3        1 <1>        0.000
     26 C18         1.4248   -5.2222    1.3057 C.2        1 <1>        0.000
     27 C21        -0.3965    2.3155   -3.6149 C.3        1 <1>        0.000
     28 C22         2.7910   -5.6468    1.1888 C.2        1 <1>        0.000
     29 C24         0.9061    2.8587   -3.0631 C.3        1 <1>        0.000
     30 C25         3.6054   -5.4392    0.1405 C.2        1 <1>        0.000
     31 O8          0.2082    4.0653   -1.1619 O.2        1 <1>        0.000
     32 C32         2.4263   -5.3631   -2.0020 C.2        1 <1>        0.000
     33 C35         1.5755    1.0214   -0.3352 C.2        1 <1>        0.000
     34 C37         1.7926   -4.9466   -3.2716 C.3        1 <1>        0.000
     35 C40         2.1300   -0.0423   -0.9497 C.2        1 <1>        0.000
     36 C41         1.7309   -3.4710   -3.5732 C.3        1 <1>        0.000
     37 C44         3.1389    0.1103   -2.0337 C.3        1 <1>        0.000
     38 C46         2.9731   -2.9187   -4.2003 C.3        1 <1>        0.000
     39 C48         3.8966   -0.9533   -2.7688 C.3        1 <1>        0.000
     40 C49         3.2141   -1.4585   -4.0138 C.2        1 <1>        0.000
     41 O13         2.8510   -0.6697   -4.8943 O.2        1 <1>        0.000
     42 H          -3.2896    0.5012    0.5358 H.spc      1 <1>        0.000
     43 H          -5.6301   -0.4696    0.4794 H.spc      1 <1>        0.000
     44 H          -4.5709   -0.9222    1.8888 H.spc      1 <1>        0.000
     45 H          -2.4880   -2.7539    1.6356 H.spc      1 <1>        0.000
     46 H          -1.0691   -4.5623    1.9649 H.spc      1 <1>        0.000
     47 H          -1.7749   -5.3795    0.5194 H.spc      1 <1>        0.000
     48 H          -5.7367   -2.5434   -0.2692 H.spc      1 <1>        0.000
     49 H          -5.3162   -2.9540    1.4641 H.spc      1 <1>        0.000
     50 H          -1.2313   -3.5486   -0.8513 H.spc      1 <1>        0.000
     51 H          -0.3872   -2.7216    0.5734 H.spc      1 <1>        0.000
     52 H          -3.8294   -4.2590    0.4438 H.spc      1 <1>        0.000
     53 H          -3.7576   -3.2054   -1.0352 H.spc      1 <1>        0.000
     54 H          -3.7000    3.7120   -1.8793 H.spc      1 <1>        0.000
     55 H          -6.2515    2.6218   -0.4078 H.spc      1 <1>        0.000
     56 H          -5.1280    1.8556    0.8990 H.spc      1 <1>        0.000
     57 H           3.4650   -3.7383   -1.1955 H.spc      1 <1>        0.000
     58 H           2.8607    2.5006   -1.0340 H.spc      1 <1>        0.000
     59 H           1.7287    2.9785    0.3533 H.spc      1 <1>        0.000
     60 H          -1.9339    3.0883    0.4346 H.spc      1 <1>        0.000
     61 H          -2.2829    4.6897   -0.4370 H.spc      1 <1>        0.000
     62 H          -5.6720    3.9648    1.5997 H.spc      1 <1>        0.000
     63 H          -5.3664    4.6623   -0.0349 H.spc      1 <1>        0.000
     64 H           0.3956   -5.8174   -0.3778 H.spc      1 <1>        0.000
     65 H          -3.5122    5.1990    1.2449 H.spc      1 <1>        0.000
     66 H          -3.4166    3.5059    1.9222 H.spc      1 <1>        0.000
     67 H           1.2450   -4.7153    2.2538 H.spc      1 <1>        0.000
     68 H          -0.3944    1.2581   -3.3505 H.spc      1 <1>        0.000
     69 H          -0.3944    2.5965   -4.6681 H.spc      1 <1>        0.000
     70 H           3.2095   -6.1920    2.0348 H.spc      1 <1>        0.000
     71 H           1.6479    2.0767   -3.2255 H.spc      1 <1>        0.000
     72 H           1.0716    3.8091   -3.5704 H.spc      1 <1>        0.000
     73 H           4.6362   -5.7883    0.2008 H.spc      1 <1>        0.000
     74 H           2.2401   -6.4143   -1.7819 H.spc      1 <1>        0.000
     75 H           0.8381    0.8058    0.4380 H.spc      1 <1>        0.000
     76 H           0.7551   -5.2733   -3.2006 H.spc      1 <1>        0.000
     77 H           2.4076   -5.3799   -4.0603 H.spc      1 <1>        0.000
     78 H           1.8307   -1.0447   -0.6437 H.spc      1 <1>        0.000
     79 H           1.5941   -2.9546   -2.6231 H.spc      1 <1>        0.000
     80 H           0.9187   -3.3225   -4.2848 H.spc      1 <1>        0.000
     81 H           3.9484    0.5981   -1.4907 H.spc      1 <1>        0.000
     82 H           2.5170    0.5079   -2.8357 H.spc      1 <1>        0.000
     83 H           2.8662   -3.0742   -5.2739 H.spc      1 <1>        0.000
     84 H           3.8083   -3.4281   -3.7196 H.spc      1 <1>        0.000
     85 H           3.9941   -1.8018   -2.0915 H.spc      1 <1>        0.000
     86 H           4.8438   -0.5131   -3.0803 H.spc      1 <1>        0.000
@<TRIPOS>BOND
     1   20   25 1  
     2   15   21 1  
     3   19   24 2  
     4   10   15 1  
     5   19   23 1  
     6   14   19 1  
     7    8   22 1  
     8   10   14 1  
     9   14   20 1  
    10   12    8 1  
    11   16   31 2  
    12   17   32 2  
    13   18   33 1  
    14   32   34 1  
    15   33   35 2  
    16   34   36 1  
    17   35   37 1  
    18   36   38 1  
    19   37   39 1  
    20   16   18 1  
    21   30   17 1  
    22   29   16 1  
    23   28   30 2  
    24   27   29 1  
    25   26   28 1  
    26    1    2 1  
    27    1    3 1  
    28    1    4 1  
    29   23   27 1  
    30    2    5 1  
    31   22   26 2  
    32    2    6 2  
    33    3    7 1  
    34    4    9 1  
    35    5   10 am 
    36    5   11 2  
    37   21   25 1  
    38    7   12 1  
    39    7   13 1  
    40    9   13 1  
    41   38   40 1  
    42   39   40 1  
    43   40   41 2  
    44    1   42 1  
    45    4   43 1  
    46    4   44 1  
    47    7   45 1  
    48    8   46 1  
    49    8   47 1  
    50    9   48 1  
    51    9   49 1  
    52   12   50 1  
    53   12   51 1  
    54   13   52 1  
    55   13   53 1  
    56   14   54 1  
    57   15   55 1  
    58   15   56 1  
    59   17   57 1  
    60   18   58 1  
    61   18   59 1  
    62   20   60 1  
    63   20   61 1  
    64   21   62 1  
    65   21   63 1  
    66   22   64 1  
    67   25   65 1  
    68   25   66 1  
    69   26   67 1  
    70   27   68 1  
    71   27   69 1  
    72   28   70 1  
    73   29   71 1  
    74   29   72 1  
    75   30   73 1  
    76   32   74 1  
    77   33   75 1  
    78   34   76 1  
    79   34   77 1  
    80   35   78 1  
    81   36   79 1  
    82   36   80 1  
    83   37   81 1  
    84   37   82 1  
    85   38   83 1  
    86   38   84 1  
    87   39   85 1  
    88   39   86 1  
# Name:          frag5-549-186/138278 -- energy: -21.714607
# Creation time: Sat Jun  5 12:53:43 2010


@<TRIPOS>MOLECULE
frag5-549-186/138278 -- energy: -21.714607
   86    88     1     1     1
SMALL
USER_CHARGES


@<TRIPOS>ATOM
      1 C1         -3.8375   -1.0178   -0.2378 C.3        1 <1>        0.000
      2 C2         -3.4615   -0.5989   -1.6645 C.2        1 <1>        0.000
      3 O1         -2.8619   -1.8237    0.3301 O.3        1 <1>        0.000
      4 C3         -5.1877   -1.7088   -0.2883 C.3        1 <1>        0.000
      5 C4         -4.0299    0.7522   -2.1158 C.2        1 <1>        0.000
      6 O3         -2.8160   -1.2046   -2.5141 O.2        1 <1>        0.000
      7 C5         -2.8240   -3.2042    0.4796 C.3        1 <1>        0.000
      8 C12        -1.2596   -5.2747    0.8895 C.3        1 <1>        0.000
      9 C6         -5.1294   -3.1754   -0.6777 C.3        1 <1>        0.000
     10 N1         -4.0672    1.7440   -1.1671 N.am       1 <1>        0.000
     11 O4         -4.4928    0.7368   -3.2488 O.2        1 <1>        0.000
     12 C8         -1.4311   -3.7992    0.4935 C.3        1 <1>        0.000
     13 C9         -3.7856   -3.8623   -0.5069 C.3        1 <1>        0.000
     14 C10        -3.0232    2.7846   -1.0324 C.3        1 <1>        0.000
     15 C11        -5.3599    2.1388   -0.6442 C.3        1 <1>        0.000
     16 C28         2.5965    3.3082   -2.1059 C.2        1 <1>        0.000
     17 C29         3.3879   -4.6496    0.3489 C.2        1 <1>        0.000
     18 C31         2.1785    3.6647   -3.5331 C.3        1 <1>        0.000
     19 C13        -1.6056    2.2291   -0.8686 C.2        1 <1>        0.000
     20 C14        -3.1832    3.7797    0.1195 C.3        1 <1>        0.000
     21 C15        -5.4196    2.8303    0.6977 C.3        1 <1>        0.000
     22 C16         0.1253   -5.7659    0.6155 C.2        1 <1>        0.000
     23 O6         -0.5811    3.0323   -1.2299 O.3        1 <1>        0.000
     24 O7         -1.4333    1.1390   -0.3242 O.2        1 <1>        0.000
     25 C17        -4.0832    3.2805    1.2227 C.3        1 <1>        0.000
     26 C18         1.0296   -6.3807    1.4292 C.2        1 <1>        0.000
     27 C21         0.6236    2.8886   -0.5153 C.3        1 <1>        0.000
     28 C22         2.3811   -6.8204    1.1388 C.2        1 <1>        0.000
     29 C24         1.7681    3.7798   -0.9321 C.3        1 <1>        0.000
     30 C25         3.4107   -6.0743    0.6587 C.2        1 <1>        0.000
     31 O8          3.6241    2.6597   -1.8674 O.2        1 <1>        0.000
     32 C32         2.6886   -4.2087   -0.7102 C.2        1 <1>        0.000
     33 C35         2.3612    2.6497   -4.6133 C.2        1 <1>        0.000
     34 C37         2.4142   -2.8437   -1.2680 C.3        1 <1>        0.000
     35 C40         2.6540    1.3428   -4.6963 C.2        1 <1>        0.000
     36 C41         1.8750   -2.8979   -2.6947 C.3        1 <1>        0.000
     37 C44         2.9173    0.3010   -3.6646 C.3        1 <1>        0.000
     38 C46         0.6126   -2.1539   -3.0641 C.3        1 <1>        0.000
     39 C48         1.8146    0.1454   -2.6558 C.3        1 <1>        0.000
     40 C49         0.6436   -0.6486   -3.1383 C.2        1 <1>        0.000
     41 O13        -0.3105   -0.0309   -3.6289 O.2        1 <1>        0.000
     42 H          -3.9054   -0.1374    0.4013 H.spc      1 <1>        0.000
     43 H          -5.7787   -1.1996   -1.0495 H.spc      1 <1>        0.000
     44 H          -5.6083   -1.6616    0.7162 H.spc      1 <1>        0.000
     45 H          -3.1782   -3.4336    1.4846 H.spc      1 <1>        0.000
     46 H          -1.4504   -5.3668    1.9587 H.spc      1 <1>        0.000
     47 H          -1.9571   -5.8706    0.3009 H.spc      1 <1>        0.000
     48 H          -5.3590   -3.2167   -1.7424 H.spc      1 <1>        0.000
     49 H          -5.8224   -3.6938   -0.0150 H.spc      1 <1>        0.000
     50 H          -1.0897   -3.7428   -0.5401 H.spc      1 <1>        0.000
     51 H          -0.8918   -3.2376    1.2563 H.spc      1 <1>        0.000
     52 H          -3.9960   -4.8573   -0.1146 H.spc      1 <1>        0.000
     53 H          -3.2973   -3.8301   -1.4809 H.spc      1 <1>        0.000
     54 H          -3.1665    3.2986   -1.9829 H.spc      1 <1>        0.000
     55 H          -5.7423    2.8697   -1.3567 H.spc      1 <1>        0.000
     56 H          -5.9066    1.2059   -0.5066 H.spc      1 <1>        0.000
     57 H           3.9361   -3.9450    0.9742 H.spc      1 <1>        0.000
     58 H           1.1021    3.8278   -3.4790 H.spc      1 <1>        0.000
     59 H           2.8236    4.4965   -3.8161 H.spc      1 <1>        0.000
     60 H          -2.1957    3.9445    0.5506 H.spc      1 <1>        0.000
     61 H          -3.6344    4.6843   -0.2883 H.spc      1 <1>        0.000
     62 H          -5.8186    2.1101    1.4120 H.spc      1 <1>        0.000
     63 H          -6.0317    3.7233    0.5713 H.spc      1 <1>        0.000
     64 H           0.4697   -5.6056   -0.4062 H.spc      1 <1>        0.000
     65 H          -4.2498    4.0984    1.9237 H.spc      1 <1>        0.000
     66 H          -3.5988    2.4281    1.6990 H.spc      1 <1>        0.000
     67 H           0.6872   -6.5695    2.4467 H.spc      1 <1>        0.000
     68 H           0.3949    3.1557    0.5164 H.spc      1 <1>        0.000
     69 H           0.9584    1.8666   -0.6928 H.spc      1 <1>        0.000
     70 H           2.5961   -7.8722    1.3277 H.spc      1 <1>        0.000
     71 H           1.3191    4.7244   -1.2393 H.spc      1 <1>        0.000
     72 H           2.4465    3.8188   -0.0798 H.spc      1 <1>        0.000
     73 H           4.3524   -6.5957    0.4872 H.spc      1 <1>        0.000
     74 H           2.2236   -5.0104   -1.2839 H.spc      1 <1>        0.000
     75 H           2.2181    3.0890   -5.6005 H.spc      1 <1>        0.000
     76 H           3.3527   -2.2896   -1.2823 H.spc      1 <1>        0.000
     77 H           1.6614   -2.3672   -0.6401 H.spc      1 <1>        0.000
     78 H           2.7102    0.9705   -5.7192 H.spc      1 <1>        0.000
     79 H           1.6234   -3.9474   -2.8476 H.spc      1 <1>        0.000
     80 H           2.6520   -2.4238   -3.2943 H.spc      1 <1>        0.000
     81 H           3.8120    0.6041   -3.1207 H.spc      1 <1>        0.000
     82 H           3.0152   -0.6515   -4.1853 H.spc      1 <1>        0.000
     83 H          -0.0904   -2.3802   -2.2624 H.spc      1 <1>        0.000
     84 H           0.3826   -2.4794   -4.0786 H.spc      1 <1>        0.000
     85 H           1.4492    1.1459   -2.4246 H.spc      1 <1>        0.000
     86 H           2.2340   -0.3890   -1.8034 H.spc      1 <1>        0.000
@<TRIPOS>BOND
     1   20   25 1  
     2   15   21 1  
     3   19   24 2  
     4   10   15 1  
     5   19   23 1  
     6   14   19 1  
     7    8   22 1  
     8   10   14 1  
     9   14   20 1  
    10   12    8 1  
    11   16   31 2  
    12   17   32 2  
    13   18   33 1  
    14   32   34 1  
    15   33   35 2  
    16   34   36 1  
    17   35   37 1  
    18   36   38 1  
    19   37   39 1  
    20   16   18 1  
    21   30   17 1  
    22   29   16 1  
    23   28   30 2  
    24   27   29 1  
    25   26   28 1  
    26    1    2 1  
    27    1    3 1  
    28    1    4 1  
    29   23   27 1  
    30    2    5 1  
    31   22   26 2  
    32    2    6 2  
    33    3    7 1  
    34    4    9 1  
    35    5   10 am 
    36    5   11 2  
    37   21   25 1  
    38    7   12 1  
    39    7   13 1  
    40    9   13 1  
    41   38   40 1  
    42   39   40 1  
    43   40   41 2  
    44    1   42 1  
    45    4   43 1  
    46    4   44 1  
    47    7   45 1  
    48    8   46 1  
    49    8   47 1  
    50    9   48 1  
    51    9   49 1  
    52   12   50 1  
    53   12   51 1  
    54   13   52 1  
    55   13   53 1  
    56   14   54 1  
    57   15   55 1  
    58   15   56 1  
    59   17   57 1  
    60   18   58 1  
    61   18   59 1  
    62   20   60 1  
    63   20   61 1  
    64   21   62 1  
    65   21   63 1  
    66   22   64 1  
    67   25   65 1  
    68   25   66 1  
    69   26   67 1  
    70   27   68 1  
    71   27   69 1  
    72   28   70 1  
    73   29   71 1  
    74   29   72 1  
    75   30   73 1  
    76   32   74 1  
    77   33   75 1  
    78   34   76 1  
    79   34   77 1  
    80   35   78 1  
    81   36   79 1  
    82   36   80 1  
    83   37   81 1  
    84   37   82 1  
    85   38   83 1  
    86   38   84 1  
    87   39   85 1  
    88   39   86 1  
# Name:          frag5-549-186/138278 -- energy: -20.124491
# Creation time: Sat Jun  5 12:53:43 2010


@<TRIPOS>MOLECULE
frag5-549-186/138278 -- energy: -20.124491
   86    88     1     1     1
SMALL
USER_CHARGES


@<TRIPOS>ATOM
      1 C1         -3.5535   -0.8886    0.1161 C.3        1 <1>        0.000
      2 C2         -3.0898   -0.5244   -1.2981 C.2        1 <1>        0.000
      3 O1         -2.5771   -1.6001    0.7753 O.3        1 <1>        0.000
      4 C3         -4.8585   -1.6519    0.0244 C.3        1 <1>        0.000
      5 C4         -3.8336    0.6608   -1.8989 C.2        1 <1>        0.000
      6 O3         -2.2361   -1.0147   -2.0290 O.2        1 <1>        0.000
      7 C5         -2.5246   -2.9679    0.9483 C.3        1 <1>        0.000
      8 C12        -0.9819   -4.8003    1.8684 C.3        1 <1>        0.000
      9 C6         -4.6823   -3.0802   -0.4381 C.3        1 <1>        0.000
     10 N1         -4.0939    1.6485   -0.9891 N.am       1 <1>        0.000
     11 O4         -4.1502    0.5199   -3.0698 O.2        1 <1>        0.000
     12 C8         -1.1287   -3.4638    1.1831 C.3        1 <1>        0.000
     13 C9         -3.3202   -3.6815   -0.1437 C.3        1 <1>        0.000
     14 C10        -3.1526    2.7565   -0.7609 C.3        1 <1>        0.000
     15 C11        -5.4634    1.8962   -0.5928 C.3        1 <1>        0.000
     16 C28         1.7218    4.3405   -2.4408 C.2        1 <1>        0.000
     17 C29         2.2094   -5.6682   -1.1569 C.2        1 <1>        0.000
     18 C31         2.7828    4.1708   -3.4972 C.3        1 <1>        0.000
     19 C13        -1.6902    2.2595   -0.6633 C.2        1 <1>        0.000
     20 C14        -3.4178    3.6785    0.4128 C.3        1 <1>        0.000
     21 C15        -5.7455    2.8082    0.5719 C.3        1 <1>        0.000
     22 C16        -0.0811   -5.7049    1.1440 C.2        1 <1>        0.000
     23 O6         -0.6663    2.7860   -1.3564 O.3        1 <1>        0.000
     24 O7         -1.4593    1.3199    0.1071 O.2        1 <1>        0.000
     25 C17        -4.8689    4.0274    0.5971 C.3        1 <1>        0.000
     26 C18         1.1349   -6.1045    1.5176 C.2        1 <1>        0.000
     27 C21        -0.7922    4.0313   -1.9966 C.3        1 <1>        0.000
     28 C22         2.1366   -6.9255    0.9037 C.2        1 <1>        0.000
     29 C24         0.3009    4.5681   -2.8772 C.3        1 <1>        0.000
     30 C25         2.6580   -6.7298   -0.3207 C.2        1 <1>        0.000
     31 O8          1.9932    4.3056   -1.2370 O.2        1 <1>        0.000
     32 C32         1.2103   -5.6844   -2.0466 C.2        1 <1>        0.000
     33 C35         2.7056    2.8697   -4.1982 C.2        1 <1>        0.000
     34 C37         0.6042   -4.6534   -2.9278 C.3        1 <1>        0.000
     35 C40         2.7525    1.5983   -3.7982 C.2        1 <1>        0.000
     36 C41         1.0076   -3.2012   -2.7804 C.3        1 <1>        0.000
     37 C44         2.8893    0.9863   -2.4561 C.3        1 <1>        0.000
     38 C46         2.4623   -2.8660   -2.9129 C.3        1 <1>        0.000
     39 C48         2.1825   -0.3322   -2.3481 C.3        1 <1>        0.000
     40 C49         2.8263   -1.4403   -3.1439 C.2        1 <1>        0.000
     41 O13         3.7120   -1.2057   -3.9758 O.2        1 <1>        0.000
     42 H          -3.7273    0.0160    0.6988 H.spc      1 <1>        0.000
     43 H          -5.4876   -1.1435   -0.7062 H.spc      1 <1>        0.000
     44 H          -5.2956   -1.6797    1.0226 H.spc      1 <1>        0.000
     45 H          -3.0302   -3.2312    1.8774 H.spc      1 <1>        0.000
     46 H          -0.5608   -4.6269    2.8587 H.spc      1 <1>        0.000
     47 H          -1.9659   -5.2672    1.9110 H.spc      1 <1>        0.000
     48 H          -4.7998   -3.0786   -1.5217 H.spc      1 <1>        0.000
     49 H          -5.4159   -3.6799    0.1006 H.spc      1 <1>        0.000
     50 H          -0.6865   -3.5865    0.1944 H.spc      1 <1>        0.000
     51 H          -0.6625   -2.7362    1.8474 H.spc      1 <1>        0.000
     52 H          -3.4934   -4.6993    0.2060 H.spc      1 <1>        0.000
     53 H          -2.7363   -3.6046   -1.0609 H.spc      1 <1>        0.000
     54 H          -3.3225    3.3636   -1.6501 H.spc      1 <1>        0.000
     55 H          -5.9133    2.3960   -1.4506 H.spc      1 <1>        0.000
     56 H          -5.8409    0.9228   -0.2795 H.spc      1 <1>        0.000
     57 H           2.7469   -4.7249   -1.0601 H.spc      1 <1>        0.000
     58 H           2.6374    4.9551   -4.2400 H.spc      1 <1>        0.000
     59 H           3.7526    4.2220   -3.0022 H.spc      1 <1>        0.000
     60 H          -3.0922    3.1585    1.3138 H.spc      1 <1>        0.000
     61 H          -2.8822    4.6085    0.2222 H.spc      1 <1>        0.000
     62 H          -5.5535    2.2453    1.4853 H.spc      1 <1>        0.000
     63 H          -6.7779    3.1464    0.4832 H.spc      1 <1>        0.000
     64 H          -0.4474   -6.0937    0.1939 H.spc      1 <1>        0.000
     65 H          -5.1697    4.6817   -0.2212 H.spc      1 <1>        0.000
     66 H          -4.9837    4.5109    1.5672 H.spc      1 <1>        0.000
     67 H           1.4294   -5.7270    2.4968 H.spc      1 <1>        0.000
     68 H          -1.6331    3.8934   -2.6763 H.spc      1 <1>        0.000
     69 H          -0.8417    4.7454   -1.1746 H.spc      1 <1>        0.000
     70 H           2.5057   -7.7772    1.4751 H.spc      1 <1>        0.000
     71 H           0.1981    4.0407   -3.8256 H.spc      1 <1>        0.000
     72 H           0.1666    5.6498   -2.8838 H.spc      1 <1>        0.000
     73 H           3.4405   -7.3980   -0.6804 H.spc      1 <1>        0.000
     74 H           0.7408   -6.6631   -2.1461 H.spc      1 <1>        0.000
     75 H           2.5839    2.9731   -5.2764 H.spc      1 <1>        0.000
     76 H          -0.4564   -4.6689   -2.6767 H.spc      1 <1>        0.000
     77 H           0.9297   -4.9266   -3.9315 H.spc      1 <1>        0.000
     78 H           2.6759    0.8748   -4.6099 H.spc      1 <1>        0.000
     79 H           0.7360   -2.9248   -1.7616 H.spc      1 <1>        0.000
     80 H           0.5116   -2.6762   -3.5967 H.spc      1 <1>        0.000
     81 H           2.4430    1.6663   -1.7305 H.spc      1 <1>        0.000
     82 H           3.9499    0.8141   -2.2727 H.spc      1 <1>        0.000
     83 H           2.8055   -3.4016   -3.7980 H.spc      1 <1>        0.000
     84 H           2.9107   -3.1299   -1.9551 H.spc      1 <1>        0.000
     85 H           1.1762   -0.1930   -2.7431 H.spc      1 <1>        0.000
     86 H           2.2100   -0.6289   -1.2996 H.spc      1 <1>        0.000
@<TRIPOS>BOND
     1   20   25 1  
     2   15   21 1  
     3   19   24 2  
     4   10   15 1  
     5   19   23 1  
     6   14   19 1  
     7    8   22 1  
     8   10   14 1  
     9   14   20 1  
    10   12    8 1  
    11   16   31 2  
    12   17   32 2  
    13   18   33 1  
    14   32   34 1  
    15   33   35 2  
    16   34   36 1  
    17   35   37 1  
    18   36   38 1  
    19   37   39 1  
    20   16   18 1  
    21   30   17 1  
    22   29   16 1  
    23   28   30 2  
    24   27   29 1  
    25   26   28 1  
    26    1    2 1  
    27    1    3 1  
    28    1    4 1  
    29   23   27 1  
    30    2    5 1  
    31   22   26 2  
    32    2    6 2  
    33    3    7 1  
    34    4    9 1  
    35    5   10 am 
    36    5   11 2  
    37   21   25 1  
    38    7   12 1  
    39    7   13 1  
    40    9   13 1  
    41   38   40 1  
    42   39   40 1  
    43   40   41 2  
    44    1   42 1  
    45    4   43 1  
    46    4   44 1  
    47    7   45 1  
    48    8   46 1  
    49    8   47 1  
    50    9   48 1  
    51    9   49 1  
    52   12   50 1  
    53   12   51 1  
    54   13   52 1  
    55   13   53 1  
    56   14   54 1  
    57   15   55 1  
    58   15   56 1  
    59   17   57 1  
    60   18   58 1  
    61   18   59 1  
    62   20   60 1  
    63   20   61 1  
    64   21   62 1  
    65   21   63 1  
    66   22   64 1  
    67   25   65 1  
    68   25   66 1  
    69   26   67 1  
    70   27   68 1  
    71   27   69 1  
    72   28   70 1  
    73   29   71 1  
    74   29   72 1  
    75   30   73 1  
    76   32   74 1  
    77   33   75 1  
    78   34   76 1  
    79   34   77 1  
    80   35   78 1  
    81   36   79 1  
    82   36   80 1  
    83   37   81 1  
    84   37   82 1  
    85   38   83 1  
    86   38   84 1  
    87   39   85 1  
    88   39   86 1  
# Name:          frag5-549-186/138278 -- energy: -21.881762
# Creation time: Sat Jun  5 12:53:43 2010


@<TRIPOS>MOLECULE
frag5-549-186/138278 -- energy: -21.881762
   86    88     1     1     1
SMALL
USER_CHARGES


@<TRIPOS>ATOM
      1 C1         -3.7121   -1.1211   -0.1865 C.3        1 <1>        0.000
      2 C2         -3.4965   -0.5422   -1.5919 C.2        1 <1>        0.000
      3 O1         -2.7351   -2.0329    0.1626 O.3        1 <1>        0.000
      4 C3         -5.1058   -1.7059   -0.0450 C.3        1 <1>        0.000
      5 C4         -4.2930    0.7276   -1.8684 C.2        1 <1>        0.000
      6 O3         -2.8253   -0.9256   -2.5407 O.2        1 <1>        0.000
      7 C5         -2.8030   -3.4111    0.2954 C.3        1 <1>        0.000
      8 C12        -1.1660   -5.4074    0.7929 C.3        1 <1>        0.000
      9 C6         -5.2352   -3.1423   -0.5163 C.3        1 <1>        0.000
     10 N1         -4.1225    1.7645   -0.9858 N.am       1 <1>        0.000
     11 O4         -5.0965    0.5763   -2.7799 O.2        1 <1>        0.000
     12 C8         -1.4563   -4.0811    0.1151 C.3        1 <1>        0.000
     13 C9         -3.9497   -3.9601   -0.5514 C.3        1 <1>        0.000
     14 C10        -2.9623    2.6654   -0.9470 C.3        1 <1>        0.000
     15 C11        -5.2733    2.1913   -0.2271 C.3        1 <1>        0.000
     16 C28         2.5504    3.4636   -2.1493 C.2        1 <1>        0.000
     17 C29         3.4167   -4.7270    0.1766 C.2        1 <1>        0.000
     18 C31         2.1338    3.7273   -3.5894 C.3        1 <1>        0.000
     19 C13        -1.6001    1.9996   -0.8344 C.2        1 <1>        0.000
     20 C14        -2.9134    3.6992    0.1685 C.3        1 <1>        0.000
     21 C15        -5.4055    3.5504    0.4118 C.3        1 <1>        0.000
     22 C16         0.2211   -5.8785    0.5481 C.2        1 <1>        0.000
     23 O6         -0.5607    2.6276   -1.4388 O.3        1 <1>        0.000
     24 O7         -1.4896    1.0396   -0.0794 O.2        1 <1>        0.000
     25 C17        -4.1898    4.4265    0.4247 C.3        1 <1>        0.000
     26 C18         1.1747   -6.3830    1.3451 C.2        1 <1>        0.000
     27 C21         0.6198    2.7073   -0.6627 C.3        1 <1>        0.000
     28 C22         2.5381   -6.8117    1.1846 C.2        1 <1>        0.000
     29 C24         1.6110    3.7900   -1.0190 C.3        1 <1>        0.000
     30 C25         3.5479   -6.0754    0.6754 C.2        1 <1>        0.000
     31 O8          3.6649    3.0047   -1.8647 O.2        1 <1>        0.000
     32 C32         2.8556   -4.3924   -0.9887 C.2        1 <1>        0.000
     33 C35         2.8193    2.8704   -4.5922 C.2        1 <1>        0.000
     34 C37         2.5878   -3.0820   -1.6223 C.3        1 <1>        0.000
     35 C40         2.5395    1.6171   -4.9687 C.2        1 <1>        0.000
     36 C41         1.6227   -3.1686   -2.7920 C.3        1 <1>        0.000
     37 C44         1.4755    0.7296   -4.4529 C.3        1 <1>        0.000
     38 C46         0.5247   -2.1587   -2.9109 C.3        1 <1>        0.000
     39 C48         1.9839   -0.0494   -3.2840 C.3        1 <1>        0.000
     40 C49         0.9474   -0.7902   -2.5089 C.2        1 <1>        0.000
     41 O13         0.4792   -0.2881   -1.4870 O.2        1 <1>        0.000
     42 H          -3.6251   -0.2941    0.5182 H.spc      1 <1>        0.000
     43 H          -5.7690   -1.1048   -0.6670 H.spc      1 <1>        0.000
     44 H          -5.3503   -1.6951    1.0172 H.spc      1 <1>        0.000
     45 H          -3.0535   -3.6687    1.3245 H.spc      1 <1>        0.000
     46 H          -1.2905   -5.2709    1.8671 H.spc      1 <1>        0.000
     47 H          -1.8509   -6.1509    0.3852 H.spc      1 <1>        0.000
     48 H          -5.5917   -3.0931   -1.5452 H.spc      1 <1>        0.000
     49 H          -5.8910   -3.6385    0.1991 H.spc      1 <1>        0.000
     50 H          -1.4059   -4.3050   -0.9505 H.spc      1 <1>        0.000
     51 H          -0.7462   -3.3866    0.5641 H.spc      1 <1>        0.000
     52 H          -4.1937   -4.9424   -0.1469 H.spc      1 <1>        0.000
     53 H          -3.6045   -3.9545   -1.5853 H.spc      1 <1>        0.000
     54 H          -3.1347    3.1280   -1.9188 H.spc      1 <1>        0.000
     55 H          -6.0650    2.2001   -0.9762 H.spc      1 <1>        0.000
     56 H          -5.2553    1.5223    0.6332 H.spc      1 <1>        0.000
     57 H           3.8051   -3.9203    0.7983 H.spc      1 <1>        0.000
     58 H           1.0676    3.5117   -3.6591 H.spc      1 <1>        0.000
     59 H           2.3990    4.7600   -3.8157 H.spc      1 <1>        0.000
     60 H          -2.6752    3.1576    1.0839 H.spc      1 <1>        0.000
     61 H          -2.1836    4.4497   -0.1351 H.spc      1 <1>        0.000
     62 H          -5.6438    3.3619    1.4586 H.spc      1 <1>        0.000
     63 H          -6.1470    4.0843   -0.1824 H.spc      1 <1>        0.000
     64 H           0.5275   -5.7975   -0.4948 H.spc      1 <1>        0.000
     65 H          -4.3105    5.1579   -0.3744 H.spc      1 <1>        0.000
     66 H          -4.1178    4.8640    1.4205 H.spc      1 <1>        0.000
     67 H           0.8296   -6.4966    2.3728 H.spc      1 <1>        0.000
     68 H           0.2912    2.9304    0.3524 H.spc      1 <1>        0.000
     69 H           1.1425    1.7643   -0.8228 H.spc      1 <1>        0.000
     70 H           2.7782   -7.8258    1.5040 H.spc      1 <1>        0.000
     71 H           1.0264    4.6518   -1.3408 H.spc      1 <1>        0.000
     72 H           2.2307    3.9458   -0.1360 H.spc      1 <1>        0.000
     73 H           4.5365   -6.5330    0.6379 H.spc      1 <1>        0.000
     74 H           2.5343   -5.2459   -1.5857 H.spc      1 <1>        0.000
     75 H           3.6723    3.3287   -5.0927 H.spc      1 <1>        0.000
     76 H           3.5348   -2.6997   -2.0032 H.spc      1 <1>        0.000
     77 H           2.1361   -2.4370   -0.8686 H.spc      1 <1>        0.000
     78 H           3.1733    1.1997   -5.7511 H.spc      1 <1>        0.000
     79 H           1.1111   -4.1222   -2.6610 H.spc      1 <1>        0.000
     80 H           2.2414   -3.0127   -3.6757 H.spc      1 <1>        0.000
     81 H           1.1711    0.0392   -5.2395 H.spc      1 <1>        0.000
     82 H           0.6246    1.3341   -4.1389 H.spc      1 <1>        0.000
     83 H          -0.2823   -2.4658   -2.2456 H.spc      1 <1>        0.000
     84 H           0.2222   -2.1188   -3.9573 H.spc      1 <1>        0.000
     85 H           2.4281    0.6724   -2.5986 H.spc      1 <1>        0.000
     86 H           2.6682   -0.7981   -3.6830 H.spc      1 <1>        0.000
@<TRIPOS>BOND
     1   20   25 1  
     2   15   21 1  
     3   19   24 2  
     4   10   15 1  
     5   19   23 1  
     6   14   19 1  
     7    8   22 1  
     8   10   14 1  
     9   14   20 1  
    10   12    8 1  
    11   16   31 2  
    12   17   32 2  
    13   18   33 1  
    14   32   34 1  
    15   33   35 2  
    16   34   36 1  
    17   35   37 1  
    18   36   38 1  
    19   37   39 1  
    20   16   18 1  
    21   30   17 1  
    22   29   16 1  
    23   28   30 2  
    24   27   29 1  
    25   26   28 1  
    26    1    2 1  
    27    1    3 1  
    28    1    4 1  
    29   23   27 1  
    30    2    5 1  
    31   22   26 2  
    32    2    6 2  
    33    3    7 1  
    34    4    9 1  
    35    5   10 am 
    36    5   11 2  
    37   21   25 1  
    38    7   12 1  
    39    7   13 1  
    40    9   13 1  
    41   38   40 1  
    42   39   40 1  
    43   40   41 2  
    44    1   42 1  
    45    4   43 1  
    46    4   44 1  
    47    7   45 1  
    48    8   46 1  
    49    8   47 1  
    50    9   48 1  
    51    9   49 1  
    52   12   50 1  
    53   12   51 1  
    54   13   52 1  
    55   13   53 1  
    56   14   54 1  
    57   15   55 1  
    58   15   56 1  
    59   17   57 1  
    60   18   58 1  
    61   18   59 1  
    62   20   60 1  
    63   20   61 1  
    64   21   62 1  
    65   21   63 1  
    66   22   64 1  
    67   25   65 1  
    68   25   66 1  
    69   26   67 1  
    70   27   68 1  
    71   27   69 1  
    72   28   70 1  
    73   29   71 1  
    74   29   72 1  
    75   30   73 1  
    76   32   74 1  
    77   33   75 1  
    78   34   76 1  
    79   34   77 1  
    80   35   78 1  
    81   36   79 1  
    82   36   80 1  
    83   37   81 1  
    84   37   82 1  
    85   38   83 1  
    86   38   84 1  
    87   39   85 1  
    88   39   86 1  
# Name:          frag5-549-186/138278 -- energy: -20.536032
# Creation time: Sat Jun  5 12:53:43 2010


@<TRIPOS>MOLECULE
frag5-549-186/138278 -- energy: -20.536032
   86    88     1     1     1
SMALL
USER_CHARGES


@<TRIPOS>ATOM
      1 C1         -3.7420   -1.0138    0.3245 C.3        1 <1>        0.000
      2 C2         -3.0601   -0.6428   -1.0040 C.2        1 <1>        0.000
      3 O1         -2.9223   -1.7211    1.1762 O.3        1 <1>        0.000
      4 C3         -5.0099   -1.7915    0.0362 C.3        1 <1>        0.000
      5 C4         -3.7161    0.5220   -1.7294 C.2        1 <1>        0.000
      6 O3         -2.0875   -1.1160   -1.5815 O.2        1 <1>        0.000
      7 C5         -2.7715   -3.0929    1.2824 C.3        1 <1>        0.000
      8 C12        -0.9140   -4.8362    1.8228 C.3        1 <1>        0.000
      9 C6         -4.7428   -3.2357   -0.3525 C.3        1 <1>        0.000
     10 N1         -4.0105    1.5899   -0.9316 N.am       1 <1>        0.000
     11 O4         -3.9945    0.2701   -2.8920 O.2        1 <1>        0.000
     12 C8         -1.3769   -3.4132    1.7386 C.3        1 <1>        0.000
     13 C9         -3.3797   -3.7818    0.0630 C.3        1 <1>        0.000
     14 C10        -3.0542    2.6459   -0.5731 C.3        1 <1>        0.000
     15 C11        -5.3993    1.8762   -0.6351 C.3        1 <1>        0.000
     16 C28         1.7371    3.4125   -3.1283 C.2        1 <1>        0.000
     17 C29         2.5065   -5.8770   -1.0663 C.2        1 <1>        0.000
     18 C31         0.5277    3.1502   -4.0104 C.3        1 <1>        0.000
     19 C13        -1.5987    2.2138   -0.3440 C.2        1 <1>        0.000
     20 C14        -3.4792    3.5419    0.5667 C.3        1 <1>        0.000
     21 C15        -5.8695    3.2241   -0.1462 C.3        1 <1>        0.000
     22 C16        -0.3280   -5.3147    0.5544 C.2        1 <1>        0.000
     23 O6         -0.6482    2.9565   -0.9573 O.3        1 <1>        0.000
     24 O7         -1.3533    1.2461    0.3751 O.2        1 <1>        0.000
     25 C17        -4.7960    4.1961    0.2683 C.3        1 <1>        0.000
     26 C18        -0.4568   -6.3626   -0.2582 C.2        1 <1>        0.000
     27 C21         0.7139    2.6332   -0.7827 C.3        1 <1>        0.000
     28 C22         0.2054   -6.7489   -1.4698 C.2        1 <1>        0.000
     29 C24         1.7177    3.4056   -1.6121 C.3        1 <1>        0.000
     30 C25         1.4899   -6.5592   -1.8186 C.2        1 <1>        0.000
     31 O8          2.8089    3.7447   -3.6637 O.2        1 <1>        0.000
     32 C32         2.5575   -4.5523   -0.8907 C.2        1 <1>        0.000
     33 C35         0.9423    2.4539   -5.2580 C.2        1 <1>        0.000
     34 C37         3.4332   -3.6084   -0.1507 C.3        1 <1>        0.000
     35 C40         1.4338    1.2118   -5.3967 C.2        1 <1>        0.000
     36 C41         3.6378   -2.2334   -0.7648 C.3        1 <1>        0.000
     37 C44         1.6551    0.2142   -4.3121 C.3        1 <1>        0.000
     38 C46         2.8188   -1.7624   -1.9404 C.3        1 <1>        0.000
     39 C48         3.0683    0.0228   -3.8241 C.3        1 <1>        0.000
     40 C49         3.0956   -0.3519   -2.3723 C.2        1 <1>        0.000
     41 O13         3.2840    0.5273   -1.5266 O.2        1 <1>        0.000
     42 H          -3.9805   -0.0835    0.8401 H.spc      1 <1>        0.000
     43 H          -5.5129   -1.3090   -0.8018 H.spc      1 <1>        0.000
     44 H          -5.6107   -1.7974    0.9457 H.spc      1 <1>        0.000
     45 H          -3.3590   -3.5484    2.0795 H.spc      1 <1>        0.000
     46 H          -0.1447   -4.8952    2.5927 H.spc      1 <1>        0.000
     47 H          -1.7792   -5.4590    2.0503 H.spc      1 <1>        0.000
     48 H          -4.7769   -3.2772   -1.4412 H.spc      1 <1>        0.000
     49 H          -5.4907   -3.8403    0.1605 H.spc      1 <1>        0.000
     50 H          -0.7359   -2.9663    0.9786 H.spc      1 <1>        0.000
     51 H          -1.3424   -3.0577    2.7684 H.spc      1 <1>        0.000
     52 H          -3.5206   -4.8306    0.3244 H.spc      1 <1>        0.000
     53 H          -2.6994   -3.6149   -0.7721 H.spc      1 <1>        0.000
     54 H          -3.0762    3.2183   -1.5004 H.spc      1 <1>        0.000
     55 H          -5.8872    1.7781   -1.6049 H.spc      1 <1>        0.000
     56 H          -5.6167    1.2161    0.2046 H.spc      1 <1>        0.000
     57 H           3.2896   -6.4805   -0.6074 H.spc      1 <1>        0.000
     58 H          -0.1788    2.5211   -3.4689 H.spc      1 <1>        0.000
     59 H           0.0630    4.1013   -4.2705 H.spc      1 <1>        0.000
     60 H          -3.5832    2.9381    1.4682 H.spc      1 <1>        0.000
     61 H          -2.7251    4.3169    0.7043 H.spc      1 <1>        0.000
     62 H          -6.4657    3.0321    0.7459 H.spc      1 <1>        0.000
     63 H          -6.3898    3.6864   -0.9851 H.spc      1 <1>        0.000
     64 H           0.4183   -4.6151    0.1779 H.spc      1 <1>        0.000
     65 H          -4.6391    4.8846   -0.5620 H.spc      1 <1>        0.000
     66 H          -5.1328    4.6862    1.1818 H.spc      1 <1>        0.000
     67 H          -1.2210   -7.0701    0.0635 H.spc      1 <1>        0.000
     68 H           0.9439    2.8684    0.2565 H.spc      1 <1>        0.000
     69 H           0.8136    1.5921   -1.0898 H.spc      1 <1>        0.000
     70 H          -0.4137   -7.2639   -2.2044 H.spc      1 <1>        0.000
     71 H           1.4832    4.4421   -1.3698 H.spc      1 <1>        0.000
     72 H           2.6610    2.9202   -1.3616 H.spc      1 <1>        0.000
     73 H           1.7947   -6.9695   -2.7813 H.spc      1 <1>        0.000
     74 H           1.7576   -4.0375   -1.4229 H.spc      1 <1>        0.000
     75 H           0.8329    3.0262   -6.1792 H.spc      1 <1>        0.000
     76 H           4.4187   -4.0733   -0.1258 H.spc      1 <1>        0.000
     77 H           2.9437   -3.4368    0.8080 H.spc      1 <1>        0.000
     78 H           1.6983    0.9012   -6.4075 H.spc      1 <1>        0.000
     79 H           4.6543   -2.2730   -1.1563 H.spc      1 <1>        0.000
     80 H           3.3600   -1.5480    0.0359 H.spc      1 <1>        0.000
     81 H           1.3554   -0.7467   -4.7304 H.spc      1 <1>        0.000
     82 H           1.0947    0.5838   -3.4534 H.spc      1 <1>        0.000
     83 H           1.7732   -1.8014   -1.6348 H.spc      1 <1>        0.000
     84 H           3.0714   -2.4074   -2.7820 H.spc      1 <1>        0.000
     85 H           3.6099    0.9601   -3.9514 H.spc      1 <1>        0.000
     86 H           3.5288   -0.7806   -4.3991 H.spc      1 <1>        0.000
@<TRIPOS>BOND
     1   20   25 1  
     2   15   21 1  
     3   19   24 2  
     4   10   15 1  
     5   19   23 1  
     6   14   19 1  
     7    8   22 1  
     8   10   14 1  
     9   14   20 1  
    10   12    8 1  
    11   16   31 2  
    12   17   32 2  
    13   18   33 1  
    14   32   34 1  
    15   33   35 2  
    16   34   36 1  
    17   35   37 1  
    18   36   38 1  
    19   37   39 1  
    20   16   18 1  
    21   30   17 1  
    22   29   16 1  
    23   28   30 2  
    24   27   29 1  
    25   26   28 1  
    26    1    2 1  
    27    1    3 1  
    28    1    4 1  
    29   23   27 1  
    30    2    5 1  
    31   22   26 2  
    32    2    6 2  
    33    3    7 1  
    34    4    9 1  
    35    5   10 am 
    36    5   11 2  
    37   21   25 1  
    38    7   12 1  
    39    7   13 1  
    40    9   13 1  
    41   38   40 1  
    42   39   40 1  
    43   40   41 2  
    44    1   42 1  
    45    4   43 1  
    46    4   44 1  
    47    7   45 1  
    48    8   46 1  
    49    8   47 1  
    50    9   48 1  
    51    9   49 1  
    52   12   50 1  
    53   12   51 1  
    54   13   52 1  
    55   13   53 1  
    56   14   54 1  
    57   15   55 1  
    58   15   56 1  
    59   17   57 1  
    60   18   58 1  
    61   18   59 1  
    62   20   60 1  
    63   20   61 1  
    64   21   62 1  
    65   21   63 1  
    66   22   64 1  
    67   25   65 1  
    68   25   66 1  
    69   26   67 1  
    70   27   68 1  
    71   27   69 1  
    72   28   70 1  
    73   29   71 1  
    74   29   72 1  
    75   30   73 1  
    76   32   74 1  
    77   33   75 1  
    78   34   76 1  
    79   34   77 1  
    80   35   78 1  
    81   36   79 1  
    82   36   80 1  
    83   37   81 1  
    84   37   82 1  
    85   38   83 1  
    86   38   84 1  
    87   39   85 1  
    88   39   86 1  
# Name:          frag5-549-186/138278 -- energy: -20.407619
# Creation time: Sat Jun  5 12:53:43 2010


@<TRIPOS>MOLECULE
frag5-549-186/138278 -- energy: -20.407619
   86    88     1     1     1
SMALL
USER_CHARGES


@<TRIPOS>ATOM
      1 C1         -3.4593   -0.7402   -0.0349 C.3        1 <1>        0.000
      2 C2         -3.1593    0.0320   -1.3227 C.2        1 <1>        0.000
      3 O1         -2.5122   -1.7259    0.2232 O.3        1 <1>        0.000
      4 C3         -4.8791   -1.2907   -0.0550 C.3        1 <1>        0.000
      5 C4         -3.9653    1.3194   -1.5024 C.2        1 <1>        0.000
      6 O3         -2.3781   -0.1905   -2.2423 O.2        1 <1>        0.000
      7 C5         -2.6653   -3.1087    0.2376 C.3        1 <1>        0.000
      8 C12        -1.4401   -5.4146    0.3617 C.3        1 <1>        0.000
      9 C6         -5.0256   -2.6555   -0.6869 C.3        1 <1>        0.000
     10 N1         -3.9452    2.2182   -0.4662 N.am       1 <1>        0.000
     11 O4         -4.6023    1.3434   -2.5473 O.2        1 <1>        0.000
     12 C8         -1.3703   -3.9005    0.0956 C.3        1 <1>        0.000
     13 C9         -3.7775   -3.5115   -0.7280 C.3        1 <1>        0.000
     14 C10        -2.9027    3.2512   -0.3344 C.3        1 <1>        0.000
     15 C11        -5.2050    2.5736    0.1434 C.3        1 <1>        0.000
     16 C28         0.6629    3.0800   -4.4742 C.2        1 <1>        0.000
     17 C29         3.0992   -6.4273   -0.0966 C.2        1 <1>        0.000
     18 C31         2.1052    2.8804   -4.0314 C.3        1 <1>        0.000
     19 C13        -1.4966    2.6623   -0.4239 C.2        1 <1>        0.000
     20 C14        -2.8973    4.1111    0.9233 C.3        1 <1>        0.000
     21 C15        -5.1993    3.2898    1.4625 C.3        1 <1>        0.000
     22 C16        -0.3146   -6.2325   -0.1678 C.2        1 <1>        0.000
     23 O6         -0.5043    3.2532   -1.1046 O.3        1 <1>        0.000
     24 O7         -1.2715    1.6330    0.2263 O.2        1 <1>        0.000
     25 C17        -4.2423    4.4499    1.5021 C.3        1 <1>        0.000
     26 C18         0.2865   -7.3335    0.2902 C.2        1 <1>        0.000
     27 C21        -0.6801    3.8193   -2.3945 C.3        1 <1>        0.000
     28 C22         1.3931   -8.1653   -0.1213 C.2        1 <1>        0.000
     29 C24        -0.5560    2.8852   -3.5889 C.3        1 <1>        0.000
     30 C25         2.6680   -7.7825   -0.3088 C.2        1 <1>        0.000
     31 O8          0.4810    3.4066   -5.6594 O.2        1 <1>        0.000
     32 C32         2.8925   -5.3679   -0.9046 C.2        1 <1>        0.000
     33 C35         2.3684    2.8683   -2.5746 C.2        1 <1>        0.000
     34 C37         3.2847   -3.9655   -0.6159 C.3        1 <1>        0.000
     35 C40         2.0566    1.9752   -1.6258 C.2        1 <1>        0.000
     36 C41         3.7509   -3.0971   -1.7774 C.3        1 <1>        0.000
     37 C44         1.3212    0.6823   -1.6314 C.3        1 <1>        0.000
     38 C46         3.2426   -1.6887   -1.6427 C.3        1 <1>        0.000
     39 C48         1.4711   -0.2167   -2.8316 C.3        1 <1>        0.000
     40 C49         2.7927   -0.9458   -2.8708 C.2        1 <1>        0.000
     41 O13         3.4953   -0.9308   -3.8846 O.2        1 <1>        0.000
     42 H          -3.3903   -0.0376    0.7956 H.spc      1 <1>        0.000
     43 H          -5.4756   -0.6014   -0.6527 H.spc      1 <1>        0.000
     44 H          -5.1932   -1.3895    0.9841 H.spc      1 <1>        0.000
     45 H          -2.9804   -3.3959    1.2408 H.spc      1 <1>        0.000
     46 H          -1.4166   -5.5328    1.4450 H.spc      1 <1>        0.000
     47 H          -2.3371   -5.7699   -0.1454 H.spc      1 <1>        0.000
     48 H          -5.3091   -2.4812   -1.7249 H.spc      1 <1>        0.000
     49 H          -5.7464   -3.1980   -0.0752 H.spc      1 <1>        0.000
     50 H          -1.0723   -3.7965   -0.9477 H.spc      1 <1>        0.000
     51 H          -0.6929   -3.4982    0.8489 H.spc      1 <1>        0.000
     52 H          -4.0842   -4.5178   -0.4427 H.spc      1 <1>        0.000
     53 H          -3.3662   -3.4090   -1.7322 H.spc      1 <1>        0.000
     54 H          -3.1705    3.8963   -1.1712 H.spc      1 <1>        0.000
     55 H          -5.6666    3.2730   -0.5536 H.spc      1 <1>        0.000
     56 H          -5.6985    1.6224    0.3427 H.spc      1 <1>        0.000
     57 H           3.6558   -6.2348    0.8206 H.spc      1 <1>        0.000
     58 H           2.3924    1.8930   -4.3929 H.spc      1 <1>        0.000
     59 H           2.6572    3.7337   -4.4254 H.spc      1 <1>        0.000
     60 H          -2.3754    3.5322    1.6853 H.spc      1 <1>        0.000
     61 H          -2.4399    5.0595    0.6414 H.spc      1 <1>        0.000
     62 H          -4.8857    2.5764    2.2246 H.spc      1 <1>        0.000
     63 H          -6.2022    3.6827    1.6296 H.spc      1 <1>        0.000
     64 H           0.0967   -5.8627   -1.1071 H.spc      1 <1>        0.000
     65 H          -4.6694    5.2570    0.9069 H.spc      1 <1>        0.000
     66 H          -4.0972    4.7290    2.5457 H.spc      1 <1>        0.000
     67 H          -0.1756   -7.6968    1.2081 H.spc      1 <1>        0.000
     68 H          -1.7042    4.1918   -2.4163 H.spc      1 <1>        0.000
     69 H           0.1201    4.5507   -2.5074 H.spc      1 <1>        0.000
     70 H           1.1704   -9.2174   -0.2991 H.spc      1 <1>        0.000
     71 H          -0.4748    1.8785   -3.1789 H.spc      1 <1>        0.000
     72 H          -1.4229    3.0829   -4.2193 H.spc      1 <1>        0.000
     73 H           3.3988   -8.5237   -0.6323 H.spc      1 <1>        0.000
     74 H           2.3929   -5.5581   -1.8545 H.spc      1 <1>        0.000
     75 H           2.9118    3.7398   -2.2094 H.spc      1 <1>        0.000
     76 H           4.1427   -4.0379    0.0524 H.spc      1 <1>        0.000
     77 H           2.3811   -3.4848   -0.2411 H.spc      1 <1>        0.000
     78 H           2.4199    2.2565   -0.6374 H.spc      1 <1>        0.000
     79 H           3.3633   -3.5193   -2.7045 H.spc      1 <1>        0.000
     80 H           4.8407   -3.0746   -1.7790 H.spc      1 <1>        0.000
     81 H           0.2654    0.9519   -1.6041 H.spc      1 <1>        0.000
     82 H           1.7297    0.1155   -0.7947 H.spc      1 <1>        0.000
     83 H           4.0952   -1.1202   -1.2712 H.spc      1 <1>        0.000
     84 H           2.3475   -1.7744   -1.0266 H.spc      1 <1>        0.000
     85 H           1.4142    0.4100   -3.7216 H.spc      1 <1>        0.000
     86 H           0.6823   -0.9673   -2.7814 H.spc      1 <1>        0.000
@<TRIPOS>BOND
     1   20   25 1  
     2   15   21 1  
     3   19   24 2  
     4   10   15 1  
     5   19   23 1  
     6   14   19 1  
     7    8   22 1  
     8   10   14 1  
     9   14   20 1  
    10   12    8 1  
    11   16   31 2  
    12   17   32 2  
    13   18   33 1  
    14   32   34 1  
    15   33   35 2  
    16   34   36 1  
    17   35   37 1  
    18   36   38 1  
    19   37   39 1  
    20   16   18 1  
    21   30   17 1  
    22   29   16 1  
    23   28   30 2  
    24   27   29 1  
    25   26   28 1  
    26    1    2 1  
    27    1    3 1  
    28    1    4 1  
    29   23   27 1  
    30    2    5 1  
    31   22   26 2  
    32    2    6 2  
    33    3    7 1  
    34    4    9 1  
    35    5   10 am 
    36    5   11 2  
    37   21   25 1  
    38    7   12 1  
    39    7   13 1  
    40    9   13 1  
    41   38   40 1  
    42   39   40 1  
    43   40   41 2  
    44    1   42 1  
    45    4   43 1  
    46    4   44 1  
    47    7   45 1  
    48    8   46 1  
    49    8   47 1  
    50    9   48 1  
    51    9   49 1  
    52   12   50 1  
    53   12   51 1  
    54   13   52 1  
    55   13   53 1  
    56   14   54 1  
    57   15   55 1  
    58   15   56 1  
    59   17   57 1  
    60   18   58 1  
    61   18   59 1  
    62   20   60 1  
    63   20   61 1  
    64   21   62 1  
    65   21   63 1  
    66   22   64 1  
    67   25   65 1  
    68   25   66 1  
    69   26   67 1  
    70   27   68 1  
    71   27   69 1  
    72   28   70 1  
    73   29   71 1  
    74   29   72 1  
    75   30   73 1  
    76   32   74 1  
    77   33   75 1  
    78   34   76 1  
    79   34   77 1  
    80   35   78 1  
    81   36   79 1  
    82   36   80 1  
    83   37   81 1  
    84   37   82 1  
    85   38   83 1  
    86   38   84 1  
    87   39   85 1  
    88   39   86 1  
# Name:          frag5-549-186/138278 -- energy: -19.421347
# Creation time: Sat Jun  5 12:53:43 2010


@<TRIPOS>MOLECULE
frag5-549-186/138278 -- energy: -19.421347
   86    88     1     1     1
SMALL
USER_CHARGES


@<TRIPOS>ATOM
      1 C1         -3.5825   -0.9001    0.2048 C.3        1 <1>        0.000
      2 C2         -3.7863   -0.7206   -1.3135 C.2        1 <1>        0.000
      3 O1         -2.5291   -1.7423    0.5169 O.3        1 <1>        0.000
      4 C3         -4.8759   -1.3852    0.8297 C.3        1 <1>        0.000
      5 C4         -4.5652    0.5358   -1.6938 C.2        1 <1>        0.000
      6 O3         -3.4543   -1.4129   -2.2694 O.2        1 <1>        0.000
      7 C5         -2.6195   -3.0733    0.8844 C.3        1 <1>        0.000
      8 C12        -1.2254   -5.2064    1.3331 C.3        1 <1>        0.000
      9 C6         -5.1282   -2.8589    0.5594 C.3        1 <1>        0.000
     10 N1         -4.1853    1.6614   -1.0199 N.am       1 <1>        0.000
     11 O4         -5.5080    0.3166   -2.4416 O.2        1 <1>        0.000
     12 C8         -1.3104   -3.7966    0.7563 C.3        1 <1>        0.000
     13 C9         -3.8718   -3.6709    0.2488 C.3        1 <1>        0.000
     14 C10        -2.9626    2.4424   -1.2768 C.3        1 <1>        0.000
     15 C11        -5.0998    2.2580   -0.0762 C.3        1 <1>        0.000
     16 C28         1.5850    3.8173   -1.8449 C.2        1 <1>        0.000
     17 C29         2.8334   -5.3524   -0.7142 C.2        1 <1>        0.000
     18 C31         3.1071    3.8240   -1.9958 C.3        1 <1>        0.000
     19 C13        -1.6788    1.6327   -1.5130 C.2        1 <1>        0.000
     20 C14        -2.6446    3.5044   -0.2422 C.3        1 <1>        0.000
     21 C15        -5.1325    3.7505    0.1130 C.3        1 <1>        0.000
     22 C16        -0.0242   -5.8932    0.7945 C.2        1 <1>        0.000
     23 O6         -0.7694    1.9459   -2.4401 O.3        1 <1>        0.000
     24 O7         -1.4595    0.6579   -0.7921 O.2        1 <1>        0.000
     25 C17        -3.7938    4.4362    0.0188 C.3        1 <1>        0.000
     26 C18         1.0297   -6.3825    1.4749 C.2        1 <1>        0.000
     27 C21        -0.6883    3.2366   -2.9835 C.3        1 <1>        0.000
     28 C22         2.2546   -7.0000    1.0297 C.2        1 <1>        0.000
     29 C24         0.6743    3.8530   -3.0571 C.3        1 <1>        0.000
     30 C25         3.0869   -6.5392    0.0660 C.2        1 <1>        0.000
     31 O8          1.0866    3.8608   -0.7123 O.2        1 <1>        0.000
     32 C32         1.9979   -5.3301   -1.7563 C.2        1 <1>        0.000
     33 C35         3.4730    3.2657   -3.3237 C.2        1 <1>        0.000
     34 C37         1.4387   -4.3692   -2.7306 C.3        1 <1>        0.000
     35 C40         3.8426    2.0310   -3.6843 C.2        1 <1>        0.000
     36 C41         1.4460   -2.8923   -2.4196 C.3        1 <1>        0.000
     37 C44         4.0361    0.8157   -2.8511 C.3        1 <1>        0.000
     38 C46         2.0828   -2.0174   -3.4604 C.3        1 <1>        0.000
     39 C48         2.8102    0.1771   -2.2545 C.3        1 <1>        0.000
     40 C49         1.9310   -0.5360   -3.2446 C.2        1 <1>        0.000
     41 O13         1.1023    0.0996   -3.9039 O.2        1 <1>        0.000
     42 H          -3.3142    0.0715    0.6197 H.spc      1 <1>        0.000
     43 H          -5.6969   -0.8156    0.3942 H.spc      1 <1>        0.000
     44 H          -4.8038   -1.2463    1.9084 H.spc      1 <1>        0.000
     45 H          -2.7826   -3.1967    1.9550 H.spc      1 <1>        0.000
     46 H          -1.1537   -5.1497    2.4193 H.spc      1 <1>        0.000
     47 H          -2.1182   -5.7662    1.0544 H.spc      1 <1>        0.000
     48 H          -5.7703   -2.9164   -0.3195 H.spc      1 <1>        0.000
     49 H          -5.5634   -3.2793    1.4660 H.spc      1 <1>        0.000
     50 H          -1.1397   -3.9069   -0.3146 H.spc      1 <1>        0.000
     51 H          -0.5913   -3.2042    1.3221 H.spc      1 <1>        0.000
     52 H          -4.0098   -4.6732    0.6543 H.spc      1 <1>        0.000
     53 H          -3.7319   -3.6747   -0.8322 H.spc      1 <1>        0.000
     54 H          -3.2502    2.9183   -2.2143 H.spc      1 <1>        0.000
     55 H          -6.0875    2.0145   -0.4677 H.spc      1 <1>        0.000
     56 H          -4.7791    1.8710    0.8910 H.spc      1 <1>        0.000
     57 H           3.3476   -4.4310   -0.4406 H.spc      1 <1>        0.000
     58 H           3.4766    4.8463   -1.9160 H.spc      1 <1>        0.000
     59 H           3.5539    3.2159   -1.2092 H.spc      1 <1>        0.000
     60 H          -2.4116    2.9959    0.6934 H.spc      1 <1>        0.000
     61 H          -1.8153    4.1002   -0.6234 H.spc      1 <1>        0.000
     62 H          -5.5074    3.9310    1.1205 H.spc      1 <1>        0.000
     63 H          -5.7495    4.1551   -0.6893 H.spc      1 <1>        0.000
     64 H           0.0086   -6.0169   -0.2880 H.spc      1 <1>        0.000
     65 H          -3.8446    5.1289   -0.8212 H.spc      1 <1>        0.000
     66 H          -3.6085    4.9155    0.9801 H.spc      1 <1>        0.000
     67 H           0.9410   -6.2963    2.5579 H.spc      1 <1>        0.000
     68 H          -1.0340    3.1502   -4.0136 H.spc      1 <1>        0.000
     69 H          -1.2715    3.8773   -2.3220 H.spc      1 <1>        0.000
     70 H           2.5392   -7.9318    1.5183 H.spc      1 <1>        0.000
     71 H           1.1995    3.2673   -3.8116 H.spc      1 <1>        0.000
     72 H           0.4865    4.9131   -3.2274 H.spc      1 <1>        0.000
     73 H           4.0019   -7.0976   -0.1318 H.spc      1 <1>        0.000
     74 H           1.6078   -6.3298   -1.9473 H.spc      1 <1>        0.000
     75 H           3.4337    3.9837   -4.1429 H.spc      1 <1>        0.000
     76 H           0.3823   -4.6296   -2.7958 H.spc      1 <1>        0.000
     77 H           2.0775   -4.4669   -3.6084 H.spc      1 <1>        0.000
     78 H           4.0299    1.8965   -4.7496 H.spc      1 <1>        0.000
     79 H           2.0321   -2.7692   -1.5089 H.spc      1 <1>        0.000
     80 H           0.4028   -2.5840   -2.3501 H.spc      1 <1>        0.000
     81 H           4.6416    1.1356   -2.0031 H.spc      1 <1>        0.000
     82 H           4.4601    0.0668   -3.5200 H.spc      1 <1>        0.000
     83 H           1.5859   -2.2457   -4.4033 H.spc      1 <1>        0.000
     84 H           3.1520   -2.2271   -3.4294 H.spc      1 <1>        0.000
     85 H           2.2138    0.9788   -1.8191 H.spc      1 <1>        0.000
     86 H           3.1563   -0.5701   -1.5404 H.spc      1 <1>        0.000
@<TRIPOS>BOND
     1   20   25 1  
     2   15   21 1  
     3   19   24 2  
     4   10   15 1  
     5   19   23 1  
     6   14   19 1  
     7    8   22 1  
     8   10   14 1  
     9   14   20 1  
    10   12    8 1  
    11   16   31 2  
    12   17   32 2  
    13   18   33 1  
    14   32   34 1  
    15   33   35 2  
    16   34   36 1  
    17   35   37 1  
    18   36   38 1  
    19   37   39 1  
    20   16   18 1  
    21   30   17 1  
    22   29   16 1  
    23   28   30 2  
    24   27   29 1  
    25   26   28 1  
    26    1    2 1  
    27    1    3 1  
    28    1    4 1  
    29   23   27 1  
    30    2    5 1  
    31   22   26 2  
    32    2    6 2  
    33    3    7 1  
    34    4    9 1  
    35    5   10 am 
    36    5   11 2  
    37   21   25 1  
    38    7   12 1  
    39    7   13 1  
    40    9   13 1  
    41   38   40 1  
    42   39   40 1  
    43   40   41 2  
    44    1   42 1  
    45    4   43 1  
    46    4   44 1  
    47    7   45 1  
    48    8   46 1  
    49    8   47 1  
    50    9   48 1  
    51    9   49 1  
    52   12   50 1  
    53   12   51 1  
    54   13   52 1  
    55   13   53 1  
    56   14   54 1  
    57   15   55 1  
    58   15   56 1  
    59   17   57 1  
    60   18   58 1  
    61   18   59 1  
    62   20   60 1  
    63   20   61 1  
    64   21   62 1  
    65   21   63 1  
    66   22   64 1  
    67   25   65 1  
    68   25   66 1  
    69   26   67 1  
    70   27   68 1  
    71   27   69 1  
    72   28   70 1  
    73   29   71 1  
    74   29   72 1  
    75   30   73 1  
    76   32   74 1  
    77   33   75 1  
    78   34   76 1  
    79   34   77 1  
    80   35   78 1  
    81   36   79 1  
    82   36   80 1  
    83   37   81 1  
    84   37   82 1  
    85   38   83 1  
    86   38   84 1  
    87   39   85 1  
    88   39   86 1  
# Name:          frag5-549-186/138278 -- energy: -21.015488
# Creation time: Sat Jun  5 12:53:43 2010


@<TRIPOS>MOLECULE
frag5-549-186/138278 -- energy: -21.015488
   86    88     1     1     1
SMALL
USER_CHARGES


@<TRIPOS>ATOM
      1 C1         -3.0469   -0.6468    0.5852 C.3        1 <1>        0.000
      2 C2         -3.3314   -0.8109   -0.9147 C.2        1 <1>        0.000
      3 O1         -1.8176   -1.1599    0.9654 O.3        1 <1>        0.000
      4 C3         -4.1760   -1.2874    1.3679 C.3        1 <1>        0.000
      5 C4         -4.3142    0.2124   -1.5060 C.2        1 <1>        0.000
      6 O3         -2.9231   -1.6381   -1.7252 O.2        1 <1>        0.000
      7 C5         -1.5333   -2.3859    1.5477 C.3        1 <1>        0.000
      8 C12         0.2726   -4.2562    1.6599 C.3        1 <1>        0.000
      9 C6         -4.0648   -2.7945    1.4684 C.3        1 <1>        0.000
     10 N1         -4.1522    1.5049   -1.0645 N.am       1 <1>        0.000
     11 O4         -5.1702   -0.2882   -2.2146 O.2        1 <1>        0.000
     12 C8         -0.1250   -2.8470    1.2818 C.3        1 <1>        0.000
     13 C9         -2.6721   -3.3644    1.2846 C.3        1 <1>        0.000
     14 C10        -3.2837    2.5072   -1.7336 C.3        1 <1>        0.000
     15 C11        -5.1900    2.0579   -0.2271 C.3        1 <1>        0.000
     16 C28         0.7629    4.2082   -2.4930 C.2        1 <1>        0.000
     17 C29         1.4889   -6.6841   -1.8969 C.2        1 <1>        0.000
     18 C31         2.2163    3.7525   -2.4943 C.3        1 <1>        0.000
     19 C13        -1.9318    1.8877   -2.1010 C.2        1 <1>        0.000
     20 C14        -3.0366    3.8145   -0.9957 C.3        1 <1>        0.000
     21 C15        -4.8962    3.2820    0.5896 C.3        1 <1>        0.000
     22 C16         0.0481   -5.2172    0.5603 C.2        1 <1>        0.000
     23 O6         -1.2366    2.1454   -3.2179 O.3        1 <1>        0.000
     24 O7         -1.4416    1.0812   -1.3049 O.2        1 <1>        0.000
     25 C17        -4.1943    4.3465   -0.1967 C.3        1 <1>        0.000
     26 C18        -0.5264   -6.4085    0.3809 C.2        1 <1>        0.000
     27 C21        -1.2572    3.3933   -3.8656 C.3        1 <1>        0.000
     28 C22        -0.6355   -7.2572   -0.7730 C.2        1 <1>        0.000
     29 C24        -0.0190    4.2506   -3.7811 C.3        1 <1>        0.000
     30 C25         0.2540   -7.4032   -1.7765 C.2        1 <1>        0.000
     31 O8          0.2091    4.6091   -1.4615 O.2        1 <1>        0.000
     32 C32         1.6911   -5.4528   -2.3861 C.2        1 <1>        0.000
     33 C35         2.6010    2.8802   -1.3578 C.2        1 <1>        0.000
     34 C37         2.9263   -4.6364   -2.4902 C.3        1 <1>        0.000
     35 C40         2.4030    1.5677   -1.1731 C.2        1 <1>        0.000
     36 C41         2.6835   -3.1509   -2.7063 C.3        1 <1>        0.000
     37 C44         1.7026    0.5828   -2.0387 C.3        1 <1>        0.000
     38 C46         3.6020   -2.1485   -2.0582 C.3        1 <1>        0.000
     39 C48         2.4922   -0.0333   -3.1582 C.3        1 <1>        0.000
     40 C49         3.7121   -0.8182   -2.7607 C.2        1 <1>        0.000
     41 O13         4.8326   -0.3518   -3.0036 O.2        1 <1>        0.000
     42 H          -2.9963    0.4195    0.8057 H.spc      1 <1>        0.000
     43 H          -5.1053   -1.0623    0.8447 H.spc      1 <1>        0.000
     44 H          -4.1386   -0.8885    2.3816 H.spc      1 <1>        0.000
     45 H          -1.5097   -2.2954    2.6337 H.spc      1 <1>        0.000
     46 H           1.3368   -4.2552    1.8958 H.spc      1 <1>        0.000
     47 H          -0.3394   -4.5639    2.5078 H.spc      1 <1>        0.000
     48 H          -4.6746   -3.2035    0.6628 H.spc      1 <1>        0.000
     49 H          -4.3764   -3.0604    2.4785 H.spc      1 <1>        0.000
     50 H          -0.0180   -2.8078    0.1978 H.spc      1 <1>        0.000
     51 H           0.5011   -2.2044    1.9008 H.spc      1 <1>        0.000
     52 H          -2.5654   -4.1722    2.0086 H.spc      1 <1>        0.000
     53 H          -2.5917   -3.6661    0.2403 H.spc      1 <1>        0.000
     54 H          -3.8654    2.7850   -2.6126 H.spc      1 <1>        0.000
     55 H          -5.9735    2.3656   -0.9197 H.spc      1 <1>        0.000
     56 H          -5.4035    1.2786    0.5045 H.spc      1 <1>        0.000
     57 H           2.3784   -7.2067   -1.5449 H.spc      1 <1>        0.000
     58 H           2.3620    3.1681   -3.4028 H.spc      1 <1>        0.000
     59 H           2.8280    4.6517   -2.4218 H.spc      1 <1>        0.000
     60 H          -2.2359    3.6180   -0.2827 H.spc      1 <1>        0.000
     61 H          -2.8211    4.5620   -1.7592 H.spc      1 <1>        0.000
     62 H          -4.2434    2.9875    1.4113 H.spc      1 <1>        0.000
     63 H          -5.8463    3.6912    0.9332 H.spc      1 <1>        0.000
     64 H           0.4740   -4.8469   -0.3722 H.spc      1 <1>        0.000
     65 H          -4.9135    4.7737   -0.8956 H.spc      1 <1>        0.000
     66 H          -3.8035    5.0794    0.5091 H.spc      1 <1>        0.000
     67 H          -1.0006   -6.8121    1.2755 H.spc      1 <1>        0.000
     68 H          -1.3838    3.1691   -4.9247 H.spc      1 <1>        0.000
     69 H          -2.0413    3.9654   -3.3696 H.spc      1 <1>        0.000
     70 H          -1.5447   -7.8539   -0.8463 H.spc      1 <1>        0.000
     71 H           0.6556    3.8720   -4.5490 H.spc      1 <1>        0.000
     72 H          -0.3642    5.2794   -3.8836 H.spc      1 <1>        0.000
     73 H           0.0153   -8.1249   -2.5577 H.spc      1 <1>        0.000
     74 H           0.7952   -4.9680   -2.7739 H.spc      1 <1>        0.000
     75 H           3.1262    3.3851   -0.5471 H.spc      1 <1>        0.000
     76 H           3.4766   -4.9994   -3.3582 H.spc      1 <1>        0.000
     77 H           3.4571   -4.7386   -1.5437 H.spc      1 <1>        0.000
     78 H           2.8174    1.1617   -0.2503 H.spc      1 <1>        0.000
     79 H           1.7075   -2.9618   -2.2594 H.spc      1 <1>        0.000
     80 H           2.8208   -3.0006   -3.7771 H.spc      1 <1>        0.000
     81 H           0.8924    1.1333   -2.5168 H.spc      1 <1>        0.000
     82 H           1.4263   -0.2428   -1.3829 H.spc      1 <1>        0.000
     83 H           4.5991   -2.5887   -2.0698 H.spc      1 <1>        0.000
     84 H           3.1901   -1.9441   -1.0699 H.spc      1 <1>        0.000
     85 H           2.8504    0.7956   -3.7687 H.spc      1 <1>        0.000
     86 H           1.8229   -0.7404   -3.6481 H.spc      1 <1>        0.000
@<TRIPOS>BOND
     1   20   25 1  
     2   15   21 1  
     3   19   24 2  
     4   10   15 1  
     5   19   23 1  
     6   14   19 1  
     7    8   22 1  
     8   10   14 1  
     9   14   20 1  
    10   12    8 1  
    11   16   31 2  
    12   17   32 2  
    13   18   33 1  
    14   32   34 1  
    15   33   35 2  
    16   34   36 1  
    17   35   37 1  
    18   36   38 1  
    19   37   39 1  
    20   16   18 1  
    21   30   17 1  
    22   29   16 1  
    23   28   30 2  
    24   27   29 1  
    25   26   28 1  
    26    1    2 1  
    27    1    3 1  
    28    1    4 1  
    29   23   27 1  
    30    2    5 1  
    31   22   26 2  
    32    2    6 2  
    33    3    7 1  
    34    4    9 1  
    35    5   10 am 
    36    5   11 2  
    37   21   25 1  
    38    7   12 1  
    39    7   13 1  
    40    9   13 1  
    41   38   40 1  
    42   39   40 1  
    43   40   41 2  
    44    1   42 1  
    45    4   43 1  
    46    4   44 1  
    47    7   45 1  
    48    8   46 1  
    49    8   47 1  
    50    9   48 1  
    51    9   49 1  
    52   12   50 1  
    53   12   51 1  
    54   13   52 1  
    55   13   53 1  
    56   14   54 1  
    57   15   55 1  
    58   15   56 1  
    59   17   57 1  
    60   18   58 1  
    61   18   59 1  
    62   20   60 1  
    63   20   61 1  
    64   21   62 1  
    65   21   63 1  
    66   22   64 1  
    67   25   65 1  
    68   25   66 1  
    69   26   67 1  
    70   27   68 1  
    71   27   69 1  
    72   28   70 1  
    73   29   71 1  
    74   29   72 1  
    75   30   73 1  
    76   32   74 1  
    77   33   75 1  
    78   34   76 1  
    79   34   77 1  
    80   35   78 1  
    81   36   79 1  
    82   36   80 1  
    83   37   81 1  
    84   37   82 1  
    85   38   83 1  
    86   38   84 1  
    87   39   85 1  
    88   39   86 1  
# Name:          frag5-549-186/138278 -- energy: -19.718752
# Creation time: Sat Jun  5 12:53:43 2010


@<TRIPOS>MOLECULE
frag5-549-186/138278 -- energy: -19.718752
   86    88     1     1     1
SMALL
USER_CHARGES


@<TRIPOS>ATOM
      1 C1         -3.8973   -1.0184   -0.5594 C.3        1 <1>        0.000
      2 C2         -3.5534   -0.1290   -1.7514 C.2        1 <1>        0.000
      3 O1         -2.9032   -1.9632   -0.3725 O.3        1 <1>        0.000
      4 C3         -5.2692   -1.6316   -0.7824 C.3        1 <1>        0.000
      5 C4         -4.1425    1.2752   -1.6933 C.2        1 <1>        0.000
      6 O3         -2.8783   -0.3578   -2.7482 O.2        1 <1>        0.000
      7 C5         -2.9993   -3.3040   -0.6931 C.3        1 <1>        0.000
      8 C12        -1.5914   -5.1140    0.3370 C.3        1 <1>        0.000
      9 C6         -5.2450   -2.7976   -1.7556 C.3        1 <1>        0.000
     10 N1         -4.0883    1.8463   -0.4509 N.am       1 <1>        0.000
     11 O4         -4.6680    1.6409   -2.7349 O.2        1 <1>        0.000
     12 C8         -1.6847   -4.0394   -0.7312 C.3        1 <1>        0.000
     13 C9         -3.9093   -3.5088   -1.8893 C.3        1 <1>        0.000
     14 C10        -2.9400    2.6674    0.0047 C.3        1 <1>        0.000
     15 C11        -5.3488    2.0557    0.2415 C.3        1 <1>        0.000
     16 C28         1.7764    3.8949   -2.6666 C.2        1 <1>        0.000
     17 C29         3.2080   -5.0275    0.7063 C.2        1 <1>        0.000
     18 C31         1.1212    3.4357   -3.9627 C.3        1 <1>        0.000
     19 C13        -1.6025    1.9506   -0.2836 C.2        1 <1>        0.000
     20 C14        -2.9247    3.0936    1.4664 C.3        1 <1>        0.000
     21 C15        -5.3133    2.3602    1.7131 C.3        1 <1>        0.000
     22 C16        -0.2155   -5.5921    0.6713 C.2        1 <1>        0.000
     23 O6         -0.5403    2.4886   -0.9019 O.3        1 <1>        0.000
     24 O7         -1.5060    0.7823    0.1150 O.2        1 <1>        0.000
     25 C17        -4.2721    3.3829    2.0677 C.3        1 <1>        0.000
     26 C18         0.4278   -5.7046    1.8468 C.2        1 <1>        0.000
     27 C21        -0.4249    3.8469   -1.2712 C.3        1 <1>        0.000
     28 C22         1.7479   -6.1513    2.2781 C.2        1 <1>        0.000
     29 C24         0.9718    4.3835   -1.4841 C.3        1 <1>        0.000
     30 C25         2.9996   -5.8912    1.8209 C.2        1 <1>        0.000
     31 O8          3.0101    3.9729   -2.5730 O.2        1 <1>        0.000
     32 C32         3.0413   -5.4160   -0.5662 C.2        1 <1>        0.000
     33 C35         1.9640    2.5723   -4.8378 C.2        1 <1>        0.000
     34 C37         3.1410   -4.6985   -1.8537 C.3        1 <1>        0.000
     35 C40         2.8024    1.5558   -4.5876 C.2        1 <1>        0.000
     36 C41         2.5285   -3.3084   -1.9607 C.3        1 <1>        0.000
     37 C44         3.1962    0.8979   -3.3115 C.3        1 <1>        0.000
     38 C46         3.0687   -2.4738   -3.0896 C.3        1 <1>        0.000
     39 C48         2.1604   -0.0637   -2.8072 C.3        1 <1>        0.000
     40 C49         2.1785   -1.3604   -3.5577 C.2        1 <1>        0.000
     41 O13         1.4967   -1.5093   -4.5763 O.2        1 <1>        0.000
     42 H          -3.9442   -0.4344    0.3598 H.spc      1 <1>        0.000
     43 H          -5.9140   -0.8602   -1.2034 H.spc      1 <1>        0.000
     44 H          -5.6261   -2.0063    0.1769 H.spc      1 <1>        0.000
     45 H          -3.4905   -3.8025    0.1425 H.spc      1 <1>        0.000
     46 H          -1.9909   -4.6721    1.2498 H.spc      1 <1>        0.000
     47 H          -2.1285   -5.9788   -0.0527 H.spc      1 <1>        0.000
     48 H          -5.4783   -2.3873   -2.7381 H.spc      1 <1>        0.000
     49 H          -5.9527   -3.5344   -1.3755 H.spc      1 <1>        0.000
     50 H          -1.5968   -4.5227   -1.7042 H.spc      1 <1>        0.000
     51 H          -0.8887   -3.3165   -0.5527 H.spc      1 <1>        0.000
     52 H          -4.1111   -4.5768   -1.9712 H.spc      1 <1>        0.000
     53 H          -3.4030   -3.0982   -2.7629 H.spc      1 <1>        0.000
     54 H          -3.0664    3.5826   -0.5737 H.spc      1 <1>        0.000
     55 H          -5.7870    2.9391   -0.2229 H.spc      1 <1>        0.000
     56 H          -5.8818    1.1085    0.1581 H.spc      1 <1>        0.000
     57 H           3.5183   -4.0003    0.8979 H.spc      1 <1>        0.000
     58 H           0.2558    2.8374   -3.6777 H.spc      1 <1>        0.000
     59 H           0.9014    4.3368   -4.5353 H.spc      1 <1>        0.000
     60 H          -2.5050    2.2599    2.0294 H.spc      1 <1>        0.000
     61 H          -2.3566    4.0227    1.5139 H.spc      1 <1>        0.000
     62 H          -5.0699    1.4377    2.2402 H.spc      1 <1>        0.000
     63 H          -6.2866    2.7613    1.9957 H.spc      1 <1>        0.000
     64 H           0.3715   -5.9056   -0.1920 H.spc      1 <1>        0.000
     65 H          -4.6076    4.3436    1.6770 H.spc      1 <1>        0.000
     66 H          -4.1577    3.3742    3.1516 H.spc      1 <1>        0.000
     67 H          -0.1901   -5.3822    2.6849 H.spc      1 <1>        0.000
     68 H          -0.9285    3.9375   -2.2336 H.spc      1 <1>        0.000
     69 H          -0.8396    4.4176   -0.4402 H.spc      1 <1>        0.000
     70 H           1.7249   -6.8253    3.1344 H.spc      1 <1>        0.000
     71 H           0.8373    5.4508   -1.6596 H.spc      1 <1>        0.000
     72 H           1.5334    4.0555   -0.6094 H.spc      1 <1>        0.000
     73 H           3.8574   -6.3494    2.3132 H.spc      1 <1>        0.000
     74 H           2.7808   -6.4692   -0.6714 H.spc      1 <1>        0.000
     75 H           1.8823    2.8168   -5.8969 H.spc      1 <1>        0.000
     76 H           2.5851   -5.3101   -2.5644 H.spc      1 <1>        0.000
     77 H           4.2089   -4.5525   -2.0164 H.spc      1 <1>        0.000
     78 H           3.2792    1.1380   -5.4743 H.spc      1 <1>        0.000
     79 H           2.7645   -2.7837   -1.0349 H.spc      1 <1>        0.000
     80 H           1.4627   -3.4428   -2.1451 H.spc      1 <1>        0.000
     81 H           3.3215    1.6771   -2.5597 H.spc      1 <1>        0.000
     82 H           4.1116    0.3354   -3.4953 H.spc      1 <1>        0.000
     83 H           3.1950   -3.1462   -3.9382 H.spc      1 <1>        0.000
     84 H           3.9805   -2.0055   -2.7190 H.spc      1 <1>        0.000
     85 H           1.1798    0.3926   -2.9424 H.spc      1 <1>        0.000
     86 H           2.3755   -0.2752   -1.7598 H.spc      1 <1>        0.000
@<TRIPOS>BOND
     1   20   25 1  
     2   15   21 1  
     3   19   24 2  
     4   10   15 1  
     5   19   23 1  
     6   14   19 1  
     7    8   22 1  
     8   10   14 1  
     9   14   20 1  
    10   12    8 1  
    11   16   31 2  
    12   17   32 2  
    13   18   33 1  
    14   32   34 1  
    15   33   35 2  
    16   34   36 1  
    17   35   37 1  
    18   36   38 1  
    19   37   39 1  
    20   16   18 1  
    21   30   17 1  
    22   29   16 1  
    23   28   30 2  
    24   27   29 1  
    25   26   28 1  
    26    1    2 1  
    27    1    3 1  
    28    1    4 1  
    29   23   27 1  
    30    2    5 1  
    31   22   26 2  
    32    2    6 2  
    33    3    7 1  
    34    4    9 1  
    35    5   10 am 
    36    5   11 2  
    37   21   25 1  
    38    7   12 1  
    39    7   13 1  
    40    9   13 1  
    41   38   40 1  
    42   39   40 1  
    43   40   41 2  
    44    1   42 1  
    45    4   43 1  
    46    4   44 1  
    47    7   45 1  
    48    8   46 1  
    49    8   47 1  
    50    9   48 1  
    51    9   49 1  
    52   12   50 1  
    53   12   51 1  
    54   13   52 1  
    55   13   53 1  
    56   14   54 1  
    57   15   55 1  
    58   15   56 1  
    59   17   57 1  
    60   18   58 1  
    61   18   59 1  
    62   20   60 1  
    63   20   61 1  
    64   21   62 1  
    65   21   63 1  
    66   22   64 1  
    67   25   65 1  
    68   25   66 1  
    69   26   67 1  
    70   27   68 1  
    71   27   69 1  
    72   28   70 1  
    73   29   71 1  
    74   29   72 1  
    75   30   73 1  
    76   32   74 1  
    77   33   75 1  
    78   34   76 1  
    79   34   77 1  
    80   35   78 1  
    81   36   79 1  
    82   36   80 1  
    83   37   81 1  
    84   37   82 1  
    85   38   83 1  
    86   38   84 1  
    87   39   85 1  
    88   39   86 1  
# Name:          frag5-549-186/138278 -- energy: -20.158468
# Creation time: Sat Jun  5 12:53:43 2010


@<TRIPOS>MOLECULE
frag5-549-186/138278 -- energy: -20.158468
   86    88     1     1     1
SMALL
USER_CHARGES


@<TRIPOS>ATOM
      1 C1         -3.5753   -0.7828    0.1893 C.3        1 <1>        0.000
      2 C2         -3.5624   -0.3652   -1.2877 C.2        1 <1>        0.000
      3 O1         -2.4397   -1.4872    0.5330 O.3        1 <1>        0.000
      4 C3         -4.8502   -1.5393    0.5300 C.3        1 <1>        0.000
      5 C4         -4.5753    0.7194   -1.6039 C.2        1 <1>        0.000
      6 O3         -2.9013   -0.7346   -2.2532 O.2        1 <1>        0.000
      7 C5         -2.2935   -2.8279    0.8373 C.3        1 <1>        0.000
      8 C12        -0.4268   -4.5634    1.3453 C.3        1 <1>        0.000
      9 C6         -4.7936   -3.0320    0.2541 C.3        1 <1>        0.000
     10 N1         -4.4639    1.8879   -0.8893 N.am       1 <1>        0.000
     11 O4         -5.4644    0.3015   -2.3365 O.2        1 <1>        0.000
     12 C8         -0.8918   -3.3302    0.5989 C.3        1 <1>        0.000
     13 C9         -3.4046   -3.6462    0.1889 C.3        1 <1>        0.000
     14 C10        -3.3467    2.8677   -0.9075 C.3        1 <1>        0.000
     15 C11        -5.6452    2.3288   -0.1832 C.3        1 <1>        0.000
     16 C28         1.4950    4.1408   -3.4255 C.2        1 <1>        0.000
     17 C29         2.6643   -6.2340   -1.8606 C.2        1 <1>        0.000
     18 C31         2.2967    3.3989   -2.3657 C.3        1 <1>        0.000
     19 C13        -1.9513    2.2778   -1.1765 C.2        1 <1>        0.000
     20 C14        -3.2401    3.7859    0.3074 C.3        1 <1>        0.000
     21 C15        -5.7837    3.7537    0.2648 C.3        1 <1>        0.000
     22 C16         0.2879   -5.5711    0.5326 C.2        1 <1>        0.000
     23 O6         -1.1202    2.7493   -2.1223 O.3        1 <1>        0.000
     24 O7         -1.5703    1.3388   -0.4748 O.2        1 <1>        0.000
     25 C17        -4.5335    4.3275    0.8703 C.3        1 <1>        0.000
     26 C18         1.0757   -6.6019    0.8364 C.2        1 <1>        0.000
     27 C21        -0.6832    4.0786   -1.9913 C.3        1 <1>        0.000
     28 C22         1.7781   -7.5557    0.0492 C.2        1 <1>        0.000
     29 C24         0.1151    4.6848   -3.1191 C.3        1 <1>        0.000
     30 C25         2.4673   -7.4177   -1.0846 C.2        1 <1>        0.000
     31 O8          1.9773    4.3893   -4.5405 O.2        1 <1>        0.000
     32 C32         1.8417   -5.6003   -2.6975 C.2        1 <1>        0.000
     33 C35         3.4142    2.5908   -2.9245 C.2        1 <1>        0.000
     34 C37         2.0060   -4.3502   -3.4785 C.3        1 <1>        0.000
     35 C40         3.4125    1.2806   -3.2212 C.2        1 <1>        0.000
     36 C41         2.8079   -3.2589   -2.7966 C.3        1 <1>        0.000
     37 C44         2.2860    0.3076   -3.0891 C.3        1 <1>        0.000
     38 C46         2.2610   -2.7083   -1.5005 C.3        1 <1>        0.000
     39 C48         1.9300   -0.1211   -1.6823 C.3        1 <1>        0.000
     40 C49         2.6757   -1.3073   -1.1301 C.2        1 <1>        0.000
     41 O13         3.6473   -1.1318   -0.3802 O.2        1 <1>        0.000
     42 H          -3.5670    0.1249    0.7928 H.spc      1 <1>        0.000
     43 H          -5.6406   -1.1296   -0.0989 H.spc      1 <1>        0.000
     44 H          -5.0140   -1.4200    1.6010 H.spc      1 <1>        0.000
     45 H          -2.4206   -2.9615    1.9116 H.spc      1 <1>        0.000
     46 H           0.2784   -4.2195    2.1019 H.spc      1 <1>        0.000
     47 H          -1.3242   -5.0520    1.7249 H.spc      1 <1>        0.000
     48 H          -5.2391   -3.1782   -0.7299 H.spc      1 <1>        0.000
     49 H          -5.3034   -3.5165    1.0869 H.spc      1 <1>        0.000
     50 H          -0.8651   -3.6088   -0.4546 H.spc      1 <1>        0.000
     51 H          -0.2399   -2.5272    0.9429 H.spc      1 <1>        0.000
     52 H          -3.4558   -4.5878    0.7356 H.spc      1 <1>        0.000
     53 H          -3.1518   -3.7300   -0.8681 H.spc      1 <1>        0.000
     54 H          -3.6517    3.4659   -1.7661 H.spc      1 <1>        0.000
     55 H          -6.4516    2.1968   -0.9046 H.spc      1 <1>        0.000
     56 H          -5.6292    1.7580    0.7453 H.spc      1 <1>        0.000
     57 H           3.6465   -5.7743   -1.7506 H.spc      1 <1>        0.000
     58 H           2.7324    4.1457   -1.7020 H.spc      1 <1>        0.000
     59 H           1.6166    2.7127   -1.8611 H.spc      1 <1>        0.000
     60 H          -2.7992    3.1818    1.1004 H.spc      1 <1>        0.000
     61 H          -2.6718    4.6549   -0.0242 H.spc      1 <1>        0.000
     62 H          -6.5561    3.7776    1.0335 H.spc      1 <1>        0.000
     63 H          -6.0187    4.3490   -0.6175 H.spc      1 <1>        0.000
     64 H           0.1391   -5.4440   -0.5397 H.spc      1 <1>        0.000
     65 H          -4.5445    5.3965    0.6576 H.spc      1 <1>        0.000
     66 H          -4.5489    4.0654    1.9282 H.spc      1 <1>        0.000
     67 H           1.2093   -6.7432    1.9089 H.spc      1 <1>        0.000
     68 H          -1.5938    4.6748   -1.9325 H.spc      1 <1>        0.000
     69 H          -0.0103    4.0755   -1.1338 H.spc      1 <1>        0.000
     70 H           1.7482   -8.5732    0.4389 H.spc      1 <1>        0.000
     71 H          -0.4702    4.4807   -4.0157 H.spc      1 <1>        0.000
     72 H           0.2840    5.7183   -2.8167 H.spc      1 <1>        0.000
     73 H           2.9399   -8.3222   -1.4675 H.spc      1 <1>        0.000
     74 H           0.8763   -6.0882   -2.8314 H.spc      1 <1>        0.000
     75 H           4.3446    3.1254   -3.1158 H.spc      1 <1>        0.000
     76 H           1.0053   -3.9484   -3.6374 H.spc      1 <1>        0.000
     77 H           2.5510   -4.6178   -4.3838 H.spc      1 <1>        0.000
     78 H           4.3491    0.8771   -3.6061 H.spc      1 <1>        0.000
     79 H           2.8191   -2.4205   -3.4931 H.spc      1 <1>        0.000
     80 H           3.7678   -3.7100   -2.5451 H.spc      1 <1>        0.000
     81 H           2.6032   -0.5958   -3.6100 H.spc      1 <1>        0.000
     82 H           1.4036    0.8101   -3.4852 H.spc      1 <1>        0.000
     83 H           2.6494   -3.3540   -0.7129 H.spc      1 <1>        0.000
     84 H           1.1781   -2.6785   -1.6208 H.spc      1 <1>        0.000
     85 H           0.8803   -0.4131   -1.7131 H.spc      1 <1>        0.000
     86 H           2.1836    0.7206   -1.0378 H.spc      1 <1>        0.000
@<TRIPOS>BOND
     1   20   25 1  
     2   15   21 1  
     3   19   24 2  
     4   10   15 1  
     5   19   23 1  
     6   14   19 1  
     7    8   22 1  
     8   10   14 1  
     9   14   20 1  
    10   12    8 1  
    11   16   31 2  
    12   17   32 2  
    13   18   33 1  
    14   32   34 1  
    15   33   35 2  
    16   34   36 1  
    17   35   37 1  
    18   36   38 1  
    19   37   39 1  
    20   16   18 1  
    21   30   17 1  
    22   29   16 1  
    23   28   30 2  
    24   27   29 1  
    25   26   28 1  
    26    1    2 1  
    27    1    3 1  
    28    1    4 1  
    29   23   27 1  
    30    2    5 1  
    31   22   26 2  
    32    2    6 2  
    33    3    7 1  
    34    4    9 1  
    35    5   10 am 
    36    5   11 2  
    37   21   25 1  
    38    7   12 1  
    39    7   13 1  
    40    9   13 1  
    41   38   40 1  
    42   39   40 1  
    43   40   41 2  
    44    1   42 1  
    45    4   43 1  
    46    4   44 1  
    47    7   45 1  
    48    8   46 1  
    49    8   47 1  
    50    9   48 1  
    51    9   49 1  
    52   12   50 1  
    53   12   51 1  
    54   13   52 1  
    55   13   53 1  
    56   14   54 1  
    57   15   55 1  
    58   15   56 1  
    59   17   57 1  
    60   18   58 1  
    61   18   59 1  
    62   20   60 1  
    63   20   61 1  
    64   21   62 1  
    65   21   63 1  
    66   22   64 1  
    67   25   65 1  
    68   25   66 1  
    69   26   67 1  
    70   27   68 1  
    71   27   69 1  
    72   28   70 1  
    73   29   71 1  
    74   29   72 1  
    75   30   73 1  
    76   32   74 1  
    77   33   75 1  
    78   34   76 1  
    79   34   77 1  
    80   35   78 1  
    81   36   79 1  
    82   36   80 1  
    83   37   81 1  
    84   37   82 1  
    85   38   83 1  
    86   38   84 1  
    87   39   85 1  
    88   39   86 1  
# Name:          frag5-549-186/138278 -- energy: -21.153486
# Creation time: Sat Jun  5 12:53:43 2010


@<TRIPOS>MOLECULE
frag5-549-186/138278 -- energy: -21.153486
   86    88     1     1     1
SMALL
USER_CHARGES


@<TRIPOS>ATOM
      1 C1         -3.5395   -0.9692    0.2117 C.3        1 <1>        0.000
      2 C2         -2.8776   -0.5207   -1.0957 C.2        1 <1>        0.000
      3 O1         -2.6910   -1.6856    1.0329 O.3        1 <1>        0.000
      4 C3         -4.7970   -1.7480   -0.1189 C.3        1 <1>        0.000
      5 C4         -3.5814    0.6469   -1.7816 C.2        1 <1>        0.000
      6 O3         -1.8856   -0.9244   -1.6904 O.2        1 <1>        0.000
      7 C5         -2.5927   -3.0597    1.1826 C.3        1 <1>        0.000
      8 C12        -0.9126   -4.9677    1.7096 C.3        1 <1>        0.000
      9 C6         -4.5437   -3.1996   -0.4707 C.3        1 <1>        0.000
     10 N1         -3.9265    1.6675   -0.9342 N.am       1 <1>        0.000
     11 O4         -3.8210    0.4604   -2.9633 O.2        1 <1>        0.000
     12 C8         -1.2265   -3.4944    1.6447 C.3        1 <1>        0.000
     13 C9         -3.2060   -3.7596   -0.0231 C.3        1 <1>        0.000
     14 C10        -3.0244    2.7848   -0.6222 C.3        1 <1>        0.000
     15 C11        -5.3276    1.9744   -0.7634 C.3        1 <1>        0.000
     16 C28         1.3153    4.1717   -3.5170 C.2        1 <1>        0.000
     17 C29         2.4885   -6.0519   -1.2148 C.2        1 <1>        0.000
     18 C31         0.9036    2.8796   -4.2033 C.3        1 <1>        0.000
     19 C13        -1.5650    2.3361   -0.4225 C.2        1 <1>        0.000
     20 C14        -3.4004    3.6803    0.5451 C.3        1 <1>        0.000
     21 C15        -5.7486    2.8218    0.4050 C.3        1 <1>        0.000
     22 C16        -0.3267   -5.4898    0.4637 C.2        1 <1>        0.000
     23 O6         -0.5079    2.9008   -1.0305 O.3        1 <1>        0.000
     24 O7         -1.3599    1.4104    0.3694 O.2        1 <1>        0.000
     25 C17        -4.8646    4.0178    0.6197 C.3        1 <1>        0.000
     26 C18        -0.5105   -6.5241   -0.3617 C.2        1 <1>        0.000
     27 C21        -0.6716    4.0282   -1.8559 C.3        1 <1>        0.000
     28 C22         0.1678   -6.9265   -1.5609 C.2        1 <1>        0.000
     29 C24         0.5557    4.7453   -2.3454 C.3        1 <1>        0.000
     30 C25         1.4485   -6.7476   -1.9241 C.2        1 <1>        0.000
     31 O8          2.2832    4.8264   -3.9344 O.2        1 <1>        0.000
     32 C32         2.5893   -4.7351   -0.9971 C.2        1 <1>        0.000
     33 C35         2.0669    2.0417   -4.5799 C.2        1 <1>        0.000
     34 C37         3.5726   -3.9060   -0.2651 C.3        1 <1>        0.000
     35 C40         2.8549    1.2799   -3.8102 C.2        1 <1>        0.000
     36 C41         3.7681   -2.4857   -0.7587 C.3        1 <1>        0.000
     37 C44         2.8194    1.0593   -2.3391 C.3        1 <1>        0.000
     38 C46         3.5009   -2.1207   -2.1967 C.3        1 <1>        0.000
     39 C48         1.9114   -0.0488   -1.8754 C.3        1 <1>        0.000
     40 C49         2.2032   -1.4009   -2.4765 C.2        1 <1>        0.000
     41 O13         1.3814   -1.9244   -3.2367 O.2        1 <1>        0.000
     42 H          -3.7999   -0.0794    0.7849 H.spc      1 <1>        0.000
     43 H          -5.2507   -1.2770   -0.9909 H.spc      1 <1>        0.000
     44 H          -5.4299   -1.7347    0.7685 H.spc      1 <1>        0.000
     45 H          -3.2032   -3.4027    2.0179 H.spc      1 <1>        0.000
     46 H          -0.1830   -5.1158    2.5058 H.spc      1 <1>        0.000
     47 H          -1.8489   -5.4982    1.8826 H.spc      1 <1>        0.000
     48 H          -4.5562   -3.2609   -1.5589 H.spc      1 <1>        0.000
     49 H          -5.3097   -3.7806    0.0429 H.spc      1 <1>        0.000
     50 H          -0.5373   -3.0925    0.9020 H.spc      1 <1>        0.000
     51 H          -1.1540   -3.1458    2.6749 H.spc      1 <1>        0.000
     52 H          -3.3774   -4.7965    0.2659 H.spc      1 <1>        0.000
     53 H          -2.5128   -3.6258   -0.8535 H.spc      1 <1>        0.000
     54 H          -3.1375    3.3903   -1.5214 H.spc      1 <1>        0.000
     55 H          -5.5981    2.5557   -1.6449 H.spc      1 <1>        0.000
     56 H          -5.8092    1.0103   -0.6001 H.spc      1 <1>        0.000
     57 H           3.2885   -6.6695   -0.8066 H.spc      1 <1>        0.000
     58 H           0.2897    2.3092   -3.5062 H.spc      1 <1>        0.000
     59 H           0.3668    3.1395   -5.1156 H.spc      1 <1>        0.000
     60 H          -3.1488    3.1402    1.4578 H.spc      1 <1>        0.000
     61 H          -2.8611    4.6187    0.4162 H.spc      1 <1>        0.000
     62 H          -5.6888    2.2026    1.3000 H.spc      1 <1>        0.000
     63 H          -6.7549    3.1878    0.2013 H.spc      1 <1>        0.000
     64 H           0.4867   -4.8524    0.1169 H.spc      1 <1>        0.000
     65 H          -5.0817    4.7394   -0.1678 H.spc      1 <1>        0.000
     66 H          -5.0671    4.4082    1.6170 H.spc      1 <1>        0.000
     67 H          -1.3270   -7.1849   -0.0704 H.spc      1 <1>        0.000
     68 H          -1.1597    3.6535   -2.7556 H.spc      1 <1>        0.000
     69 H          -1.2001    4.7565   -1.2409 H.spc      1 <1>        0.000
     70 H          -0.4493   -7.4571   -2.2860 H.spc      1 <1>        0.000
     71 H           0.1973    5.7156   -2.6893 H.spc      1 <1>        0.000
     72 H           1.2555    4.7092   -1.5105 H.spc      1 <1>        0.000
     73 H           1.7368   -7.1861   -2.8794 H.spc      1 <1>        0.000
     74 H           1.7845   -4.1565   -1.4506 H.spc      1 <1>        0.000
     75 H           2.3183    2.0462   -5.6405 H.spc      1 <1>        0.000
     76 H           4.5352   -4.4021   -0.3896 H.spc      1 <1>        0.000
     77 H           3.1937   -3.8203    0.7533 H.spc      1 <1>        0.000
     78 H           3.6397    0.7408   -4.3408 H.spc      1 <1>        0.000
     79 H           4.8361   -2.3070   -0.6344 H.spc      1 <1>        0.000
     80 H           3.0338   -1.9073   -0.1980 H.spc      1 <1>        0.000
     81 H           2.4402    1.9796   -1.8949 H.spc      1 <1>        0.000
     82 H           3.8299    0.7795   -2.0413 H.spc      1 <1>        0.000
     83 H           3.4488   -3.0622   -2.7434 H.spc      1 <1>        0.000
     84 H           4.2964   -1.4348   -2.4878 H.spc      1 <1>        0.000
     85 H           0.9009    0.2217   -2.1818 H.spc      1 <1>        0.000
     86 H           2.0537   -0.1443   -0.7990 H.spc      1 <1>        0.000
@<TRIPOS>BOND
     1   20   25 1  
     2   15   21 1  
     3   19   24 2  
     4   10   15 1  
     5   19   23 1  
     6   14   19 1  
     7    8   22 1  
     8   10   14 1  
     9   14   20 1  
    10   12    8 1  
    11   16   31 2  
    12   17   32 2  
    13   18   33 1  
    14   32   34 1  
    15   33   35 2  
    16   34   36 1  
    17   35   37 1  
    18   36   38 1  
    19   37   39 1  
    20   16   18 1  
    21   30   17 1  
    22   29   16 1  
    23   28   30 2  
    24   27   29 1  
    25   26   28 1  
    26    1    2 1  
    27    1    3 1  
    28    1    4 1  
    29   23   27 1  
    30    2    5 1  
    31   22   26 2  
    32    2    6 2  
    33    3    7 1  
    34    4    9 1  
    35    5   10 am 
    36    5   11 2  
    37   21   25 1  
    38    7   12 1  
    39    7   13 1  
    40    9   13 1  
    41   38   40 1  
    42   39   40 1  
    43   40   41 2  
    44    1   42 1  
    45    4   43 1  
    46    4   44 1  
    47    7   45 1  
    48    8   46 1  
    49    8   47 1  
    50    9   48 1  
    51    9   49 1  
    52   12   50 1  
    53   12   51 1  
    54   13   52 1  
    55   13   53 1  
    56   14   54 1  
    57   15   55 1  
    58   15   56 1  
    59   17   57 1  
    60   18   58 1  
    61   18   59 1  
    62   20   60 1  
    63   20   61 1  
    64   21   62 1  
    65   21   63 1  
    66   22   64 1  
    67   25   65 1  
    68   25   66 1  
    69   26   67 1  
    70   27   68 1  
    71   27   69 1  
    72   28   70 1  
    73   29   71 1  
    74   29   72 1  
    75   30   73 1  
    76   32   74 1  
    77   33   75 1  
    78   34   76 1  
    79   34   77 1  
    80   35   78 1  
    81   36   79 1  
    82   36   80 1  
    83   37   81 1  
    84   37   82 1  
    85   38   83 1  
    86   38   84 1  
    87   39   85 1  
    88   39   86 1  
# Name:          frag5-549-186/138278 -- energy: -20.467772
# Creation time: Sat Jun  5 12:53:43 2010


@<TRIPOS>MOLECULE
frag5-549-186/138278 -- energy: -20.467772
   86    88     1     1     1
SMALL
USER_CHARGES


@<TRIPOS>ATOM
      1 C1         -3.5544   -0.8353    0.6101 C.3        1 <1>        0.000
      2 C2         -3.4753   -0.6950   -0.9219 C.2        1 <1>        0.000
      3 O1         -2.4380   -1.4343    1.1590 O.3        1 <1>        0.000
      4 C3         -4.8175   -1.5852    0.9869 C.3        1 <1>        0.000
      5 C4         -4.4164    0.3541   -1.5021 C.2        1 <1>        0.000
      6 O3         -2.8153   -1.2884   -1.7687 O.2        1 <1>        0.000
      7 C5         -2.2090   -2.7711    1.4504 C.3        1 <1>        0.000
      8 C12        -0.2559   -4.5229    1.5759 C.3        1 <1>        0.000
      9 C6         -4.6906   -3.0946    0.8603 C.3        1 <1>        0.000
     10 N1         -4.4406    1.5694   -0.8656 N.am       1 <1>        0.000
     11 O4         -5.1374   -0.1056   -2.3806 O.2        1 <1>        0.000
     12 C8         -0.7565   -3.1319    1.2577 C.3        1 <1>        0.000
     13 C9         -3.2705   -3.6455    0.7890 C.3        1 <1>        0.000
     14 C10        -3.4496    2.6623   -0.9910 C.3        1 <1>        0.000
     15 C11        -5.6926    1.9795   -0.2697 C.3        1 <1>        0.000
     16 C28         1.4528    2.4264   -3.9016 C.2        1 <1>        0.000
     17 C29         2.0603   -5.9610   -2.1439 C.2        1 <1>        0.000
     18 C31         1.9758    3.7588   -3.3835 C.3        1 <1>        0.000
     19 C13        -1.9833    2.2665   -1.1634 C.2        1 <1>        0.000
     20 C14        -3.4680    3.7255    0.0990 C.3        1 <1>        0.000
     21 C15        -5.9804    3.4381   -0.0526 C.3        1 <1>        0.000
     22 C16         0.0087   -5.3613    0.3847 C.2        1 <1>        0.000
     23 O6         -1.1279    3.1110   -1.7792 O.3        1 <1>        0.000
     24 O7         -1.5676    1.2144   -0.6852 O.2        1 <1>        0.000
     25 C17        -4.8306    4.2073    0.5366 C.3        1 <1>        0.000
     26 C18         0.2088   -6.6725    0.2154 C.2        1 <1>        0.000
     27 C21        -1.0033    2.9516   -3.1736 C.3        1 <1>        0.000
     28 C22         0.4893   -7.4571   -0.9390 C.2        1 <1>        0.000
     29 C24         0.0176    1.9641   -3.6906 C.3        1 <1>        0.000
     30 C25         1.3001   -7.1499   -1.9663 C.2        1 <1>        0.000
     31 O8          2.2098    1.6907   -4.5530 O.2        1 <1>        0.000
     32 C32         1.6726   -4.7859   -2.6553 C.2        1 <1>        0.000
     33 C35         3.4052    3.7864   -2.9536 C.2        1 <1>        0.000
     34 C37         2.4513   -3.5263   -2.7986 C.3        1 <1>        0.000
     35 C40         4.0903    2.9945   -2.1124 C.2        1 <1>        0.000
     36 C41         1.6235   -2.2842   -2.5423 C.3        1 <1>        0.000
     37 C44         3.6957    1.7945   -1.3106 C.3        1 <1>        0.000
     38 C46         2.3200   -0.9584   -2.5937 C.3        1 <1>        0.000
     39 C48         4.3100    0.5049   -1.8007 C.3        1 <1>        0.000
     40 C49         3.4224   -0.6880   -1.6016 C.2        1 <1>        0.000
     41 O13         3.5893   -1.4026   -0.6094 O.2        1 <1>        0.000
     42 H          -3.5868    0.1706    1.0288 H.spc      1 <1>        0.000
     43 H          -5.6036   -1.2651    0.3031 H.spc      1 <1>        0.000
     44 H          -5.0303   -1.3619    2.0324 H.spc      1 <1>        0.000
     45 H          -2.3491   -2.9796    2.5111 H.spc      1 <1>        0.000
     46 H           0.6899   -4.4104    2.1059 H.spc      1 <1>        0.000
     47 H          -1.0357   -5.0208    2.1522 H.spc      1 <1>        0.000
     48 H          -5.1695   -3.3630   -0.0814 H.spc      1 <1>        0.000
     49 H          -5.1358   -3.5148    1.7621 H.spc      1 <1>        0.000
     50 H          -0.5974   -3.0309    0.1841 H.spc      1 <1>        0.000
     51 H          -0.2273   -2.4909    1.9627 H.spc      1 <1>        0.000
     52 H          -3.2735   -4.5963    1.3220 H.spc      1 <1>        0.000
     53 H          -3.0106   -3.7131   -0.2674 H.spc      1 <1>        0.000
     54 H          -3.8284    3.0697   -1.9284 H.spc      1 <1>        0.000
     55 H          -6.4518    1.6554   -0.9815 H.spc      1 <1>        0.000
     56 H          -5.6684    1.5546    0.7338 H.spc      1 <1>        0.000
     57 H           3.0996   -6.0137   -1.8197 H.spc      1 <1>        0.000
     58 H           1.8951    4.4601   -4.2140 H.spc      1 <1>        0.000
     59 H           1.3874    3.9914   -2.4959 H.spc      1 <1>        0.000
     60 H          -3.0097    3.2698    0.9767 H.spc      1 <1>        0.000
     61 H          -2.9559    4.5944   -0.3144 H.spc      1 <1>        0.000
     62 H          -6.8083    3.5027    0.6535 H.spc      1 <1>        0.000
     63 H          -6.1948    3.8741   -1.0283 H.spc      1 <1>        0.000
     64 H           0.0486   -4.7933   -0.5448 H.spc      1 <1>        0.000
     65 H          -4.9290    5.2387    0.1981 H.spc      1 <1>        0.000
     66 H          -4.8823    4.0812    1.6181 H.spc      1 <1>        0.000
     67 H           0.1450   -7.2510    1.1370 H.spc      1 <1>        0.000
     68 H          -1.9680    2.5690   -3.5068 H.spc      1 <1>        0.000
     69 H          -0.6784    3.9230   -3.5463 H.spc      1 <1>        0.000
     70 H          -0.0136   -8.4224   -0.9968 H.spc      1 <1>        0.000
     71 H           0.0809    1.1966   -2.9192 H.spc      1 <1>        0.000
     72 H          -0.3370    1.6885   -4.6838 H.spc      1 <1>        0.000
     73 H           1.3847   -7.8984   -2.7542 H.spc      1 <1>        0.000
     74 H           0.6449   -4.7467   -3.0164 H.spc      1 <1>        0.000
     75 H           3.9947    4.5876   -3.3994 H.spc      1 <1>        0.000
     76 H           2.8147   -3.4763   -3.8250 H.spc      1 <1>        0.000
     77 H           3.2541   -3.5474   -2.0616 H.spc      1 <1>        0.000
     78 H           5.1348    3.2813   -1.9904 H.spc      1 <1>        0.000
     79 H           1.2598   -2.3826   -1.5195 H.spc      1 <1>        0.000
     80 H           0.8848   -2.2562   -3.3433 H.spc      1 <1>        0.000
     81 H           2.6137    1.6906   -1.3921 H.spc      1 <1>        0.000
     82 H           4.0468    1.9549   -0.2912 H.spc      1 <1>        0.000
     83 H           1.5483   -0.2216   -2.3709 H.spc      1 <1>        0.000
     84 H           2.8013   -0.9264   -3.5712 H.spc      1 <1>        0.000
     85 H           5.2223    0.3361   -1.2285 H.spc      1 <1>        0.000
     86 H           4.4860    0.6097   -2.8713 H.spc      1 <1>        0.000
@<TRIPOS>BOND
     1   20   25 1  
     2   15   21 1  
     3   19   24 2  
     4   10   15 1  
     5   19   23 1  
     6   14   19 1  
     7    8   22 1  
     8   10   14 1  
     9   14   20 1  
    10   12    8 1  
    11   16   31 2  
    12   17   32 2  
    13   18   33 1  
    14   32   34 1  
    15   33   35 2  
    16   34   36 1  
    17   35   37 1  
    18   36   38 1  
    19   37   39 1  
    20   16   18 1  
    21   30   17 1  
    22   29   16 1  
    23   28   30 2  
    24   27   29 1  
    25   26   28 1  
    26    1    2 1  
    27    1    3 1  
    28    1    4 1  
    29   23   27 1  
    30    2    5 1  
    31   22   26 2  
    32    2    6 2  
    33    3    7 1  
    34    4    9 1  
    35    5   10 am 
    36    5   11 2  
    37   21   25 1  
    38    7   12 1  
    39    7   13 1  
    40    9   13 1  
    41   38   40 1  
    42   39   40 1  
    43   40   41 2  
    44    1   42 1  
    45    4   43 1  
    46    4   44 1  
    47    7   45 1  
    48    8   46 1  
    49    8   47 1  
    50    9   48 1  
    51    9   49 1  
    52   12   50 1  
    53   12   51 1  
    54   13   52 1  
    55   13   53 1  
    56   14   54 1  
    57   15   55 1  
    58   15   56 1  
    59   17   57 1  
    60   18   58 1  
    61   18   59 1  
    62   20   60 1  
    63   20   61 1  
    64   21   62 1  
    65   21   63 1  
    66   22   64 1  
    67   25   65 1  
    68   25   66 1  
    69   26   67 1  
    70   27   68 1  
    71   27   69 1  
    72   28   70 1  
    73   29   71 1  
    74   29   72 1  
    75   30   73 1  
    76   32   74 1  
    77   33   75 1  
    78   34   76 1  
    79   34   77 1  
    80   35   78 1  
    81   36   79 1  
    82   36   80 1  
    83   37   81 1  
    84   37   82 1  
    85   38   83 1  
    86   38   84 1  
    87   39   85 1  
    88   39   86 1  
# Name:          frag5-549-186/138278 -- energy: -22.614485
# Creation time: Sat Jun  5 12:53:43 2010


@<TRIPOS>MOLECULE
frag5-549-186/138278 -- energy: -22.614485
   86    88     1     1     1
SMALL
USER_CHARGES


@<TRIPOS>ATOM
      1 C1         -3.7393   -0.8067   -0.5244 C.3        1 <1>        0.000
      2 C2         -2.9200   -0.0909   -1.5984 C.2        1 <1>        0.000
      3 O1         -3.0305   -1.7963    0.1128 O.3        1 <1>        0.000
      4 C3         -4.9975   -1.3238   -1.1813 C.3        1 <1>        0.000
      5 C4         -3.3237    1.3560   -1.8281 C.2        1 <1>        0.000
      6 O3         -2.0167   -0.4690   -2.3332 O.2        1 <1>        0.000
      7 C5         -2.9486   -3.1416   -0.1879 C.3        1 <1>        0.000
      8 C12        -1.4662   -5.1257    0.5758 C.3        1 <1>        0.000
      9 C6         -4.7745   -2.6113   -1.9551 C.3        1 <1>        0.000
     10 N1         -3.6038    2.0429   -0.6835 N.am       1 <1>        0.000
     11 O4         -3.3885    1.6993   -2.9990 O.2        1 <1>        0.000
     12 C8         -1.5635   -3.6963    0.0658 C.3        1 <1>        0.000
     13 C9         -3.5565   -3.4408   -1.5592 C.3        1 <1>        0.000
     14 C10        -2.5777    2.8452   -0.0186 C.3        1 <1>        0.000
     15 C11        -4.9491    2.5204   -0.4690 C.3        1 <1>        0.000
     16 C28         0.9392    3.8681   -3.3546 C.2        1 <1>        0.000
     17 C29         3.3100   -5.6009    0.4619 C.2        1 <1>        0.000
     18 C31         0.0376    2.6935   -3.7116 C.3        1 <1>        0.000
     19 C13        -1.1983    2.1726   -0.0179 C.2        1 <1>        0.000
     20 C14        -2.8850    3.3411    1.3789 C.3        1 <1>        0.000
     21 C15        -5.3239    3.0445    0.8909 C.3        1 <1>        0.000
     22 C16        -0.1582   -5.7602    0.2578 C.2        1 <1>        0.000
     23 O6         -0.0782    2.7484   -0.4849 O.3        1 <1>        0.000
     24 O7         -1.1248    1.0348    0.4588 O.2        1 <1>        0.000
     25 C17        -4.2663    3.9284    1.4992 C.3        1 <1>        0.000
     26 C18         0.4227   -6.9135    0.6034 C.2        1 <1>        0.000
     27 C21        -0.0285    4.0735   -0.9793 C.3        1 <1>        0.000
     28 C22         1.6876   -7.4934    0.2757 C.2        1 <1>        0.000
     29 C24         1.0908    4.3981   -1.9408 C.3        1 <1>        0.000
     30 C25         2.9160   -6.9603    0.2302 C.2        1 <1>        0.000
     31 O8          1.5845    4.4368   -4.2493 O.2        1 <1>        0.000
     32 C32         3.0045   -4.5683   -0.3250 C.2        1 <1>        0.000
     33 C35         0.7168    1.6884   -4.5662 C.2        1 <1>        0.000
     34 C37         3.2822   -3.1153   -0.2610 C.3        1 <1>        0.000
     35 C40         1.6755    0.8117   -4.2385 C.2        1 <1>        0.000
     36 C41         3.6984   -2.5548   -1.6025 C.3        1 <1>        0.000
     37 C44         2.3500    0.6111   -2.9273 C.3        1 <1>        0.000
     38 C46         2.6740   -2.6009   -2.7093 C.3        1 <1>        0.000
     39 C48         1.6233   -0.3135   -1.9870 C.3        1 <1>        0.000
     40 C49         1.4702   -1.7213   -2.5019 C.2        1 <1>        0.000
     41 O13         0.3584   -2.1670   -2.8008 O.2        1 <1>        0.000
     42 H          -3.9974   -0.1060    0.2697 H.spc      1 <1>        0.000
     43 H          -5.3398   -0.5667   -1.8867 H.spc      1 <1>        0.000
     44 H          -5.7231   -1.5299   -0.3944 H.spc      1 <1>        0.000
     45 H          -3.5726   -3.7025    0.5079 H.spc      1 <1>        0.000
     46 H          -1.5723   -5.1024    1.6604 H.spc      1 <1>        0.000
     47 H          -2.2484   -5.7088    0.0897 H.spc      1 <1>        0.000
     48 H          -4.6149   -2.3165   -2.9923 H.spc      1 <1>        0.000
     49 H          -5.6441   -3.2377   -1.7561 H.spc      1 <1>        0.000
     50 H          -1.0633   -3.6942   -0.9026 H.spc      1 <1>        0.000
     51 H          -1.1359   -3.0733    0.8514 H.spc      1 <1>        0.000
     52 H          -3.8941   -4.4765   -1.5219 H.spc      1 <1>        0.000
     53 H          -2.7821   -3.2108   -2.2910 H.spc      1 <1>        0.000
     54 H          -2.5700    3.7337   -0.6500 H.spc      1 <1>        0.000
     55 H          -5.0567    3.3728   -1.1398 H.spc      1 <1>        0.000
     56 H          -5.5859    1.6489   -0.6213 H.spc      1 <1>        0.000
     57 H           3.9060   -5.3955    1.3511 H.spc      1 <1>        0.000
     58 H          -0.2537    2.2014   -2.7837 H.spc      1 <1>        0.000
     59 H          -0.8152    3.0834   -4.2673 H.spc      1 <1>        0.000
     60 H          -2.8244    2.4892    2.0562 H.spc      1 <1>        0.000
     61 H          -2.1669    4.1248    1.6204 H.spc      1 <1>        0.000
     62 H          -5.4564    2.1867    1.5502 H.spc      1 <1>        0.000
     63 H          -6.2280    3.6424    0.7765 H.spc      1 <1>        0.000
     64 H           0.4615   -5.1516   -0.4007 H.spc      1 <1>        0.000
     65 H          -4.2751    4.8791    0.9661 H.spc      1 <1>        0.000
     66 H          -4.4922    4.0423    2.5594 H.spc      1 <1>        0.000
     67 H          -0.1862   -7.5317    1.2631 H.spc      1 <1>        0.000
     68 H          -0.9542    4.2211   -1.5356 H.spc      1 <1>        0.000
     69 H           0.1279    4.7124   -0.1101 H.spc      1 <1>        0.000
     70 H           1.6455   -8.5518    0.0185 H.spc      1 <1>        0.000
     71 H           1.1124    5.4846   -2.0251 H.spc      1 <1>        0.000
     72 H           1.9856    3.9265   -1.5346 H.spc      1 <1>        0.000
     73 H           3.7225   -7.6511   -0.0154 H.spc      1 <1>        0.000
     74 H           2.4266   -4.8556   -1.2034 H.spc      1 <1>        0.000
     75 H           0.3902    1.6593   -5.6057 H.spc      1 <1>        0.000
     76 H           4.1001   -2.9566    0.4418 H.spc      1 <1>        0.000
     77 H           2.3688   -2.6084    0.0502 H.spc      1 <1>        0.000
     78 H           2.0070    0.1551   -5.0429 H.spc      1 <1>        0.000
     79 H           4.5299   -3.1738   -1.9395 H.spc      1 <1>        0.000
     80 H           3.9070   -1.4985   -1.4328 H.spc      1 <1>        0.000
     81 H           2.3999    1.5856   -2.4416 H.spc      1 <1>        0.000
     82 H           3.3202    0.1590   -3.1333 H.spc      1 <1>        0.000
     83 H           2.3088   -3.6268   -2.7564 H.spc      1 <1>        0.000
     84 H           3.1709   -2.2452   -3.6119 H.spc      1 <1>        0.000
     85 H           0.6201    0.0901   -1.8501 H.spc      1 <1>        0.000
     86 H           2.2112   -0.3680   -1.0708 H.spc      1 <1>        0.000
@<TRIPOS>BOND
     1   20   25 1  
     2   15   21 1  
     3   19   24 2  
     4   10   15 1  
     5   19   23 1  
     6   14   19 1  
     7    8   22 1  
     8   10   14 1  
     9   14   20 1  
    10   12    8 1  
    11   16   31 2  
    12   17   32 2  
    13   18   33 1  
    14   32   34 1  
    15   33   35 2  
    16   34   36 1  
    17   35   37 1  
    18   36   38 1  
    19   37   39 1  
    20   16   18 1  
    21   30   17 1  
    22   29   16 1  
    23   28   30 2  
    24   27   29 1  
    25   26   28 1  
    26    1    2 1  
    27    1    3 1  
    28    1    4 1  
    29   23   27 1  
    30    2    5 1  
    31   22   26 2  
    32    2    6 2  
    33    3    7 1  
    34    4    9 1  
    35    5   10 am 
    36    5   11 2  
    37   21   25 1  
    38    7   12 1  
    39    7   13 1  
    40    9   13 1  
    41   38   40 1  
    42   39   40 1  
    43   40   41 2  
    44    1   42 1  
    45    4   43 1  
    46    4   44 1  
    47    7   45 1  
    48    8   46 1  
    49    8   47 1  
    50    9   48 1  
    51    9   49 1  
    52   12   50 1  
    53   12   51 1  
    54   13   52 1  
    55   13   53 1  
    56   14   54 1  
    57   15   55 1  
    58   15   56 1  
    59   17   57 1  
    60   18   58 1  
    61   18   59 1  
    62   20   60 1  
    63   20   61 1  
    64   21   62 1  
    65   21   63 1  
    66   22   64 1  
    67   25   65 1  
    68   25   66 1  
    69   26   67 1  
    70   27   68 1  
    71   27   69 1  
    72   28   70 1  
    73   29   71 1  
    74   29   72 1  
    75   30   73 1  
    76   32   74 1  
    77   33   75 1  
    78   34   76 1  
    79   34   77 1  
    80   35   78 1  
    81   36   79 1  
    82   36   80 1  
    83   37   81 1  
    84   37   82 1  
    85   38   83 1  
    86   38   84 1  
    87   39   85 1  
    88   39   86 1  
# Name:          frag5-549-186/138278 -- energy: -17.931864
# Creation time: Sat Jun  5 12:53:43 2010


@<TRIPOS>MOLECULE
frag5-549-186/138278 -- energy: -17.931864
   86    88     1     1     1
SMALL
USER_CHARGES


@<TRIPOS>ATOM
      1 C1         -3.8130   -0.8151    0.1997 C.3        1 <1>        0.000
      2 C2         -3.8570   -0.2783   -1.2354 C.2        1 <1>        0.000
      3 O1         -2.7173   -1.6210    0.3996 O.3        1 <1>        0.000
      4 C3         -5.1125   -1.5195    0.5227 C.3        1 <1>        0.000
      5 C4         -4.6793    0.9931   -1.3657 C.2        1 <1>        0.000
      6 O3         -3.3509   -0.6691   -2.2795 O.2        1 <1>        0.000
      7 C5         -2.6953   -2.9964    0.4626 C.3        1 <1>        0.000
      8 C12        -0.9248   -4.7425    1.0346 C.3        1 <1>        0.000
      9 C6         -5.1882   -2.9179   -0.0602 C.3        1 <1>        0.000
     10 N1         -4.3737    1.9324   -0.4213 N.am       1 <1>        0.000
     11 O4         -5.5654    0.9215   -2.2039 O.2        1 <1>        0.000
     12 C8         -1.3147   -3.5308    0.2346 C.3        1 <1>        0.000
     13 C9         -3.8422   -3.5681   -0.3572 C.3        1 <1>        0.000
     14 C10        -3.1577    2.7522   -0.4249 C.3        1 <1>        0.000
     15 C11        -5.3795    2.3478    0.5225 C.3        1 <1>        0.000
     16 C28         0.9704    3.9245   -3.7659 C.2        1 <1>        0.000
     17 C29         2.9250   -6.5715   -0.4641 C.2        1 <1>        0.000
     18 C31         2.4259    4.2855   -3.6218 C.3        1 <1>        0.000
     19 C13        -1.8467    2.0202   -0.7494 C.2        1 <1>        0.000
     20 C14        -2.9042    3.5935    0.8061 C.3        1 <1>        0.000
     21 C15        -5.4230    3.7721    1.0027 C.3        1 <1>        0.000
     22 C16        -0.0812   -5.7065    0.3061 C.2        1 <1>        0.000
     23 O6         -1.0172    2.3668   -1.7428 O.3        1 <1>        0.000
     24 O7         -1.5341    1.0679   -0.0274 O.2        1 <1>        0.000
     25 C17        -4.0836    4.4429    1.1818 C.3        1 <1>        0.000
     26 C18         0.0837   -7.0258    0.4115 C.2        1 <1>        0.000
     27 C21        -1.2075    3.5097   -2.5441 C.3        1 <1>        0.000
     28 C22         0.9040   -7.9751   -0.2854 C.2        1 <1>        0.000
     29 C24        -0.0165    4.3967   -2.7442 C.3        1 <1>        0.000
     30 C25         2.1836   -7.7838   -0.6678 C.2        1 <1>        0.000
     31 O8          0.5671    3.2806   -4.7388 O.2        1 <1>        0.000
     32 C32         2.9062   -5.5017   -1.2698 C.2        1 <1>        0.000
     33 C35         3.2658    3.2702   -2.9476 C.2        1 <1>        0.000
     34 C37         3.5454   -4.1670   -1.1921 C.3        1 <1>        0.000
     35 C40         3.2925    1.9313   -2.9475 C.2        1 <1>        0.000
     36 C41         2.6602   -3.1157   -1.8330 C.3        1 <1>        0.000
     37 C44         2.4665    0.9134   -3.6573 C.3        1 <1>        0.000
     38 C46         2.9540   -1.6682   -1.5849 C.3        1 <1>        0.000
     39 C48         3.0931   -0.4395   -3.8807 C.3        1 <1>        0.000
     40 C49         3.7666   -1.0398   -2.6751 C.2        1 <1>        0.000
     41 O13         4.9984   -1.0258   -2.5810 O.2        1 <1>        0.000
     42 H          -3.7049    0.0224    0.8889 H.spc      1 <1>        0.000
     43 H          -5.9242   -0.9346    0.0900 H.spc      1 <1>        0.000
     44 H          -5.1826   -1.6070    1.6069 H.spc      1 <1>        0.000
     45 H          -2.9027   -3.3600    1.4690 H.spc      1 <1>        0.000
     46 H          -0.3447   -4.3900    1.8874 H.spc      1 <1>        0.000
     47 H          -1.8462   -5.2605    1.3006 H.spc      1 <1>        0.000
     48 H          -5.7127   -2.8332   -1.0120 H.spc      1 <1>        0.000
     49 H          -5.6808   -3.5424    0.6851 H.spc      1 <1>        0.000
     50 H          -1.2772   -3.8345   -0.8116 H.spc      1 <1>        0.000
     51 H          -0.6302   -2.7374    0.5348 H.spc      1 <1>        0.000
     52 H          -3.9277   -4.6254   -0.1065 H.spc      1 <1>        0.000
     53 H          -3.6158   -3.3854   -1.4077 H.spc      1 <1>        0.000
     54 H          -3.4206    3.4089   -1.2542 H.spc      1 <1>        0.000
     55 H          -6.3219    2.2117   -0.0081 H.spc      1 <1>        0.000
     56 H          -5.1667    1.7658    1.4192 H.spc      1 <1>        0.000
     57 H           3.5573   -6.5170    0.4221 H.spc      1 <1>        0.000
     58 H           2.8212    4.3970   -4.6315 H.spc      1 <1>        0.000
     59 H           2.4652    5.1829   -3.0044 H.spc      1 <1>        0.000
     60 H          -2.7009    2.9176    1.6368 H.spc      1 <1>        0.000
     61 H          -2.0684    4.2589    0.5898 H.spc      1 <1>        0.000
     62 H          -5.8924    3.7522    1.9863 H.spc      1 <1>        0.000
     63 H          -5.9529    4.3398    0.2378 H.spc      1 <1>        0.000
     64 H           0.5292   -5.2509   -0.4736 H.spc      1 <1>        0.000
     65 H          -4.0724    5.3118    0.5238 H.spc      1 <1>        0.000
     66 H          -3.9834    4.6754    2.2420 H.spc      1 <1>        0.000
     67 H          -0.5330   -7.4770    1.1888 H.spc      1 <1>        0.000
     68 H          -1.4772    3.1411   -3.5338 H.spc      1 <1>        0.000
     69 H          -1.9514    4.1173   -2.0288 H.spc      1 <1>        0.000
     70 H           0.4526   -8.9372   -0.5275 H.spc      1 <1>        0.000
     71 H          -0.3975    5.3545   -3.0985 H.spc      1 <1>        0.000
     72 H           0.5122    4.4279   -1.7915 H.spc      1 <1>        0.000
     73 H           2.6910   -8.6091   -1.1674 H.spc      1 <1>        0.000
     74 H           2.2977   -5.6410   -2.1633 H.spc      1 <1>        0.000
     75 H           4.0326    3.7098   -2.3097 H.spc      1 <1>        0.000
     76 H           4.4974   -4.1990   -1.7220 H.spc      1 <1>        0.000
     77 H           3.6998   -3.9089   -0.1444 H.spc      1 <1>        0.000
     78 H           4.0646    1.5050   -2.3070 H.spc      1 <1>        0.000
     79 H           1.6728   -3.2794   -1.4013 H.spc      1 <1>        0.000
     80 H           2.7975   -3.2498   -2.9060 H.spc      1 <1>        0.000
     81 H           2.2778    1.3221   -4.6500 H.spc      1 <1>        0.000
     82 H           1.5982    0.7385   -3.0221 H.spc      1 <1>        0.000
     83 H           3.5288   -1.5999   -0.6613 H.spc      1 <1>        0.000
     84 H           2.0017   -1.1403   -1.5346 H.spc      1 <1>        0.000
     85 H           3.8662   -0.3057   -4.6374 H.spc      1 <1>        0.000
     86 H           2.2855   -1.1169   -4.1583 H.spc      1 <1>        0.000
@<TRIPOS>BOND
     1   20   25 1  
     2   15   21 1  
     3   19   24 2  
     4   10   15 1  
     5   19   23 1  
     6   14   19 1  
     7    8   22 1  
     8   10   14 1  
     9   14   20 1  
    10   12    8 1  
    11   16   31 2  
    12   17   32 2  
    13   18   33 1  
    14   32   34 1  
    15   33   35 2  
    16   34   36 1  
    17   35   37 1  
    18   36   38 1  
    19   37   39 1  
    20   16   18 1  
    21   30   17 1  
    22   29   16 1  
    23   28   30 2  
    24   27   29 1  
    25   26   28 1  
    26    1    2 1  
    27    1    3 1  
    28    1    4 1  
    29   23   27 1  
    30    2    5 1  
    31   22   26 2  
    32    2    6 2  
    33    3    7 1  
    34    4    9 1  
    35    5   10 am 
    36    5   11 2  
    37   21   25 1  
    38    7   12 1  
    39    7   13 1  
    40    9   13 1  
    41   38   40 1  
    42   39   40 1  
    43   40   41 2  
    44    1   42 1  
    45    4   43 1  
    46    4   44 1  
    47    7   45 1  
    48    8   46 1  
    49    8   47 1  
    50    9   48 1  
    51    9   49 1  
    52   12   50 1  
    53   12   51 1  
    54   13   52 1  
    55   13   53 1  
    56   14   54 1  
    57   15   55 1  
    58   15   56 1  
    59   17   57 1  
    60   18   58 1  
    61   18   59 1  
    62   20   60 1  
    63   20   61 1  
    64   21   62 1  
    65   21   63 1  
    66   22   64 1  
    67   25   65 1  
    68   25   66 1  
    69   26   67 1  
    70   27   68 1  
    71   27   69 1  
    72   28   70 1  
    73   29   71 1  
    74   29   72 1  
    75   30   73 1  
    76   32   74 1  
    77   33   75 1  
    78   34   76 1  
    79   34   77 1  
    80   35   78 1  
    81   36   79 1  
    82   36   80 1  
    83   37   81 1  
    84   37   82 1  
    85   38   83 1  
    86   38   84 1  
    87   39   85 1  
    88   39   86 1  
# Name:          frag5-549-186/138278 -- energy: -19.737282
# Creation time: Sat Jun  5 12:53:43 2010


@<TRIPOS>MOLECULE
frag5-549-186/138278 -- energy: -19.737282
   86    88     1     1     1
SMALL
USER_CHARGES


@<TRIPOS>ATOM
      1 C1         -3.7859   -0.7123    0.4196 C.3        1 <1>        0.000
      2 C2         -3.7912   -0.3293   -1.0768 C.2        1 <1>        0.000
      3 O1         -2.7324   -1.5527    0.7377 O.3        1 <1>        0.000
      4 C3         -5.1056   -1.3430    0.8085 C.3        1 <1>        0.000
      5 C4         -4.6227    0.9036   -1.4176 C.2        1 <1>        0.000
      6 O3         -3.2623   -0.8458   -2.0560 O.2        1 <1>        0.000
      7 C5         -2.6923   -2.9338    0.6579 C.3        1 <1>        0.000
      8 C12        -1.3772   -4.7501   -0.6149 C.3        1 <1>        0.000
      9 C6         -5.2485   -2.7732    0.3373 C.3        1 <1>        0.000
     10 N1         -4.4514    1.9788   -0.5871 N.am       1 <1>        0.000
     11 O4         -5.4446    0.6954   -2.3018 O.2        1 <1>        0.000
     12 C8         -1.3663   -3.4494    0.1519 C.3        1 <1>        0.000
     13 C9         -3.9495   -3.4577   -0.0315 C.3        1 <1>        0.000
     14 C10        -3.2815    2.9024   -0.5273 C.3        1 <1>        0.000
     15 C11        -5.5725    2.3383    0.2434 C.3        1 <1>        0.000
     16 C28         1.2478    3.6746   -3.7652 C.2        1 <1>        0.000
     17 C29         3.0240   -6.0696   -0.4789 C.2        1 <1>        0.000
     18 C31         1.0926    2.2644   -4.3097 C.3        1 <1>        0.000
     19 C13        -1.9496    2.1844   -0.7921 C.2        1 <1>        0.000
     20 C14        -3.1445    3.7128    0.7603 C.3        1 <1>        0.000
     21 C15        -5.6898    3.7338    0.7646 C.3        1 <1>        0.000
     22 C16        -0.0932   -5.1818   -1.1937 C.2        1 <1>        0.000
     23 O6         -1.0432    2.4952   -1.7238 O.3        1 <1>        0.000
     24 O7         -1.6951    1.2137   -0.0734 O.2        1 <1>        0.000
     25 C17        -4.4190    4.2180    1.4020 C.3        1 <1>        0.000
     26 C18         0.2713   -6.3597   -1.7011 C.2        1 <1>        0.000
     27 C21        -0.7301    3.7943   -2.1734 C.3        1 <1>        0.000
     28 C22         1.4913   -6.8745   -2.2396 C.2        1 <1>        0.000
     29 C24         0.7471    4.0364   -2.3887 C.3        1 <1>        0.000
     30 C25         2.7144   -6.7697   -1.6930 C.2        1 <1>        0.000
     31 O8          1.7830    4.5570   -4.4513 O.2        1 <1>        0.000
     32 C32         3.0624   -4.7388   -0.3559 C.2        1 <1>        0.000
     33 C35         2.3511    1.7728   -4.9310 C.2        1 <1>        0.000
     34 C37         3.2872   -3.7756    0.7466 C.3        1 <1>        0.000
     35 C40         3.0924    0.6913   -4.6570 C.2        1 <1>        0.000
     36 C41         4.3212   -2.7038    0.4737 C.3        1 <1>        0.000
     37 C44         2.8863   -0.3893   -3.6557 C.3        1 <1>        0.000
     38 C46         4.4113   -2.0700   -0.8940 C.3        1 <1>        0.000
     39 C48         3.3247   -0.0955   -2.2454 C.3        1 <1>        0.000
     40 C49         3.1973   -1.2907   -1.3424 C.2        1 <1>        0.000
     41 O13         2.0654   -1.6579   -1.0101 O.2        1 <1>        0.000
     42 H          -3.6502    0.2063    0.9905 H.spc      1 <1>        0.000
     43 H          -5.8991   -0.7613    0.3395 H.spc      1 <1>        0.000
     44 H          -5.1595   -1.3483    1.8972 H.spc      1 <1>        0.000
     45 H          -2.7274   -3.3639    1.6588 H.spc      1 <1>        0.000
     46 H          -1.6599   -5.5210    0.1019 H.spc      1 <1>        0.000
     47 H          -2.0525   -4.5987   -1.4570 H.spc      1 <1>        0.000
     48 H          -5.8584   -2.7477   -0.5658 H.spc      1 <1>        0.000
     49 H          -5.6769   -3.3365    1.1663 H.spc      1 <1>        0.000
     50 H          -1.0044   -2.6966   -0.5485 H.spc      1 <1>        0.000
     51 H          -0.7631   -3.6354    1.0405 H.spc      1 <1>        0.000
     52 H          -4.0551   -4.4977    0.2773 H.spc      1 <1>        0.000
     53 H          -3.8064   -3.2846   -1.0981 H.spc      1 <1>        0.000
     54 H          -3.5006    3.6087   -1.3281 H.spc      1 <1>        0.000
     55 H          -6.4433    2.2106   -0.3996 H.spc      1 <1>        0.000
     56 H          -5.4642    1.7200    1.1345 H.spc      1 <1>        0.000
     57 H           3.2437   -6.6659    0.4067 H.spc      1 <1>        0.000
     58 H           0.8372    1.6029   -3.4819 H.spc      1 <1>        0.000
     59 H           0.3142    2.2747   -5.0727 H.spc      1 <1>        0.000
     60 H          -2.6959    3.0366    1.4880 H.spc      1 <1>        0.000
     61 H          -2.5776    4.6035    0.4893 H.spc      1 <1>        0.000
     62 H          -6.4722    3.7449    1.5234 H.spc      1 <1>        0.000
     63 H          -5.9152    4.3893   -0.0766 H.spc      1 <1>        0.000
     64 H           0.6826   -4.4163   -1.2097 H.spc      1 <1>        0.000
     65 H          -4.4117    5.3033    1.3014 H.spc      1 <1>        0.000
     66 H          -4.4218    3.8479    2.4272 H.spc      1 <1>        0.000
     67 H          -0.5380   -7.0898   -1.7065 H.spc      1 <1>        0.000
     68 H          -1.2218    3.9284   -3.1369 H.spc      1 <1>        0.000
     69 H          -1.0610    4.4900   -1.4023 H.spc      1 <1>        0.000
     70 H           1.4225   -7.4054   -3.1891 H.spc      1 <1>        0.000
     71 H           0.9169    5.1052   -2.2588 H.spc      1 <1>        0.000
     72 H           1.2803    3.4034   -1.6793 H.spc      1 <1>        0.000
     73 H           3.5388   -7.2562   -2.2143 H.spc      1 <1>        0.000
     74 H           2.8831   -4.2361   -1.3063 H.spc      1 <1>        0.000
     75 H           2.7325    2.3938   -5.7415 H.spc      1 <1>        0.000
     76 H           3.6552   -4.3538    1.5942 H.spc      1 <1>        0.000
     77 H           2.3402   -3.2602    0.9069 H.spc      1 <1>        0.000
     78 H           3.9907    0.5862   -5.2653 H.spc      1 <1>        0.000
     79 H           5.2779   -3.2099    0.6024 H.spc      1 <1>        0.000
     80 H           4.0438   -1.8835    1.1358 H.spc      1 <1>        0.000
     81 H           3.4944   -1.2296   -3.9907 H.spc      1 <1>        0.000
     82 H           1.8098   -0.5535   -3.6079 H.spc      1 <1>        0.000
     83 H           4.5297   -2.8885   -1.6040 H.spc      1 <1>        0.000
     84 H           5.2339   -1.3563   -0.8476 H.spc      1 <1>        0.000
     85 H           2.6841    0.6935   -1.8515 H.spc      1 <1>        0.000
     86 H           4.3750    0.1947   -2.2732 H.spc      1 <1>        0.000
@<TRIPOS>BOND
     1   20   25 1  
     2   15   21 1  
     3   19   24 2  
     4   10   15 1  
     5   19   23 1  
     6   14   19 1  
     7    8   22 1  
     8   10   14 1  
     9   14   20 1  
    10   12    8 1  
    11   16   31 2  
    12   17   32 2  
    13   18   33 1  
    14   32   34 1  
    15   33   35 2  
    16   34   36 1  
    17   35   37 1  
    18   36   38 1  
    19   37   39 1  
    20   16   18 1  
    21   30   17 1  
    22   29   16 1  
    23   28   30 2  
    24   27   29 1  
    25   26   28 1  
    26    1    2 1  
    27    1    3 1  
    28    1    4 1  
    29   23   27 1  
    30    2    5 1  
    31   22   26 2  
    32    2    6 2  
    33    3    7 1  
    34    4    9 1  
    35    5   10 am 
    36    5   11 2  
    37   21   25 1  
    38    7   12 1  
    39    7   13 1  
    40    9   13 1  
    41   38   40 1  
    42   39   40 1  
    43   40   41 2  
    44    1   42 1  
    45    4   43 1  
    46    4   44 1  
    47    7   45 1  
    48    8   46 1  
    49    8   47 1  
    50    9   48 1  
    51    9   49 1  
    52   12   50 1  
    53   12   51 1  
    54   13   52 1  
    55   13   53 1  
    56   14   54 1  
    57   15   55 1  
    58   15   56 1  
    59   17   57 1  
    60   18   58 1  
    61   18   59 1  
    62   20   60 1  
    63   20   61 1  
    64   21   62 1  
    65   21   63 1  
    66   22   64 1  
    67   25   65 1  
    68   25   66 1  
    69   26   67 1  
    70   27   68 1  
    71   27   69 1  
    72   28   70 1  
    73   29   71 1  
    74   29   72 1  
    75   30   73 1  
    76   32   74 1  
    77   33   75 1  
    78   34   76 1  
    79   34   77 1  
    80   35   78 1  
    81   36   79 1  
    82   36   80 1  
    83   37   81 1  
    84   37   82 1  
    85   38   83 1  
    86   38   84 1  
    87   39   85 1  
    88   39   86 1  
# Name:          frag5-549-186/138278 -- energy: -22.768538
# Creation time: Sat Jun  5 12:53:43 2010


@<TRIPOS>MOLECULE
frag5-549-186/138278 -- energy: -22.768538
   86    88     1     1     1
SMALL
USER_CHARGES


@<TRIPOS>ATOM
      1 C1         -3.2356   -0.9398    0.9446 C.3        1 <1>        0.000
      2 C2         -3.8203   -1.2594   -0.4398 C.2        1 <1>        0.000
      3 O1         -2.0809   -1.6515    1.2219 O.3        1 <1>        0.000
      4 C3         -4.2880   -1.1371    2.0283 C.3        1 <1>        0.000
      5 C4         -4.6469   -0.1373   -1.0909 C.2        1 <1>        0.000
      6 O3         -3.7577   -2.2835   -1.1132 O.2        1 <1>        0.000
      7 C5         -1.8889   -2.7265    2.0708 C.3        1 <1>        0.000
      8 C12        -0.9043   -4.6268    0.5047 C.3        1 <1>        0.000
      9 C6         -4.3917   -2.5304    2.6118 C.3        1 <1>        0.000
     10 N1         -4.1784    1.1450   -0.9579 N.am       1 <1>        0.000
     11 O4         -5.7015   -0.5323   -1.5715 O.2        1 <1>        0.000
     12 C8         -0.7625   -3.6482    1.6565 C.3        1 <1>        0.000
     13 C9         -3.1996   -3.4274    2.3723 C.3        1 <1>        0.000
     14 C10        -3.2593    1.7929   -1.9096 C.3        1 <1>        0.000
     15 C11        -4.9587    2.0771   -0.1810 C.3        1 <1>        0.000
     16 C28         1.2549    2.7007   -4.1018 C.2        1 <1>        0.000
     17 C29         1.6424   -4.2029   -3.3559 C.2        1 <1>        0.000
     18 C31         1.3872    2.9556   -2.6075 C.3        1 <1>        0.000
     19 C13        -2.0263    0.9261   -2.1317 C.2        1 <1>        0.000
     20 C14        -2.8056    3.1987   -1.5511 C.3        1 <1>        0.000
     21 C15        -4.2952    3.2575    0.4637 C.3        1 <1>        0.000
     22 C16        -0.5376   -4.0863   -0.8413 C.2        1 <1>        0.000
     23 O6         -1.5297    0.6623   -3.3467 O.3        1 <1>        0.000
     24 O7         -1.4755    0.4501   -1.1351 O.2        1 <1>        0.000
     25 C17        -2.9396    3.5648   -0.0961 C.3        1 <1>        0.000
     26 C18        -1.1131   -4.0425   -2.0551 C.2        1 <1>        0.000
     27 C21        -1.1193    1.7008   -4.2139 C.3        1 <1>        0.000
     28 C22        -0.7699   -3.5597   -3.3718 C.2        1 <1>        0.000
     29 C24         0.3274    1.6370   -4.6312 C.3        1 <1>        0.000
     30 C25         0.4464   -3.6526   -3.9580 C.2        1 <1>        0.000
     31 O8          1.8864    3.3934   -4.9113 O.2        1 <1>        0.000
     32 C32         2.3877   -3.6140   -2.4139 C.2        1 <1>        0.000
     33 C35         2.7751    2.8692   -2.0714 C.2        1 <1>        0.000
     34 C37         3.6033   -3.9790   -1.6378 C.3        1 <1>        0.000
     35 C40         3.2258    2.1721   -1.0160 C.2        1 <1>        0.000
     36 C41         3.6894   -3.2703   -0.2966 C.3        1 <1>        0.000
     37 C44         2.5229    1.2923   -0.0338 C.3        1 <1>        0.000
     38 C46         4.1557   -1.8391   -0.2205 C.3        1 <1>        0.000
     39 C48         2.2040   -0.0967   -0.5080 C.3        1 <1>        0.000
     40 C49         3.3828   -0.8501   -1.0565 C.2        1 <1>        0.000
     41 O13         3.7173   -0.6592   -2.2322 O.2        1 <1>        0.000
     42 H          -2.9430    0.1101    0.9315 H.spc      1 <1>        0.000
     43 H          -5.2503   -0.9303    1.5600 H.spc      1 <1>        0.000
     44 H          -4.0040   -0.4820    2.8519 H.spc      1 <1>        0.000
     45 H          -1.5330   -2.3220    3.0183 H.spc      1 <1>        0.000
     46 H          -0.2193   -5.4499    0.7080 H.spc      1 <1>        0.000
     47 H          -1.9583   -4.9001    0.4550 H.spc      1 <1>        0.000
     48 H          -5.2419   -3.0080    2.1247 H.spc      1 <1>        0.000
     49 H          -4.4762   -2.4088    3.6917 H.spc      1 <1>        0.000
     50 H           0.0155   -2.9645    1.3168 H.spc      1 <1>        0.000
     51 H          -0.6273   -4.2931    2.5248 H.spc      1 <1>        0.000
     52 H          -3.0438   -3.9824    3.2974 H.spc      1 <1>        0.000
     53 H          -3.4374   -4.0232    1.4911 H.spc      1 <1>        0.000
     54 H          -3.8554    1.8963   -2.8163 H.spc      1 <1>        0.000
     55 H          -5.6540    2.5138   -0.8979 H.spc      1 <1>        0.000
     56 H          -5.3352    1.4868    0.6544 H.spc      1 <1>        0.000
     57 H           1.9646   -5.1853   -3.7011 H.spc      1 <1>        0.000
     58 H           1.0461    3.9759   -2.4320 H.spc      1 <1>        0.000
     59 H           0.8080    2.1811   -2.1047 H.spc      1 <1>        0.000
     60 H          -1.7440    3.2556   -1.7915 H.spc      1 <1>        0.000
     61 H          -3.4449    3.8849   -2.1065 H.spc      1 <1>        0.000
     62 H          -4.1665    3.0228    1.5203 H.spc      1 <1>        0.000
     63 H          -4.9277    4.1266    0.2828 H.spc      1 <1>        0.000
     64 H           0.4419   -3.6081   -0.8363 H.spc      1 <1>        0.000
     65 H          -2.7805    4.6396   -0.0085 H.spc      1 <1>        0.000
     66 H          -2.2096    2.9785    0.4620 H.spc      1 <1>        0.000
     67 H          -2.1058   -4.4924   -2.0419 H.spc      1 <1>        0.000
     68 H          -1.7159    1.6108   -5.1217 H.spc      1 <1>        0.000
     69 H          -1.2527    2.6376   -3.6729 H.spc      1 <1>        0.000
     70 H          -1.5614   -3.0771   -3.9452 H.spc      1 <1>        0.000
     71 H           0.7052    0.6952   -4.2332 H.spc      1 <1>        0.000
     72 H           0.3252    1.7634   -5.7138 H.spc      1 <1>        0.000
     73 H           0.5336   -3.2784   -4.9780 H.spc      1 <1>        0.000
     74 H           2.0126   -2.6250   -2.1507 H.spc      1 <1>        0.000
     75 H           3.5252    3.4500   -2.6082 H.spc      1 <1>        0.000
     76 H           4.4725   -3.6830   -2.2252 H.spc      1 <1>        0.000
     77 H           3.5630   -5.0509   -1.4440 H.spc      1 <1>        0.000
     78 H           4.2983    2.2647   -0.8448 H.spc      1 <1>        0.000
     79 H           4.4442   -3.8297    0.2561 H.spc      1 <1>        0.000
     80 H           2.6592   -3.2376    0.0578 H.spc      1 <1>        0.000
     81 H           1.5670    1.7713    0.1781 H.spc      1 <1>        0.000
     82 H           3.1975    1.1795    0.8149 H.spc      1 <1>        0.000
     83 H           5.1779   -1.8285   -0.5987 H.spc      1 <1>        0.000
     84 H           4.0293   -1.5295    0.8169 H.spc      1 <1>        0.000
     85 H           1.4805   -0.0005   -1.3176 H.spc      1 <1>        0.000
     86 H           1.8410   -0.6544    0.3553 H.spc      1 <1>        0.000
@<TRIPOS>BOND
     1   20   25 1  
     2   15   21 1  
     3   19   24 2  
     4   10   15 1  
     5   19   23 1  
     6   14   19 1  
     7    8   22 1  
     8   10   14 1  
     9   14   20 1  
    10   12    8 1  
    11   16   31 2  
    12   17   32 2  
    13   18   33 1  
    14   32   34 1  
    15   33   35 2  
    16   34   36 1  
    17   35   37 1  
    18   36   38 1  
    19   37   39 1  
    20   16   18 1  
    21   30   17 1  
    22   29   16 1  
    23   28   30 2  
    24   27   29 1  
    25   26   28 1  
    26    1    2 1  
    27    1    3 1  
    28    1    4 1  
    29   23   27 1  
    30    2    5 1  
    31   22   26 2  
    32    2    6 2  
    33    3    7 1  
    34    4    9 1  
    35    5   10 am 
    36    5   11 2  
    37   21   25 1  
    38    7   12 1  
    39    7   13 1  
    40    9   13 1  
    41   38   40 1  
    42   39   40 1  
    43   40   41 2  
    44    1   42 1  
    45    4   43 1  
    46    4   44 1  
    47    7   45 1  
    48    8   46 1  
    49    8   47 1  
    50    9   48 1  
    51    9   49 1  
    52   12   50 1  
    53   12   51 1  
    54   13   52 1  
    55   13   53 1  
    56   14   54 1  
    57   15   55 1  
    58   15   56 1  
    59   17   57 1  
    60   18   58 1  
    61   18   59 1  
    62   20   60 1  
    63   20   61 1  
    64   21   62 1  
    65   21   63 1  
    66   22   64 1  
    67   25   65 1  
    68   25   66 1  
    69   26   67 1  
    70   27   68 1  
    71   27   69 1  
    72   28   70 1  
    73   29   71 1  
    74   29   72 1  
    75   30   73 1  
    76   32   74 1  
    77   33   75 1  
    78   34   76 1  
    79   34   77 1  
    80   35   78 1  
    81   36   79 1  
    82   36   80 1  
    83   37   81 1  
    84   37   82 1  
    85   38   83 1  
    86   38   84 1  
    87   39   85 1  
    88   39   86 1  
# Name:          frag5-549-186/138278 -- energy: -20.518902
# Creation time: Sat Jun  5 12:53:43 2010


@<TRIPOS>MOLECULE
frag5-549-186/138278 -- energy: -20.518902
   86    88     1     1     1
SMALL
USER_CHARGES


@<TRIPOS>ATOM
      1 C1         -3.7311   -0.8418    0.4425 C.3        1 <1>        0.000
      2 C2         -4.1761   -0.6117   -1.0092 C.2        1 <1>        0.000
      3 O1         -2.6416   -1.6962    0.5294 O.3        1 <1>        0.000
      4 C3         -4.9062   -1.3194    1.2766 C.3        1 <1>        0.000
      5 C4         -4.7914    0.7559   -1.2996 C.2        1 <1>        0.000
      6 O3         -4.1221   -1.3481   -1.9881 O.2        1 <1>        0.000
      7 C5         -2.6027   -3.0305    0.9071 C.3        1 <1>        0.000
      8 C12        -1.2443   -5.2300    0.6864 C.3        1 <1>        0.000
      9 C6         -5.1442   -2.8067    1.2351 C.3        1 <1>        0.000
     10 N1         -4.1684    1.8170   -0.6989 N.am       1 <1>        0.000
     11 O4         -5.8382    0.7039   -1.9308 O.2        1 <1>        0.000
     12 C8         -1.4738   -3.7959    0.2700 C.3        1 <1>        0.000
     13 C9         -3.9815   -3.6560    0.7688 C.3        1 <1>        0.000
     14 C10        -3.1069    2.6145   -1.3745 C.3        1 <1>        0.000
     15 C11        -4.8575    2.5000    0.3872 C.3        1 <1>        0.000
     16 C28         1.1956    4.1949   -3.7571 C.2        1 <1>        0.000
     17 C29         2.9444   -6.5310   -0.7915 C.2        1 <1>        0.000
     18 C31         1.8472    3.0236   -4.4418 C.3        1 <1>        0.000
     19 C13        -1.8873    1.7715   -1.8542 C.2        1 <1>        0.000
     20 C14        -2.4947    3.7340   -0.5454 C.3        1 <1>        0.000
     21 C15        -4.0417    3.2874    1.3797 C.3        1 <1>        0.000
     22 C16        -0.2285   -5.8733   -0.1857 C.2        1 <1>        0.000
     23 O6         -1.0496    2.0614   -2.8613 O.3        1 <1>        0.000
     24 O7         -1.6227    0.7595   -1.1935 O.2        1 <1>        0.000
     25 C17        -2.6204    3.5392    0.9428 C.3        1 <1>        0.000
     26 C18        -0.0886   -7.1012   -0.6833 C.2        1 <1>        0.000
     27 C21        -1.2301    3.1238   -3.7727 C.3        1 <1>        0.000
     28 C22         0.8897   -7.7766   -1.5081 C.2        1 <1>        0.000
     29 C24        -0.2996    4.2902   -3.5454 C.3        1 <1>        0.000
     30 C25         2.2090   -7.5298   -1.5524 C.2        1 <1>        0.000
     31 O8          1.8850    5.1582   -3.3822 O.2        1 <1>        0.000
     32 C32         2.9689   -5.2147   -1.0960 C.2        1 <1>        0.000
     33 C35         3.1867    2.7611   -3.8610 C.2        1 <1>        0.000
     34 C37         3.5818   -4.0031   -0.4981 C.3        1 <1>        0.000
     35 C40         3.5310    2.3181   -2.6441 C.2        1 <1>        0.000
     36 C41         2.7471   -2.7390   -0.7147 C.3        1 <1>        0.000
     37 C44         2.6777    1.9276   -1.4920 C.3        1 <1>        0.000
     38 C46         3.4289   -1.3981   -0.7495 C.3        1 <1>        0.000
     39 C48         1.9945    0.5999   -1.6490 C.3        1 <1>        0.000
     40 C49         2.9226   -0.5576   -1.8870 C.2        1 <1>        0.000
     41 O13         3.2614   -0.8379   -3.0434 O.2        1 <1>        0.000
     42 H          -3.3913    0.1107    0.8491 H.spc      1 <1>        0.000
     43 H          -5.7985   -0.8437    0.8696 H.spc      1 <1>        0.000
     44 H          -4.6855   -1.0621    2.3125 H.spc      1 <1>        0.000
     45 H          -2.3534   -3.0870    1.9667 H.spc      1 <1>        0.000
     46 H          -0.8858   -5.2452    1.7156 H.spc      1 <1>        0.000
     47 H          -2.1827   -5.7774    0.5976 H.spc      1 <1>        0.000
     48 H          -5.9465   -2.9668    0.5149 H.spc      1 <1>        0.000
     49 H          -5.3514   -3.1108    2.2611 H.spc      1 <1>        0.000
     50 H          -1.7270   -3.8453   -0.7890 H.spc      1 <1>        0.000
     51 H          -0.5688   -3.2661    0.5673 H.spc      1 <1>        0.000
     52 H          -3.9792   -4.5451    1.3993 H.spc      1 <1>        0.000
     53 H          -4.1349   -3.8270   -0.2967 H.spc      1 <1>        0.000
     54 H          -3.6769    3.0255   -2.2077 H.spc      1 <1>        0.000
     55 H          -5.4968    3.2355   -0.1010 H.spc      1 <1>        0.000
     56 H          -5.3241    1.7061    0.9704 H.spc      1 <1>        0.000
     57 H           3.5105   -6.8653    0.0779 H.spc      1 <1>        0.000
     58 H           1.2226    2.1409   -4.3043 H.spc      1 <1>        0.000
     59 H           1.9594    3.2509   -5.5019 H.spc      1 <1>        0.000
     60 H          -1.4301    3.7611   -0.7776 H.spc      1 <1>        0.000
     61 H          -3.0298    4.6498   -0.7963 H.spc      1 <1>        0.000
     62 H          -3.9988    2.7031    2.2989 H.spc      1 <1>        0.000
     63 H          -4.5218    4.2593    1.4942 H.spc      1 <1>        0.000
     64 H           0.5732   -5.1967   -0.4816 H.spc      1 <1>        0.000
     65 H          -2.2777    4.4522    1.4296 H.spc      1 <1>        0.000
     66 H          -2.0268    2.6672    1.2172 H.spc      1 <1>        0.000
     67 H          -0.9119   -7.7569   -0.4000 H.spc      1 <1>        0.000
     68 H          -1.0235    2.7341   -4.7695 H.spc      1 <1>        0.000
     69 H          -2.2481    3.4916   -3.6440 H.spc      1 <1>        0.000
     70 H           0.5177   -8.5667   -2.1604 H.spc      1 <1>        0.000
     71 H          -0.6142    5.0127   -4.2985 H.spc      1 <1>        0.000
     72 H          -0.3901    4.4787   -2.4757 H.spc      1 <1>        0.000
     73 H           2.7943   -8.1465   -2.2345 H.spc      1 <1>        0.000
     74 H           2.4014   -4.9885   -1.9987 H.spc      1 <1>        0.000
     75 H           4.0237    2.9601   -4.5303 H.spc      1 <1>        0.000
     76 H           4.5477   -3.8487   -0.9791 H.spc      1 <1>        0.000
     77 H           3.6608   -4.1678    0.5765 H.spc      1 <1>        0.000
     78 H           4.6039    2.2306   -2.4727 H.spc      1 <1>        0.000
     79 H           2.0871   -2.6914    0.1515 H.spc      1 <1>        0.000
     80 H           2.3186   -2.8575   -1.7099 H.spc      1 <1>        0.000
     81 H           1.8956    2.6815   -1.4029 H.spc      1 <1>        0.000
     82 H           3.3299    1.8511   -0.6220 H.spc      1 <1>        0.000
     83 H           4.4989   -1.5563   -0.8845 H.spc      1 <1>        0.000
     84 H           3.2202   -0.8784    0.1856 H.spc      1 <1>        0.000
     85 H           1.3498    0.6757   -2.5246 H.spc      1 <1>        0.000
     86 H           1.4699    0.3999   -0.7147 H.spc      1 <1>        0.000
@<TRIPOS>BOND
     1   20   25 1  
     2   15   21 1  
     3   19   24 2  
     4   10   15 1  
     5   19   23 1  
     6   14   19 1  
     7    8   22 1  
     8   10   14 1  
     9   14   20 1  
    10   12    8 1  
    11   16   31 2  
    12   17   32 2  
    13   18   33 1  
    14   32   34 1  
    15   33   35 2  
    16   34   36 1  
    17   35   37 1  
    18   36   38 1  
    19   37   39 1  
    20   16   18 1  
    21   30   17 1  
    22   29   16 1  
    23   28   30 2  
    24   27   29 1  
    25   26   28 1  
    26    1    2 1  
    27    1    3 1  
    28    1    4 1  
    29   23   27 1  
    30    2    5 1  
    31   22   26 2  
    32    2    6 2  
    33    3    7 1  
    34    4    9 1  
    35    5   10 am 
    36    5   11 2  
    37   21   25 1  
    38    7   12 1  
    39    7   13 1  
    40    9   13 1  
    41   38   40 1  
    42   39   40 1  
    43   40   41 2  
    44    1   42 1  
    45    4   43 1  
    46    4   44 1  
    47    7   45 1  
    48    8   46 1  
    49    8   47 1  
    50    9   48 1  
    51    9   49 1  
    52   12   50 1  
    53   12   51 1  
    54   13   52 1  
    55   13   53 1  
    56   14   54 1  
    57   15   55 1  
    58   15   56 1  
    59   17   57 1  
    60   18   58 1  
    61   18   59 1  
    62   20   60 1  
    63   20   61 1  
    64   21   62 1  
    65   21   63 1  
    66   22   64 1  
    67   25   65 1  
    68   25   66 1  
    69   26   67 1  
    70   27   68 1  
    71   27   69 1  
    72   28   70 1  
    73   29   71 1  
    74   29   72 1  
    75   30   73 1  
    76   32   74 1  
    77   33   75 1  
    78   34   76 1  
    79   34   77 1  
    80   35   78 1  
    81   36   79 1  
    82   36   80 1  
    83   37   81 1  
    84   37   82 1  
    85   38   83 1  
    86   38   84 1  
    87   39   85 1  
    88   39   86 1  
# Name:          frag5-549-186/138278 -- energy: -19.553766
# Creation time: Sat Jun  5 12:53:43 2010


@<TRIPOS>MOLECULE
frag5-549-186/138278 -- energy: -19.553766
   86    88     1     1     1
SMALL
USER_CHARGES


@<TRIPOS>ATOM
      1 C1         -3.8269   -0.7553    0.3508 C.3        1 <1>        0.000
      2 C2         -3.8681   -0.2820   -1.1063 C.2        1 <1>        0.000
      3 O1         -2.8018   -1.6437    0.6214 O.3        1 <1>        0.000
      4 C3         -5.1783   -1.3547    0.7006 C.3        1 <1>        0.000
      5 C4         -4.7485    0.9503   -1.3113 C.2        1 <1>        0.000
      6 O3         -3.3392   -0.7046   -2.1263 O.2        1 <1>        0.000
      7 C5         -2.8908   -3.0258    0.6581 C.3        1 <1>        0.000
      8 C12        -1.5728   -5.2203    0.4559 C.3        1 <1>        0.000
      9 C6         -5.3704   -2.7228    0.0939 C.3        1 <1>        0.000
     10 N1         -4.5130    1.9656   -0.4251 N.am       1 <1>        0.000
     11 O4         -5.6270    0.7852   -2.1454 O.2        1 <1>        0.000
     12 C8         -1.5788   -3.7077    0.3817 C.3        1 <1>        0.000
     13 C9         -4.0855   -3.4892   -0.1642 C.3        1 <1>        0.000
     14 C10        -3.3326    2.8366   -0.4060 C.3        1 <1>        0.000
     15 C11        -5.5617    2.3866    0.4653 C.3        1 <1>        0.000
     16 C28         0.9169    3.0261   -3.5948 C.2        1 <1>        0.000
     17 C29         2.9096   -5.8595   -0.4106 C.2        1 <1>        0.000
     18 C31         0.8450    1.5176   -3.8292 C.3        1 <1>        0.000
     19 C13        -2.1137    2.1218   -0.9577 C.2        1 <1>        0.000
     20 C14        -2.9864    3.5022    0.9135 C.3        1 <1>        0.000
     21 C15        -5.5005    3.7734    1.0371 C.3        1 <1>        0.000
     22 C16        -0.4702   -5.8552   -0.2731 C.2        1 <1>        0.000
     23 O6         -1.7071    2.4000   -2.1991 O.3        1 <1>        0.000
     24 O7         -1.5465    1.2564   -0.3032 O.2        1 <1>        0.000
     25 C17        -4.1621    4.1108    1.6434 C.3        1 <1>        0.000
     26 C18         0.1036   -7.0548   -0.1816 C.2        1 <1>        0.000
     27 C21        -1.1162    3.6612   -2.3467 C.3        1 <1>        0.000
     28 C22         1.2060   -7.6397   -0.8626 C.2        1 <1>        0.000
     29 C24         0.3745    3.5981   -2.3268 C.3        1 <1>        0.000
     30 C25         2.4429   -7.1193   -0.9562 C.2        1 <1>        0.000
     31 O8          1.3844    3.8017   -4.4371 O.2        1 <1>        0.000
     32 C32         2.5837   -4.6669   -0.9176 C.2        1 <1>        0.000
     33 C35         1.9641    1.0646   -4.6966 C.2        1 <1>        0.000
     34 C37         2.8278   -3.2142   -0.6836 C.3        1 <1>        0.000
     35 C40         3.2920    1.1344   -4.5040 C.2        1 <1>        0.000
     36 C41         3.3569   -2.6234   -1.9741 C.3        1 <1>        0.000
     37 C44         4.0631    1.6661   -3.3373 C.3        1 <1>        0.000
     38 C46         3.3982   -1.1589   -2.2877 C.3        1 <1>        0.000
     39 C48         5.1427    0.7604   -2.7973 C.3        1 <1>        0.000
     40 C49         4.6645   -0.4124   -1.9575 C.2        1 <1>        0.000
     41 O13         5.3446   -0.7657   -0.9877 O.2        1 <1>        0.000
     42 H          -3.6179    0.1125    0.9764 H.spc      1 <1>        0.000
     43 H          -5.9529   -0.6973    0.3058 H.spc      1 <1>        0.000
     44 H          -5.2345   -1.4539    1.7846 H.spc      1 <1>        0.000
     45 H          -3.0970   -3.3518    1.6776 H.spc      1 <1>        0.000
     46 H          -1.4604   -5.4897    1.5061 H.spc      1 <1>        0.000
     47 H          -2.5004   -5.5677    0.0010 H.spc      1 <1>        0.000
     48 H          -5.8517   -2.5761   -0.8730 H.spc      1 <1>        0.000
     49 H          -5.9504   -3.3076    0.8078 H.spc      1 <1>        0.000
     50 H          -1.3189   -3.4555   -0.6464 H.spc      1 <1>        0.000
     51 H          -0.8923   -3.3654    1.1561 H.spc      1 <1>        0.000
     52 H          -4.2752   -4.5271    0.1096 H.spc      1 <1>        0.000
     53 H          -3.8286   -3.3333   -1.2120 H.spc      1 <1>        0.000
     54 H          -3.6313    3.6606   -1.0540 H.spc      1 <1>        0.000
     55 H          -6.4714    2.3652   -0.1348 H.spc      1 <1>        0.000
     56 H          -5.4910    1.7201    1.3249 H.spc      1 <1>        0.000
     57 H           3.5626   -5.8868    0.4617 H.spc      1 <1>        0.000
     58 H           0.9169    1.0086   -2.8680 H.spc      1 <1>        0.000
     59 H          -0.0987    1.2829   -4.3216 H.spc      1 <1>        0.000
     60 H          -2.5780    2.7269    1.5618 H.spc      1 <1>        0.000
     61 H          -2.2985    4.3167    0.6865 H.spc      1 <1>        0.000
     62 H          -6.2460    3.8358    1.8298 H.spc      1 <1>        0.000
     63 H          -5.6782    4.4740    0.2212 H.spc      1 <1>        0.000
     64 H          -0.0328   -5.2197   -1.0431 H.spc      1 <1>        0.000
     65 H          -4.0482    5.1937    1.5942 H.spc      1 <1>        0.000
     66 H          -4.1560    3.7106    2.6573 H.spc      1 <1>        0.000
     67 H          -0.3600   -7.7115    0.5545 H.spc      1 <1>        0.000
     68 H          -1.4233    4.0663   -3.3109 H.spc      1 <1>        0.000
     69 H          -1.4381    4.2838   -1.5119 H.spc      1 <1>        0.000
     70 H           1.0332   -8.5973   -1.3537 H.spc      1 <1>        0.000
     71 H           0.7607    4.6110   -2.2128 H.spc      1 <1>        0.000
     72 H           0.6812    2.9567   -1.5006 H.spc      1 <1>        0.000
     73 H           3.1766   -7.7110   -1.5036 H.spc      1 <1>        0.000
     74 H           1.9290   -4.7978   -1.7792 H.spc      1 <1>        0.000
     75 H           1.6596    0.6035   -5.6362 H.spc      1 <1>        0.000
     76 H           3.5494   -3.0753    0.1214 H.spc      1 <1>        0.000
     77 H           1.9038   -2.7166   -0.3890 H.spc      1 <1>        0.000
     78 H           3.8992    0.7448   -5.3211 H.spc      1 <1>        0.000
     79 H           2.6502   -3.0018   -2.7127 H.spc      1 <1>        0.000
     80 H           4.4143   -2.8853   -1.9360 H.spc      1 <1>        0.000
     81 H           3.3441    1.8041   -2.5298 H.spc      1 <1>        0.000
     82 H           4.5641    2.5696   -3.6849 H.spc      1 <1>        0.000
     83 H           2.6212   -0.7051   -1.6726 H.spc      1 <1>        0.000
     84 H           3.2891   -1.0874   -3.3699 H.spc      1 <1>        0.000
     85 H           5.7610    1.3751   -2.1432 H.spc      1 <1>        0.000
     86 H           5.6471    0.3327   -3.6638 H.spc      1 <1>        0.000
@<TRIPOS>BOND
     1   20   25 1  
     2   15   21 1  
     3   19   24 2  
     4   10   15 1  
     5   19   23 1  
     6   14   19 1  
     7    8   22 1  
     8   10   14 1  
     9   14   20 1  
    10   12    8 1  
    11   16   31 2  
    12   17   32 2  
    13   18   33 1  
    14   32   34 1  
    15   33   35 2  
    16   34   36 1  
    17   35   37 1  
    18   36   38 1  
    19   37   39 1  
    20   16   18 1  
    21   30   17 1  
    22   29   16 1  
    23   28   30 2  
    24   27   29 1  
    25   26   28 1  
    26    1    2 1  
    27    1    3 1  
    28    1    4 1  
    29   23   27 1  
    30    2    5 1  
    31   22   26 2  
    32    2    6 2  
    33    3    7 1  
    34    4    9 1  
    35    5   10 am 
    36    5   11 2  
    37   21   25 1  
    38    7   12 1  
    39    7   13 1  
    40    9   13 1  
    41   38   40 1  
    42   39   40 1  
    43   40   41 2  
    44    1   42 1  
    45    4   43 1  
    46    4   44 1  
    47    7   45 1  
    48    8   46 1  
    49    8   47 1  
    50    9   48 1  
    51    9   49 1  
    52   12   50 1  
    53   12   51 1  
    54   13   52 1  
    55   13   53 1  
    56   14   54 1  
    57   15   55 1  
    58   15   56 1  
    59   17   57 1  
    60   18   58 1  
    61   18   59 1  
    62   20   60 1  
    63   20   61 1  
    64   21   62 1  
    65   21   63 1  
    66   22   64 1  
    67   25   65 1  
    68   25   66 1  
    69   26   67 1  
    70   27   68 1  
    71   27   69 1  
    72   28   70 1  
    73   29   71 1  
    74   29   72 1  
    75   30   73 1  
    76   32   74 1  
    77   33   75 1  
    78   34   76 1  
    79   34   77 1  
    80   35   78 1  
    81   36   79 1  
    82   36   80 1  
    83   37   81 1  
    84   37   82 1  
    85   38   83 1  
    86   38   84 1  
    87   39   85 1  
    88   39   86 1  
# Name:          frag5-549-186/138278 -- energy: -20.356743
# Creation time: Sat Jun  5 12:53:43 2010


@<TRIPOS>MOLECULE
frag5-549-186/138278 -- energy: -20.356743
   86    88     1     1     1
SMALL
USER_CHARGES


@<TRIPOS>ATOM
      1 C1         -3.6300   -0.7231    0.1169 C.3        1 <1>        0.000
      2 C2         -3.1555   -0.2900   -1.2819 C.2        1 <1>        0.000
      3 O1         -2.6529   -1.4388    0.7838 O.3        1 <1>        0.000
      4 C3         -4.9230   -1.5025    0.0163 C.3        1 <1>        0.000
      5 C4         -3.9812    0.8328   -1.8967 C.2        1 <1>        0.000
      6 O3         -2.2461   -0.6891   -1.9983 O.2        1 <1>        0.000
      7 C5         -2.5581   -2.8084    0.9528 C.3        1 <1>        0.000
      8 C12        -0.9945   -4.7176    1.6969 C.3        1 <1>        0.000
      9 C6         -4.7215   -2.9341   -0.4285 C.3        1 <1>        0.000
     10 N1         -4.2239    1.9147   -1.0895 N.am       1 <1>        0.000
     11 O4         -4.4395    0.5244   -2.9894 O.2        1 <1>        0.000
     12 C8         -1.1502   -3.2997    1.1867 C.3        1 <1>        0.000
     13 C9         -3.3485   -3.5191   -0.1426 C.3        1 <1>        0.000
     14 C10        -3.2531    2.9529   -0.6656 C.3        1 <1>        0.000
     15 C11        -5.5968    2.1998   -0.7591 C.3        1 <1>        0.000
     16 C28         1.9384    3.5871   -1.7338 C.2        1 <1>        0.000
     17 C29         3.0381   -5.4483   -0.5410 C.2        1 <1>        0.000
     18 C31         1.6146    2.7835   -2.9766 C.3        1 <1>        0.000
     19 C13        -1.8720    2.4060   -0.3373 C.2        1 <1>        0.000
     20 C14        -3.6397    3.8322    0.5165 C.3        1 <1>        0.000
     21 C15        -5.9983    3.5932   -0.3824 C.3        1 <1>        0.000
     22 C16         0.0163   -5.5295    0.9812 C.2        1 <1>        0.000
     23 O6         -0.7181    2.9349   -0.7143 O.3        1 <1>        0.000
     24 O7         -1.8064    1.4021    0.3758 O.2        1 <1>        0.000
     25 C17        -5.0896    4.2261    0.6314 C.3        1 <1>        0.000
     26 C18         0.9126   -6.4086    1.4276 C.2        1 <1>        0.000
     27 C21        -0.4789    4.1989   -1.2748 C.3        1 <1>        0.000
     28 C22         1.9353   -7.1947    0.8165 C.2        1 <1>        0.000
     29 C24         0.9670    4.6032   -1.1801 C.3        1 <1>        0.000
     30 C25         2.8783   -6.7781   -0.0301 C.2        1 <1>        0.000
     31 O8          3.0262    3.4335   -1.1662 O.2        1 <1>        0.000
     32 C32         2.2893   -4.8661   -1.4767 C.2        1 <1>        0.000
     33 C35         1.0423    1.4435   -2.6901 C.2        1 <1>        0.000
     34 C37         2.3218   -3.4931   -2.0458 C.3        1 <1>        0.000
     35 C40         0.9607    0.3792   -3.4980 C.2        1 <1>        0.000
     36 C41         1.8947   -3.3741   -3.4976 C.3        1 <1>        0.000
     37 C44         1.4365    0.2335   -4.8959 C.3        1 <1>        0.000
     38 C46         2.8027   -2.7288   -4.5093 C.3        1 <1>        0.000
     39 C48         2.8841   -0.1573   -5.0102 C.3        1 <1>        0.000
     40 C49         3.3195   -1.3477   -4.2009 C.2        1 <1>        0.000
     41 O13         4.1220   -1.1898   -3.2747 O.2        1 <1>        0.000
     42 H          -3.8215    0.1741    0.7055 H.spc      1 <1>        0.000
     43 H          -5.5489   -1.0100   -0.7278 H.spc      1 <1>        0.000
     44 H          -5.3737   -1.5248    1.0085 H.spc      1 <1>        0.000
     45 H          -3.0343   -3.0820    1.8943 H.spc      1 <1>        0.000
     46 H          -0.6656   -4.6459    2.7336 H.spc      1 <1>        0.000
     47 H          -1.9554   -5.2119    1.5541 H.spc      1 <1>        0.000
     48 H          -4.8441   -2.9434   -1.5115 H.spc      1 <1>        0.000
     49 H          -5.4385   -3.5368    0.1289 H.spc      1 <1>        0.000
     50 H          -0.6610   -3.2777    0.2129 H.spc      1 <1>        0.000
     51 H          -0.7348   -2.6563    1.9623 H.spc      1 <1>        0.000
     52 H          -3.5077   -4.5421    0.1983 H.spc      1 <1>        0.000
     53 H          -2.7689   -3.4233   -1.0607 H.spc      1 <1>        0.000
     54 H          -3.2525    3.5676   -1.5658 H.spc      1 <1>        0.000
     55 H          -6.1479    1.9944   -1.6768 H.spc      1 <1>        0.000
     56 H          -5.7924    1.6072    0.1346 H.spc      1 <1>        0.000
     57 H           3.8518   -4.8555   -0.1231 H.spc      1 <1>        0.000
     58 H           0.8678    3.3426   -3.5404 H.spc      1 <1>        0.000
     59 H           2.5485    2.6298   -3.5173 H.spc      1 <1>        0.000
     60 H          -3.4194    3.2454    1.4083 H.spc      1 <1>        0.000
     61 H          -3.0879    4.7633    0.3876 H.spc      1 <1>        0.000
     62 H          -6.9935    3.5389    0.0589 H.spc      1 <1>        0.000
     63 H          -5.9549    4.2017   -1.2857 H.spc      1 <1>        0.000
     64 H           0.0293   -5.3823   -0.0987 H.spc      1 <1>        0.000
     65 H          -5.1379    5.3030    0.4700 H.spc      1 <1>        0.000
     66 H          -5.4303    3.8936    1.6119 H.spc      1 <1>        0.000
     67 H           0.8507   -6.5625    2.5049 H.spc      1 <1>        0.000
     68 H          -0.7491    4.1568   -2.3299 H.spc      1 <1>        0.000
     69 H          -1.0705    4.9299   -0.7237 H.spc      1 <1>        0.000
     70 H           1.9471   -8.2547    1.0701 H.spc      1 <1>        0.000
     71 H           1.0839    5.5117   -1.7710 H.spc      1 <1>        0.000
     72 H           1.1970    4.7207   -0.1211 H.spc      1 <1>        0.000
     73 H           3.5992   -7.5231   -0.3669 H.spc      1 <1>        0.000
     74 H           1.5174   -5.5094   -1.8991 H.spc      1 <1>        0.000
     75 H           0.6343    1.3085   -1.6884 H.spc      1 <1>        0.000
     76 H           3.3600   -3.1641   -2.0008 H.spc      1 <1>        0.000
     77 H           1.6141   -2.9009   -1.4656 H.spc      1 <1>        0.000
     78 H           0.4791   -0.5003   -3.0707 H.spc      1 <1>        0.000
     79 H           1.0202   -2.7241   -3.4681 H.spc      1 <1>        0.000
     80 H           1.8048   -4.4061   -3.8368 H.spc      1 <1>        0.000
     81 H           1.3240    1.2040   -5.3791 H.spc      1 <1>        0.000
     82 H           0.8493   -0.5608   -5.3567 H.spc      1 <1>        0.000
     83 H           2.2044   -2.6224   -5.4142 H.spc      1 <1>        0.000
     84 H           3.6848   -3.3670   -4.5604 H.spc      1 <1>        0.000
     85 H           3.4576    0.6904   -4.6354 H.spc      1 <1>        0.000
     86 H           3.0443   -0.4255   -6.0545 H.spc      1 <1>        0.000
@<TRIPOS>BOND
     1   20   25 1  
     2   15   21 1  
     3   19   24 2  
     4   10   15 1  
     5   19   23 1  
     6   14   19 1  
     7    8   22 1  
     8   10   14 1  
     9   14   20 1  
    10   12    8 1  
    11   16   31 2  
    12   17   32 2  
    13   18   33 1  
    14   32   34 1  
    15   33   35 2  
    16   34   36 1  
    17   35   37 1  
    18   36   38 1  
    19   37   39 1  
    20   16   18 1  
    21   30   17 1  
    22   29   16 1  
    23   28   30 2  
    24   27   29 1  
    25   26   28 1  
    26    1    2 1  
    27    1    3 1  
    28    1    4 1  
    29   23   27 1  
    30    2    5 1  
    31   22   26 2  
    32    2    6 2  
    33    3    7 1  
    34    4    9 1  
    35    5   10 am 
    36    5   11 2  
    37   21   25 1  
    38    7   12 1  
    39    7   13 1  
    40    9   13 1  
    41   38   40 1  
    42   39   40 1  
    43   40   41 2  
    44    1   42 1  
    45    4   43 1  
    46    4   44 1  
    47    7   45 1  
    48    8   46 1  
    49    8   47 1  
    50    9   48 1  
    51    9   49 1  
    52   12   50 1  
    53   12   51 1  
    54   13   52 1  
    55   13   53 1  
    56   14   54 1  
    57   15   55 1  
    58   15   56 1  
    59   17   57 1  
    60   18   58 1  
    61   18   59 1  
    62   20   60 1  
    63   20   61 1  
    64   21   62 1  
    65   21   63 1  
    66   22   64 1  
    67   25   65 1  
    68   25   66 1  
    69   26   67 1  
    70   27   68 1  
    71   27   69 1  
    72   28   70 1  
    73   29   71 1  
    74   29   72 1  
    75   30   73 1  
    76   32   74 1  
    77   33   75 1  
    78   34   76 1  
    79   34   77 1  
    80   35   78 1  
    81   36   79 1  
    82   36   80 1  
    83   37   81 1  
    84   37   82 1  
    85   38   83 1  
    86   38   84 1  
    87   39   85 1  
    88   39   86 1  
# Name:          frag5-549-186/138278 -- energy: -17.808386
# Creation time: Sat Jun  5 12:53:43 2010


@<TRIPOS>MOLECULE
frag5-549-186/138278 -- energy: -17.808386
   86    88     1     1     1
SMALL
USER_CHARGES


@<TRIPOS>ATOM
      1 C1         -4.0182   -0.9998   -0.0233 C.3        1 <1>        0.000
      2 C2         -3.9480   -0.3434   -1.4141 C.2        1 <1>        0.000
      3 O1         -2.9985   -1.9071    0.2003 O.3        1 <1>        0.000
      4 C3         -5.4021   -1.6099    0.1642 C.3        1 <1>        0.000
      5 C4         -4.7200    0.9708   -1.5529 C.2        1 <1>        0.000
      6 O3         -3.3858   -0.6841   -2.4484 O.2        1 <1>        0.000
      7 C5         -3.0604   -3.2585    0.4791 C.3        1 <1>        0.000
      8 C12        -1.6508   -5.4217    0.9265 C.3        1 <1>        0.000
      9 C6         -5.5250   -3.0867   -0.1799 C.3        1 <1>        0.000
     10 N1         -4.4321    1.9273   -0.6066 N.am       1 <1>        0.000
     11 O4         -5.5918    0.9268   -2.4142 O.2        1 <1>        0.000
     12 C8         -1.7564   -4.0052    0.3597 C.3        1 <1>        0.000
     13 C9         -4.2351   -3.8702   -0.2579 C.3        1 <1>        0.000
     14 C10        -3.2668    2.8285   -0.6552 C.3        1 <1>        0.000
     15 C11        -5.5403    2.4534    0.1625 C.3        1 <1>        0.000
     16 C28         1.7428    4.0835   -2.9009 C.2        1 <1>        0.000
     17 C29         2.8968   -5.5891   -0.6365 C.2        1 <1>        0.000
     18 C31         1.3632    3.8353   -4.3496 C.3        1 <1>        0.000
     19 C13        -1.9741    2.0436   -0.8679 C.2        1 <1>        0.000
     20 C14        -3.0820    3.7719    0.5239 C.3        1 <1>        0.000
     21 C15        -5.2616    3.0142    1.5428 C.3        1 <1>        0.000
     22 C16        -0.2689   -5.9951    0.7363 C.2        1 <1>        0.000
     23 O6         -1.0373    2.3908   -1.7624 O.3        1 <1>        0.000
     24 O7         -1.7953    1.0426   -0.1681 O.2        1 <1>        0.000
     25 C17        -3.8167    3.3798    1.7843 C.3        1 <1>        0.000
     26 C18         0.7012   -6.3962    1.5810 C.2        1 <1>        0.000
     27 C21        -0.7119    3.7422   -1.9920 C.3        1 <1>        0.000
     28 C22         2.0191   -6.9319    1.3244 C.2        1 <1>        0.000
     29 C24         0.7374    4.0980   -1.7704 C.3        1 <1>        0.000
     30 C25         2.9171   -6.5943    0.3741 C.2        1 <1>        0.000
     31 O8          2.9200    4.3594   -2.6198 O.2        1 <1>        0.000
     32 C32         2.2303   -5.5101   -1.7860 C.2        1 <1>        0.000
     33 C35         2.1932    2.8894   -5.1372 C.2        1 <1>        0.000
     34 C37         2.1596   -4.4579   -2.8273 C.3        1 <1>        0.000
     35 C40         3.0498    1.8871   -4.8932 C.2        1 <1>        0.000
     36 C41         2.1574   -2.9703   -2.4646 C.3        1 <1>        0.000
     37 C44         3.5735    1.2155   -3.6629 C.3        1 <1>        0.000
     38 C46         3.4216   -2.3294   -1.9255 C.3        1 <1>        0.000
     39 C48         3.3747   -0.2829   -3.6424 C.3        1 <1>        0.000
     40 C49         3.9629   -1.0153   -2.4626 C.2        1 <1>        0.000
     41 O13         4.9812   -0.5578   -1.9219 O.2        1 <1>        0.000
     42 H          -3.8651   -0.2298    0.7329 H.spc      1 <1>        0.000
     43 H          -6.0681   -1.0784   -0.5155 H.spc      1 <1>        0.000
     44 H          -5.6378   -1.5197    1.2246 H.spc      1 <1>        0.000
     45 H          -3.2481   -3.3691    1.5471 H.spc      1 <1>        0.000
     46 H          -1.8625   -5.3814    1.9950 H.spc      1 <1>        0.000
     47 H          -2.3625   -6.0571    0.3995 H.spc      1 <1>        0.000
     48 H          -5.9647   -3.1290   -1.1764 H.spc      1 <1>        0.000
     49 H          -6.1038   -3.5374    0.6263 H.spc      1 <1>        0.000
     50 H          -1.5997   -4.1220   -0.7126 H.spc      1 <1>        0.000
     51 H          -1.0455   -3.4187    0.9417 H.spc      1 <1>        0.000
     52 H          -4.4278   -4.8361    0.2090 H.spc      1 <1>        0.000
     53 H          -3.9568   -3.9093   -1.3110 H.spc      1 <1>        0.000
     54 H          -3.4924    3.4713   -1.5061 H.spc      1 <1>        0.000
     55 H          -5.9144    3.2971   -0.4175 H.spc      1 <1>        0.000
     56 H          -6.2009    1.6025    0.3289 H.spc      1 <1>        0.000
     57 H           3.5410   -4.7340   -0.4317 H.spc      1 <1>        0.000
     58 H           0.3700    3.3877   -4.3149 H.spc      1 <1>        0.000
     59 H           1.4745    4.7992   -4.8462 H.spc      1 <1>        0.000
     60 H          -2.0194    3.7645    0.7665 H.spc      1 <1>        0.000
     61 H          -3.4821    4.7381    0.2167 H.spc      1 <1>        0.000
     62 H          -5.5209    2.2381    2.2629 H.spc      1 <1>        0.000
     63 H          -5.8450    3.9297    1.6410 H.spc      1 <1>        0.000
     64 H           0.0045   -6.1100   -0.3126 H.spc      1 <1>        0.000
     65 H          -3.8015    4.2384    2.4556 H.spc      1 <1>        0.000
     66 H          -3.3189    2.5022    2.1968 H.spc      1 <1>        0.000
     67 H           0.4495   -6.3005    2.6372 H.spc      1 <1>        0.000
     68 H          -0.9274    3.9430   -3.0414 H.spc      1 <1>        0.000
     69 H          -1.2917    4.3299   -1.2803 H.spc      1 <1>        0.000
     70 H           2.3353   -7.7275    1.9990 H.spc      1 <1>        0.000
     71 H           0.7030    5.1449   -1.4689 H.spc      1 <1>        0.000
     72 H           1.0945    3.3186   -1.0973 H.spc      1 <1>        0.000
     73 H           3.8226   -7.2010    0.3810 H.spc      1 <1>        0.000
     74 H           1.6199   -6.3867   -2.0029 H.spc      1 <1>        0.000
     75 H           2.0734    3.0552   -6.2078 H.spc      1 <1>        0.000
     76 H           1.1845   -4.6142   -3.2887 H.spc      1 <1>        0.000
     77 H           3.0842   -4.5867   -3.3899 H.spc      1 <1>        0.000
     78 H           3.4623    1.4606   -5.8075 H.spc      1 <1>        0.000
     79 H           1.4366   -2.8856   -1.6513 H.spc      1 <1>        0.000
     80 H           1.9679   -2.4567   -3.4072 H.spc      1 <1>        0.000
     81 H           3.0242    1.6244   -2.8148 H.spc      1 <1>        0.000
     82 H           4.6476    1.3978   -3.6295 H.spc      1 <1>        0.000
     83 H           4.1992   -3.0477   -2.1852 H.spc      1 <1>        0.000
     84 H           3.1643   -2.0932   -0.8930 H.spc      1 <1>        0.000
     85 H           3.8829   -0.6699   -4.5256 H.spc      1 <1>        0.000
     86 H           2.2981   -0.4470   -3.5971 H.spc      1 <1>        0.000
@<TRIPOS>BOND
     1   20   25 1  
     2   15   21 1  
     3   19   24 2  
     4   10   15 1  
     5   19   23 1  
     6   14   19 1  
     7    8   22 1  
     8   10   14 1  
     9   14   20 1  
    10   12    8 1  
    11   16   31 2  
    12   17   32 2  
    13   18   33 1  
    14   32   34 1  
    15   33   35 2  
    16   34   36 1  
    17   35   37 1  
    18   36   38 1  
    19   37   39 1  
    20   16   18 1  
    21   30   17 1  
    22   29   16 1  
    23   28   30 2  
    24   27   29 1  
    25   26   28 1  
    26    1    2 1  
    27    1    3 1  
    28    1    4 1  
    29   23   27 1  
    30    2    5 1  
    31   22   26 2  
    32    2    6 2  
    33    3    7 1  
    34    4    9 1  
    35    5   10 am 
    36    5   11 2  
    37   21   25 1  
    38    7   12 1  
    39    7   13 1  
    40    9   13 1  
    41   38   40 1  
    42   39   40 1  
    43   40   41 2  
    44    1   42 1  
    45    4   43 1  
    46    4   44 1  
    47    7   45 1  
    48    8   46 1  
    49    8   47 1  
    50    9   48 1  
    51    9   49 1  
    52   12   50 1  
    53   12   51 1  
    54   13   52 1  
    55   13   53 1  
    56   14   54 1  
    57   15   55 1  
    58   15   56 1  
    59   17   57 1  
    60   18   58 1  
    61   18   59 1  
    62   20   60 1  
    63   20   61 1  
    64   21   62 1  
    65   21   63 1  
    66   22   64 1  
    67   25   65 1  
    68   25   66 1  
    69   26   67 1  
    70   27   68 1  
    71   27   69 1  
    72   28   70 1  
    73   29   71 1  
    74   29   72 1  
    75   30   73 1  
    76   32   74 1  
    77   33   75 1  
    78   34   76 1  
    79   34   77 1  
    80   35   78 1  
    81   36   79 1  
    82   36   80 1  
    83   37   81 1  
    84   37   82 1  
    85   38   83 1  
    86   38   84 1  
    87   39   85 1  
    88   39   86 1  
# Name:          frag5-549-186/138278 -- energy: -19.692684
# Creation time: Sat Jun  5 12:53:43 2010


@<TRIPOS>MOLECULE
frag5-549-186/138278 -- energy: -19.692684
   86    88     1     1     1
SMALL
USER_CHARGES


@<TRIPOS>ATOM
      1 C1         -3.5498   -0.7756    0.2828 C.3        1 <1>        0.000
      2 C2         -4.3280   -0.3446   -0.9681 C.2        1 <1>        0.000
      3 O1         -2.5704   -1.7181    0.0166 O.3        1 <1>        0.000
      4 C3         -4.5408   -1.2621    1.3290 C.3        1 <1>        0.000
      5 C4         -5.0581    0.9940   -0.8233 C.2        1 <1>        0.000
      6 O3         -4.4751   -0.8874   -2.0566 O.2        1 <1>        0.000
      7 C5         -2.5749   -3.0612    0.3549 C.3        1 <1>        0.000
      8 C12        -1.3843   -5.3242    0.0777 C.3        1 <1>        0.000
      9 C6         -4.9684   -2.7039    1.1425 C.3        1 <1>        0.000
     10 N1         -4.3038    1.9911   -0.2542 N.am       1 <1>        0.000
     11 O4         -6.2440    0.9389   -1.1220 O.2        1 <1>        0.000
     12 C8         -1.5779   -3.9034   -0.3944 C.3        1 <1>        0.000
     13 C9         -3.9973   -3.5775    0.3773 C.3        1 <1>        0.000
     14 C10        -3.4016    2.8767   -1.0226 C.3        1 <1>        0.000
     15 C11        -4.7467    2.5234    1.0161 C.3        1 <1>        0.000
     16 C28         1.0676    3.5083   -4.4052 C.2        1 <1>        0.000
     17 C29         2.9814   -6.4125   -0.5354 C.2        1 <1>        0.000
     18 C31         2.5306    3.1023   -4.4819 C.3        1 <1>        0.000
     19 C13        -2.5266    2.1063   -2.0173 C.2        1 <1>        0.000
     20 C14        -2.4715    3.7872   -0.2329 C.3        1 <1>        0.000
     21 C15        -3.7756    3.3099    1.8498 C.3        1 <1>        0.000
     22 C16        -0.2414   -6.0049   -0.5655 C.2        1 <1>        0.000
     23 O6         -2.4836    2.4857   -3.3015 O.3        1 <1>        0.000
     24 O7         -1.8549    1.1541   -1.6148 O.2        1 <1>        0.000
     25 C17        -3.0198    4.3338    1.0561 C.3        1 <1>        0.000
     26 C18         0.0782   -7.2812   -0.8064 C.2        1 <1>        0.000
     27 C21        -1.3806    3.2655   -3.6927 C.3        1 <1>        0.000
     28 C22         1.2269   -7.9053   -1.4041 C.2        1 <1>        0.000
     29 C24         0.0284    2.7171   -3.6493 C.3        1 <1>        0.000
     30 C25         2.5195   -7.5452   -1.2824 C.2        1 <1>        0.000
     31 O8          0.7212    4.5292   -5.0183 O.2        1 <1>        0.000
     32 C32         3.0352   -5.1609   -1.0072 C.2        1 <1>        0.000
     33 C35         3.3080    3.0991   -3.2096 C.2        1 <1>        0.000
     34 C37         3.4103   -3.8648   -0.3990 C.3        1 <1>        0.000
     35 C40         3.3245    2.4672   -2.0261 C.2        1 <1>        0.000
     36 C41         2.4743   -2.7589   -0.8549 C.3        1 <1>        0.000
     37 C44         2.5352    1.4076   -1.3392 C.3        1 <1>        0.000
     38 C46         2.9150   -1.8709   -1.9878 C.3        1 <1>        0.000
     39 C48         3.3720    0.3432   -0.6719 C.3        1 <1>        0.000
     40 C49         3.8499   -0.7649   -1.5729 C.2        1 <1>        0.000
     41 O13         5.0196   -0.7704   -1.9704 O.2        1 <1>        0.000
     42 H          -3.0076    0.0887    0.6663 H.spc      1 <1>        0.000
     43 H          -5.4345   -0.6442    1.2424 H.spc      1 <1>        0.000
     44 H          -4.0497   -1.1916    2.2995 H.spc      1 <1>        0.000
     45 H          -2.1920   -3.1575    1.3709 H.spc      1 <1>        0.000
     46 H          -1.1865   -5.2907    1.1491 H.spc      1 <1>        0.000
     47 H          -2.2854   -5.8815   -0.1783 H.spc      1 <1>        0.000
     48 H          -5.8903   -2.6817    0.5614 H.spc      1 <1>        0.000
     49 H          -5.0532   -3.1342    2.1404 H.spc      1 <1>        0.000
     50 H          -1.9593   -3.9787   -1.4127 H.spc      1 <1>        0.000
     51 H          -0.6142   -3.4123   -0.2597 H.spc      1 <1>        0.000
     52 H          -3.9778   -4.5465    0.8760 H.spc      1 <1>        0.000
     53 H          -4.3421   -3.6094   -0.6562 H.spc      1 <1>        0.000
     54 H          -4.1305    3.5179   -1.5183 H.spc      1 <1>        0.000
     55 H          -5.5395    3.2284    0.7658 H.spc      1 <1>        0.000
     56 H          -4.9922    1.6488    1.6185 H.spc      1 <1>        0.000
     57 H           3.3122   -6.5822    0.4892 H.spc      1 <1>        0.000
     58 H           2.5319    2.0696   -4.8307 H.spc      1 <1>        0.000
     59 H           3.0099    3.8462   -5.1182 H.spc      1 <1>        0.000
     60 H          -1.6062    3.1813    0.0357 H.spc      1 <1>        0.000
     61 H          -2.2734    4.6488   -0.8705 H.spc      1 <1>        0.000
     62 H          -3.0509    2.6099    2.2656 H.spc      1 <1>        0.000
     63 H          -4.3449    3.8365    2.6157 H.spc      1 <1>        0.000
     64 H           0.5143   -5.3072   -0.9263 H.spc      1 <1>        0.000
     65 H          -3.7108    5.1397    0.8087 H.spc      1 <1>        0.000
     66 H          -2.1770    4.6682    1.6611 H.spc      1 <1>        0.000
     67 H          -0.6852   -7.9898   -0.4852 H.spc      1 <1>        0.000
     68 H          -1.5555    3.4515   -4.7524 H.spc      1 <1>        0.000
     69 H          -1.3662    4.0791   -2.9675 H.spc      1 <1>        0.000
     70 H           1.0283   -8.7744   -2.0312 H.spc      1 <1>        0.000
     71 H           0.3319    2.7334   -2.6025 H.spc      1 <1>        0.000
     72 H          -0.0103    1.7342   -4.1188 H.spc      1 <1>        0.000
     73 H           3.2662   -8.1581   -1.7873 H.spc      1 <1>        0.000
     74 H           2.7428   -5.0797   -2.0541 H.spc      1 <1>        0.000
     75 H           4.1091    3.8368   -3.2548 H.spc      1 <1>        0.000
     76 H           4.4250   -3.6139   -0.7081 H.spc      1 <1>        0.000
     77 H           3.3436   -3.9548    0.6852 H.spc      1 <1>        0.000
     78 H           4.1372    2.8277   -1.3955 H.spc      1 <1>        0.000
     79 H           2.3734   -2.0968    0.0051 H.spc      1 <1>        0.000
     80 H           1.5844   -3.2703   -1.2217 H.spc      1 <1>        0.000
     81 H           1.9334    0.9116   -2.1008 H.spc      1 <1>        0.000
     82 H           1.9550    1.8966   -0.5567 H.spc      1 <1>        0.000
     83 H           2.0204   -1.4012   -2.3967 H.spc      1 <1>        0.000
     84 H           3.4522   -2.4979   -2.6994 H.spc      1 <1>        0.000
     85 H           2.7383   -0.1220    0.0831 H.spc      1 <1>        0.000
     86 H           4.2641    0.8418   -0.2929 H.spc      1 <1>        0.000
@<TRIPOS>BOND
     1   20   25 1  
     2   15   21 1  
     3   19   24 2  
     4   10   15 1  
     5   19   23 1  
     6   14   19 1  
     7    8   22 1  
     8   10   14 1  
     9   14   20 1  
    10   12    8 1  
    11   16   31 2  
    12   17   32 2  
    13   18   33 1  
    14   32   34 1  
    15   33   35 2  
    16   34   36 1  
    17   35   37 1  
    18   36   38 1  
    19   37   39 1  
    20   16   18 1  
    21   30   17 1  
    22   29   16 1  
    23   28   30 2  
    24   27   29 1  
    25   26   28 1  
    26    1    2 1  
    27    1    3 1  
    28    1    4 1  
    29   23   27 1  
    30    2    5 1  
    31   22   26 2  
    32    2    6 2  
    33    3    7 1  
    34    4    9 1  
    35    5   10 am 
    36    5   11 2  
    37   21   25 1  
    38    7   12 1  
    39    7   13 1  
    40    9   13 1  
    41   38   40 1  
    42   39   40 1  
    43   40   41 2  
    44    1   42 1  
    45    4   43 1  
    46    4   44 1  
    47    7   45 1  
    48    8   46 1  
    49    8   47 1  
    50    9   48 1  
    51    9   49 1  
    52   12   50 1  
    53   12   51 1  
    54   13   52 1  
    55   13   53 1  
    56   14   54 1  
    57   15   55 1  
    58   15   56 1  
    59   17   57 1  
    60   18   58 1  
    61   18   59 1  
    62   20   60 1  
    63   20   61 1  
    64   21   62 1  
    65   21   63 1  
    66   22   64 1  
    67   25   65 1  
    68   25   66 1  
    69   26   67 1  
    70   27   68 1  
    71   27   69 1  
    72   28   70 1  
    73   29   71 1  
    74   29   72 1  
    75   30   73 1  
    76   32   74 1  
    77   33   75 1  
    78   34   76 1  
    79   34   77 1  
    80   35   78 1  
    81   36   79 1  
    82   36   80 1  
    83   37   81 1  
    84   37   82 1  
    85   38   83 1  
    86   38   84 1  
    87   39   85 1  
    88   39   86 1  
