#      Rotatable Fragment
#      Build by yxyuan
#
# Name:          frag3-248-3/31924
# Creation time: Sat Jun  5 12:52:38 2010


@<TRIPOS>MOLECULE
frag3-248-3/31924
   18    17     1     1     1
SMALL
USER_CHARGES


@<TRIPOS>ATOM
      1 Br1        -1.7404    1.6601    2.1490 Br         1 <1>        0.000
      2 C1         -1.5687    0.4406    0.7311 C.2        1 <1>        0.000
      3 C2         -0.4096    0.1932    0.1020 C.2        1 <1>        0.000
      4 C4          0.8772    0.8282    0.4323 C.2        1 <1>        0.000
      5 C5          1.9931    0.6926   -0.2967 C.2        1 <1>        0.000
      6 C6          3.2759    1.3191    0.0435 C.2        1 <1>        0.000
      7 C7          4.4985    0.9304   -0.3506 C.2        1 <1>        0.000
      8 C8          4.8374   -0.1953   -1.2291 C.2        1 <1>        0.000
      9 C9          6.0918   -0.6023   -1.4417 C.2        1 <1>        0.000
     10 H          -2.4588   -0.0952    0.4014 H.spc      1 <1>        0.000
     11 H          -0.4214   -0.5306   -0.7129 H.spc      1 <1>        0.000
     12 H           0.9250    1.4484    1.3274 H.spc      1 <1>        0.000
     13 H           1.9453    0.0799   -1.1969 H.spc      1 <1>        0.000
     14 H           3.2307    2.1973    0.6875 H.spc      1 <1>        0.000
     15 H           5.3360    1.5183    0.0249 H.spc      1 <1>        0.000
     16 H           4.0275   -0.7241   -1.7317 H.spc      1 <1>        0.000
     17 H           6.9209   -0.0916   -0.9519 H.spc      1 <1>        0.000
     18 H           6.2863   -1.4451   -2.1049 H.spc      1 <1>        0.000
@<TRIPOS>BOND
     1    7    8 1  
     2    8    9 2  
     3    6    7 2  
     4    1    2 1  
     5    2    3 2  
     6    3    4 1  
     7    4    5 2  
     8    5    6 1  
     9    2   10 1  
    10    3   11 1  
    11    4   12 1  
    12    5   13 1  
    13    6   14 1  
    14    7   15 1  
    15    8   16 1  
    16    9   17 1  
    17    9   18 1  
# Name:          frag3-248-3/31924
# Creation time: Sat Jun  5 12:52:38 2010


@<TRIPOS>MOLECULE
frag3-248-3/31924
   18    17     1     1     1
SMALL
USER_CHARGES


@<TRIPOS>ATOM
      1 Br1        -0.2939    0.4954    2.5362 Br         1 <1>        0.000
      2 C1         -1.1999    0.3066    0.9020 C.2        1 <1>        0.000
      3 C2         -0.7279    0.7710   -0.2667 C.2        1 <1>        0.000
      4 C4          0.5575    1.4711   -0.4278 C.2        1 <1>        0.000
      5 C5          1.7556    0.8670   -0.3777 C.2        1 <1>        0.000
      6 C6          3.0342    1.5714   -0.5282 C.2        1 <1>        0.000
      7 C7          4.2595    1.0271   -0.5820 C.2        1 <1>        0.000
      8 C8          4.6068   -0.3976   -0.5222 C.2        1 <1>        0.000
      9 C9          5.8633   -0.8453   -0.5938 C.2        1 <1>        0.000
     10 H          -2.1609   -0.2077    0.9019 H.spc      1 <1>        0.000
     11 H          -1.3383    0.6192   -1.1569 H.spc      1 <1>        0.000
     12 H           0.5350    2.5474   -0.5985 H.spc      1 <1>        0.000
     13 H           1.7800   -0.2106   -0.2156 H.spc      1 <1>        0.000
     14 H           2.9828    2.6575   -0.6048 H.spc      1 <1>        0.000
     15 H           5.0925    1.7230   -0.6815 H.spc      1 <1>        0.000
     16 H           3.8017   -1.1244   -0.4143 H.spc      1 <1>        0.000
     17 H           6.6877   -0.1404   -0.7019 H.spc      1 <1>        0.000
     18 H           6.0642   -1.9155   -0.5442 H.spc      1 <1>        0.000
@<TRIPOS>BOND
     1    7    8 1  
     2    8    9 2  
     3    6    7 2  
     4    1    2 1  
     5    2    3 2  
     6    3    4 1  
     7    4    5 2  
     8    5    6 1  
     9    2   10 1  
    10    3   11 1  
    11    4   12 1  
    12    5   13 1  
    13    6   14 1  
    14    7   15 1  
    15    8   16 1  
    16    9   17 1  
    17    9   18 1  
# Name:          frag3-248-3/31924
# Creation time: Sat Jun  5 12:52:38 2010


@<TRIPOS>MOLECULE
frag3-248-3/31924
   18    17     1     1     1
SMALL
USER_CHARGES


@<TRIPOS>ATOM
      1 Br1        -0.5856    0.0665    2.5752 Br         1 <1>        0.000
      2 C1         -1.1557    0.3290    0.8056 C.2        1 <1>        0.000
      3 C2         -0.3605    0.7969   -0.1688 C.2        1 <1>        0.000
      4 C4          1.0557    1.1592    0.0053 C.2        1 <1>        0.000
      5 C5          1.8617    1.5515   -0.9915 C.2        1 <1>        0.000
      6 C6          3.2755    1.9010   -0.8140 C.2        1 <1>        0.000
      7 C7          4.2975    1.0482   -0.6223 C.2        1 <1>        0.000
      8 C8          4.2427   -0.4172   -0.5783 C.2        1 <1>        0.000
      9 C9          5.2239   -1.1686   -0.0714 C.2        1 <1>        0.000
     10 H          -2.1891    0.0882    0.5561 H.spc      1 <1>        0.000
     11 H          -0.7947    0.9175   -1.1613 H.spc      1 <1>        0.000
     12 H           1.4761    1.1050    1.0095 H.spc      1 <1>        0.000
     13 H           1.4410    1.6147   -1.9951 H.spc      1 <1>        0.000
     14 H           3.5233    2.9621   -0.8402 H.spc      1 <1>        0.000
     15 H           5.2807    1.4979   -0.4835 H.spc      1 <1>        0.000
     16 H           3.3599   -0.9162   -0.9780 H.spc      1 <1>        0.000
     17 H           6.1180   -0.6958    0.3350 H.spc      1 <1>        0.000
     18 H           5.1305   -2.2546   -0.0641 H.spc      1 <1>        0.000
@<TRIPOS>BOND
     1    7    8 1  
     2    8    9 2  
     3    6    7 2  
     4    1    2 1  
     5    2    3 2  
     6    3    4 1  
     7    4    5 2  
     8    5    6 1  
     9    2   10 1  
    10    3   11 1  
    11    4   12 1  
    12    5   13 1  
    13    6   14 1  
    14    7   15 1  
    15    8   16 1  
    16    9   17 1  
    17    9   18 1  
# Name:          frag3-248-3/31924
# Creation time: Sat Jun  5 12:52:38 2010


@<TRIPOS>MOLECULE
frag3-248-3/31924
   18    17     1     1     1
SMALL
USER_CHARGES


@<TRIPOS>ATOM
      1 Br1        -1.7188    2.2994    1.2271 Br         1 <1>        0.000
      2 C1         -1.5407    0.5393    0.5961 C.2        1 <1>        0.000
      3 C2         -0.3618   -0.0925    0.4849 C.2        1 <1>        0.000
      4 C4          0.9410    0.4945    0.8411 C.2        1 <1>        0.000
      5 C5          2.0517    0.3654    0.1020 C.2        1 <1>        0.000
      6 C6          3.3505    0.9437    0.4675 C.2        1 <1>        0.000
      7 C7          4.5328    0.7266   -0.1294 C.2        1 <1>        0.000
      8 C8          4.7998   -0.1209   -1.2977 C.2        1 <1>        0.000
      9 C9          5.8008    0.1111   -2.1518 C.2        1 <1>        0.000
     10 H          -2.4432    0.0021    0.3046 H.spc      1 <1>        0.000
     11 H          -0.3692   -1.1136    0.1035 H.spc      1 <1>        0.000
     12 H           1.0062    1.0704    1.7642 H.spc      1 <1>        0.000
     13 H           1.9867   -0.2029   -0.8258 H.spc      1 <1>        0.000
     14 H           3.3552    1.6252    1.3182 H.spc      1 <1>        0.000
     15 H           5.3929    1.2380    0.3027 H.spc      1 <1>        0.000
     16 H           4.1518   -0.9789   -1.4767 H.spc      1 <1>        0.000
     17 H           6.4638    0.9622   -1.9962 H.spc      1 <1>        0.000
     18 H           5.9544   -0.5507   -3.0041 H.spc      1 <1>        0.000
@<TRIPOS>BOND
     1    7    8 1  
     2    8    9 2  
     3    6    7 2  
     4    1    2 1  
     5    2    3 2  
     6    3    4 1  
     7    4    5 2  
     8    5    6 1  
     9    2   10 1  
    10    3   11 1  
    11    4   12 1  
    12    5   13 1  
    13    6   14 1  
    14    7   15 1  
    15    8   16 1  
    16    9   17 1  
    17    9   18 1  
# Name:          frag3-248-3/31924
# Creation time: Sat Jun  5 12:52:38 2010


@<TRIPOS>MOLECULE
frag3-248-3/31924
   18    17     1     1     1
SMALL
USER_CHARGES


@<TRIPOS>ATOM
      1 Br1        -1.1518    0.8094    2.5165 Br         1 <1>        0.000
      2 C1         -1.2674    0.2123    0.7406 C.2        1 <1>        0.000
      3 C2         -0.3207    0.4407   -0.1830 C.2        1 <1>        0.000
      4 C4          0.9310    1.1753    0.0632 C.2        1 <1>        0.000
      5 C5          2.0734    0.9636   -0.6047 C.2        1 <1>        0.000
      6 C6          3.3214    1.6902   -0.3462 C.2        1 <1>        0.000
      7 C7          4.5758    1.2468   -0.5385 C.2        1 <1>        0.000
      8 C8          4.9836   -0.0600   -1.0658 C.2        1 <1>        0.000
      9 C9          4.7099   -1.2117   -0.4422 C.2        1 <1>        0.000
     10 H          -2.1520   -0.3509    0.4431 H.spc      1 <1>        0.000
     11 H          -0.4910    0.0544   -1.1879 H.spc      1 <1>        0.000
     12 H           0.9285    1.9410    0.8390 H.spc      1 <1>        0.000
     13 H           2.0755    0.2053   -1.3877 H.spc      1 <1>        0.000
     14 H           3.2203    2.7024    0.0454 H.spc      1 <1>        0.000
     15 H           5.3789    1.9344   -0.2732 H.spc      1 <1>        0.000
     16 H           5.5334   -0.0942   -2.0064 H.spc      1 <1>        0.000
     17 H           4.1614   -1.2045    0.4997 H.spc      1 <1>        0.000
     18 H           5.0354   -2.1571   -0.8761 H.spc      1 <1>        0.000
@<TRIPOS>BOND
     1    7    8 1  
     2    8    9 2  
     3    6    7 2  
     4    1    2 1  
     5    2    3 2  
     6    3    4 1  
     7    4    5 2  
     8    5    6 1  
     9    2   10 1  
    10    3   11 1  
    11    4   12 1  
    12    5   13 1  
    13    6   14 1  
    14    7   15 1  
    15    8   16 1  
    16    9   17 1  
    17    9   18 1  
# Name:          frag3-248-3/31924
# Creation time: Sat Jun  5 12:52:38 2010


@<TRIPOS>MOLECULE
frag3-248-3/31924
   18    17     1     1     1
SMALL
USER_CHARGES


@<TRIPOS>ATOM
      1 Br1        -1.7936    1.8617    1.6625 Br         1 <1>        0.000
      2 C1         -1.4365    0.3340    0.6302 C.2        1 <1>        0.000
      3 C2         -0.2052   -0.0196    0.2306 C.2        1 <1>        0.000
      4 C4          1.0254    0.7255    0.5447 C.2        1 <1>        0.000
      5 C5          2.1602    0.6376   -0.1626 C.2        1 <1>        0.000
      6 C6          3.3870    1.3750    0.1616 C.2        1 <1>        0.000
      7 C7          4.6524    0.9954   -0.0850 C.2        1 <1>        0.000
      8 C8          5.0961   -0.2289   -0.7617 C.2        1 <1>        0.000
      9 C9          4.9694   -0.4141   -2.0806 C.2        1 <1>        0.000
     10 H          -2.2746   -0.2996    0.3400 H.spc      1 <1>        0.000
     11 H          -0.1090   -0.9240   -0.3701 H.spc      1 <1>        0.000
     12 H           1.0125    1.3911    1.4077 H.spc      1 <1>        0.000
     13 H           2.1729   -0.0212   -1.0309 H.spc      1 <1>        0.000
     14 H           3.2575    2.3371    0.6573 H.spc      1 <1>        0.000
     15 H           5.4362    1.6720    0.2554 H.spc      1 <1>        0.000
     16 H           5.5480   -1.0209   -0.1645 H.spc      1 <1>        0.000
     17 H           4.5208    0.3630   -2.6994 H.spc      1 <1>        0.000
     18 H           5.3148   -1.3421   -2.5363 H.spc      1 <1>        0.000
@<TRIPOS>BOND
     1    7    8 1  
     2    8    9 2  
     3    6    7 2  
     4    1    2 1  
     5    2    3 2  
     6    3    4 1  
     7    4    5 2  
     8    5    6 1  
     9    2   10 1  
    10    3   11 1  
    11    4   12 1  
    12    5   13 1  
    13    6   14 1  
    14    7   15 1  
    15    8   16 1  
    16    9   17 1  
    17    9   18 1  
# Name:          frag3-248-3/31924
# Creation time: Sat Jun  5 12:52:38 2010


@<TRIPOS>MOLECULE
frag3-248-3/31924
   18    17     1     1     1
SMALL
USER_CHARGES


@<TRIPOS>ATOM
      1 Br1         0.3013    0.0581    2.3167 Br         1 <1>        0.000
      2 C1         -0.8777    0.3272    0.8821 C.2        1 <1>        0.000
      3 C2         -0.4806    0.6603   -0.3579 C.2        1 <1>        0.000
      4 C4          0.9218    0.8579   -0.7552 C.2        1 <1>        0.000
      5 C5          1.7308    1.7984   -0.2354 C.2        1 <1>        0.000
      6 C6          3.1249    1.9962   -0.6414 C.2        1 <1>        0.000
      7 C7          4.0977    1.0663   -0.6508 C.2        1 <1>        0.000
      8 C8          3.9900   -0.3456   -0.2701 C.2        1 <1>        0.000
      9 C9          5.0471   -1.1520   -0.1482 C.2        1 <1>        0.000
     10 H          -1.9455    0.2065    1.0648 H.spc      1 <1>        0.000
     11 H          -1.2488    0.7928   -1.1198 H.spc      1 <1>        0.000
     12 H           1.3322    0.1993   -1.5207 H.spc      1 <1>        0.000
     13 H           1.3245    2.4536    0.5351 H.spc      1 <1>        0.000
     14 H           3.4021    2.9982   -0.9690 H.spc      1 <1>        0.000
     15 H           5.0810    1.4021   -0.9800 H.spc      1 <1>        0.000
     16 H           2.9991   -0.7567   -0.0773 H.spc      1 <1>        0.000
     17 H           6.0500   -0.7679   -0.3349 H.spc      1 <1>        0.000
     18 H           4.9072   -2.1944    0.1380 H.spc      1 <1>        0.000
@<TRIPOS>BOND
     1    7    8 1  
     2    8    9 2  
     3    6    7 2  
     4    1    2 1  
     5    2    3 2  
     6    3    4 1  
     7    4    5 2  
     8    5    6 1  
     9    2   10 1  
    10    3   11 1  
    11    4   12 1  
    12    5   13 1  
    13    6   14 1  
    14    7   15 1  
    15    8   16 1  
    16    9   17 1  
    17    9   18 1  
# Name:          frag3-248-3/31924
# Creation time: Sat Jun  5 12:52:38 2010


@<TRIPOS>MOLECULE
frag3-248-3/31924
   18    17     1     1     1
SMALL
USER_CHARGES


@<TRIPOS>ATOM
      1 Br1        -0.0134   -1.1295    0.8441 Br         1 <1>        0.000
      2 C1         -0.9018    0.4808    1.2157 C.2        1 <1>        0.000
      3 C2         -0.5212    1.6741    0.7275 C.2        1 <1>        0.000
      4 C4          0.6359    1.8771   -0.1588 C.2        1 <1>        0.000
      5 C5          1.8872    1.4769    0.1264 C.2        1 <1>        0.000
      6 C6          3.0374    1.6883   -0.7557 C.2        1 <1>        0.000
      7 C7          4.0634    0.8487   -0.9668 C.2        1 <1>        0.000
      8 C8          4.2673   -0.4782   -0.3783 C.2        1 <1>        0.000
      9 C9          5.4005   -1.1716   -0.5143 C.2        1 <1>        0.000
     10 H          -1.7768    0.4468    1.8647 H.spc      1 <1>        0.000
     11 H          -1.1084    2.5490    1.0065 H.spc      1 <1>        0.000
     12 H           0.4674    2.3850   -1.1084 H.spc      1 <1>        0.000
     13 H           2.0564    0.9632    1.0728 H.spc      1 <1>        0.000
     14 H           3.0631    2.6317   -1.3010 H.spc      1 <1>        0.000
     15 H           4.8343    1.1938   -1.6558 H.spc      1 <1>        0.000
     16 H           3.4547   -0.9203    0.1982 H.spc      1 <1>        0.000
     17 H           6.2297   -0.7541   -1.0854 H.spc      1 <1>        0.000
     18 H           5.4962   -2.1551   -0.0542 H.spc      1 <1>        0.000
@<TRIPOS>BOND
     1    7    8 1  
     2    8    9 2  
     3    6    7 2  
     4    1    2 1  
     5    2    3 2  
     6    3    4 1  
     7    4    5 2  
     8    5    6 1  
     9    2   10 1  
    10    3   11 1  
    11    4   12 1  
    12    5   13 1  
    13    6   14 1  
    14    7   15 1  
    15    8   16 1  
    16    9   17 1  
    17    9   18 1  
# Name:          frag3-248-3/31924
# Creation time: Sat Jun  5 12:52:38 2010


@<TRIPOS>MOLECULE
frag3-248-3/31924
   18    17     1     1     1
SMALL
USER_CHARGES


@<TRIPOS>ATOM
      1 Br1        -0.5140    1.6992   -0.9179 Br         1 <1>        0.000
      2 C1         -0.9793    0.5114    0.4576 C.2        1 <1>        0.000
      3 C2         -0.0824   -0.1540    1.2059 C.2        1 <1>        0.000
      4 C4          1.3755   -0.0301    1.0572 C.2        1 <1>        0.000
      5 C5          2.0472    1.1345    1.1161 C.2        1 <1>        0.000
      6 C6          3.4983    1.2530    0.9561 C.2        1 <1>        0.000
      7 C7          4.2291    0.8156   -0.0860 C.2        1 <1>        0.000
      8 C8          3.7474    0.1544   -1.3025 C.2        1 <1>        0.000
      9 C9          4.5335   -0.1175   -2.3468 C.2        1 <1>        0.000
     10 H          -2.0380    0.3516    0.6618 H.spc      1 <1>        0.000
     11 H          -0.4605   -0.8296    1.9731 H.spc      1 <1>        0.000
     12 H           1.9495   -0.9412    0.8882 H.spc      1 <1>        0.000
     13 H           1.4762    2.0458    1.2938 H.spc      1 <1>        0.000
     14 H           4.0414    1.7453    1.7628 H.spc      1 <1>        0.000
     15 H           5.3057    0.9713   -0.0174 H.spc      1 <1>        0.000
     16 H           2.6963   -0.1290   -1.3571 H.spc      1 <1>        0.000
     17 H           5.5887    0.1545   -2.3201 H.spc      1 <1>        0.000
     18 H           4.1201   -0.6115   -3.2261 H.spc      1 <1>        0.000
@<TRIPOS>BOND
     1    7    8 1  
     2    8    9 2  
     3    6    7 2  
     4    1    2 1  
     5    2    3 2  
     6    3    4 1  
     7    4    5 2  
     8    5    6 1  
     9    2   10 1  
    10    3   11 1  
    11    4   12 1  
    12    5   13 1  
    13    6   14 1  
    14    7   15 1  
    15    8   16 1  
    16    9   17 1  
    17    9   18 1  
# Name:          frag3-248-3/31924
# Creation time: Sat Jun  5 12:52:38 2010


@<TRIPOS>MOLECULE
frag3-248-3/31924
   18    17     1     1     1
SMALL
USER_CHARGES


@<TRIPOS>ATOM
      1 Br1        -0.6013    2.0367   -0.5888 Br         1 <1>        0.000
      2 C1         -1.0706    0.4703    0.3324 C.2        1 <1>        0.000
      3 C2         -0.2411   -0.1819    1.1647 C.2        1 <1>        0.000
      4 C4          1.1366    0.2405    1.4642 C.2        1 <1>        0.000
      5 C5          2.1144    0.3343    0.5476 C.2        1 <1>        0.000
      6 C6          3.4878    0.7462    0.8528 C.2        1 <1>        0.000
      7 C7          4.4814    0.9804   -0.0216 C.2        1 <1>        0.000
      8 C8          4.4155    0.8893   -1.4838 C.2        1 <1>        0.000
      9 C9          4.1326   -0.2492   -2.1276 C.2        1 <1>        0.000
     10 H          -2.0723    0.0669    0.1840 H.spc      1 <1>        0.000
     11 H          -0.6135   -1.0839    1.6503 H.spc      1 <1>        0.000
     12 H           1.3793    0.4936    2.4963 H.spc      1 <1>        0.000
     13 H           1.8716    0.0891   -0.4863 H.spc      1 <1>        0.000
     14 H           3.7305    0.8773    1.9073 H.spc      1 <1>        0.000
     15 H           5.4425    1.2701    0.4031 H.spc      1 <1>        0.000
     16 H           4.6051    1.7875   -2.0714 H.spc      1 <1>        0.000
     17 H           3.9391   -1.1611   -1.5627 H.spc      1 <1>        0.000
     18 H           4.0956   -0.2646   -3.2169 H.spc      1 <1>        0.000
@<TRIPOS>BOND
     1    7    8 1  
     2    8    9 2  
     3    6    7 2  
     4    1    2 1  
     5    2    3 2  
     6    3    4 1  
     7    4    5 2  
     8    5    6 1  
     9    2   10 1  
    10    3   11 1  
    11    4   12 1  
    12    5   13 1  
    13    6   14 1  
    14    7   15 1  
    15    8   16 1  
    16    9   17 1  
    17    9   18 1  
# Name:          frag3-248-3/31924
# Creation time: Sat Jun  5 12:52:38 2010


@<TRIPOS>MOLECULE
frag3-248-3/31924
   18    17     1     1     1
SMALL
USER_CHARGES


@<TRIPOS>ATOM
      1 Br1        -0.6857    2.4295    0.0157 Br         1 <1>        0.000
      2 C1         -1.2487    0.6807    0.3942 C.2        1 <1>        0.000
      3 C2         -0.4519   -0.2647    0.9224 C.2        1 <1>        0.000
      4 C4          0.9611   -0.0539    1.2737 C.2        1 <1>        0.000
      5 C5          1.8764    0.4816    0.4467 C.2        1 <1>        0.000
      6 C6          3.2839    0.6795    0.7969 C.2        1 <1>        0.000
      7 C7          4.3426    0.6057   -0.0251 C.2        1 <1>        0.000
      8 C8          4.3382    0.3355   -1.4652 C.2        1 <1>        0.000
      9 C9          5.4393    0.3727   -2.2196 C.2        1 <1>        0.000
     10 H          -2.2825    0.4154    0.1729 H.spc      1 <1>        0.000
     11 H          -0.8804   -1.2508    1.1019 H.spc      1 <1>        0.000
     12 H           1.2877   -0.3514    2.2702 H.spc      1 <1>        0.000
     13 H           1.5496    0.7876   -0.5471 H.spc      1 <1>        0.000
     14 H           3.4957    0.9125    1.8404 H.spc      1 <1>        0.000
     15 H           5.3192    0.7654    0.4319 H.spc      1 <1>        0.000
     16 H           3.3897    0.0922   -1.9441 H.spc      1 <1>        0.000
     17 H           6.4017    0.6131   -1.7678 H.spc      1 <1>        0.000
     18 H           5.3758    0.1626   -3.2873 H.spc      1 <1>        0.000
@<TRIPOS>BOND
     1    7    8 1  
     2    8    9 2  
     3    6    7 2  
     4    1    2 1  
     5    2    3 2  
     6    3    4 1  
     7    4    5 2  
     8    5    6 1  
     9    2   10 1  
    10    3   11 1  
    11    4   12 1  
    12    5   13 1  
    13    6   14 1  
    14    7   15 1  
    15    8   16 1  
    16    9   17 1  
    17    9   18 1  
# Name:          frag3-248-3/31924
# Creation time: Sat Jun  5 12:52:38 2010


@<TRIPOS>MOLECULE
frag3-248-3/31924
   18    17     1     1     1
SMALL
USER_CHARGES


@<TRIPOS>ATOM
      1 Br1        -1.7133    2.1403    0.9652 Br         1 <1>        0.000
      2 C1         -1.3576    0.3474    0.5369 C.2        1 <1>        0.000
      3 C2         -0.1228   -0.1777    0.5061 C.2        1 <1>        0.000
      4 C4          1.1122    0.5652    0.8060 C.2        1 <1>        0.000
      5 C5          2.3133    0.2698    0.2915 C.2        1 <1>        0.000
      6 C6          3.5430    1.0083    0.6008 C.2        1 <1>        0.000
      7 C7          4.6227    1.1574   -0.1865 C.2        1 <1>        0.000
      8 C8          4.8130    0.6248   -1.5402 C.2        1 <1>        0.000
      9 C9          4.6447   -0.6688   -1.8399 C.2        1 <1>        0.000
     10 H          -2.1999   -0.3027    0.3003 H.spc      1 <1>        0.000
     11 H          -0.0275   -1.2304    0.2398 H.spc      1 <1>        0.000
     12 H           1.0450    1.4104    1.4910 H.spc      1 <1>        0.000
     13 H           2.3813   -0.5707   -0.3992 H.spc      1 <1>        0.000
     14 H           3.5859    1.4897    1.5778 H.spc      1 <1>        0.000
     15 H           5.4476    1.7380    0.2265 H.spc      1 <1>        0.000
     16 H           5.1037    1.3114   -2.3353 H.spc      1 <1>        0.000
     17 H           4.3542   -1.3751   -1.0622 H.spc      1 <1>        0.000
     18 H           4.7982   -1.0160   -2.8617 H.spc      1 <1>        0.000
@<TRIPOS>BOND
     1    7    8 1  
     2    8    9 2  
     3    6    7 2  
     4    1    2 1  
     5    2    3 2  
     6    3    4 1  
     7    4    5 2  
     8    5    6 1  
     9    2   10 1  
    10    3   11 1  
    11    4   12 1  
    12    5   13 1  
    13    6   14 1  
    14    7   15 1  
    15    8   16 1  
    16    9   17 1  
    17    9   18 1  
# Name:          frag3-248-3/31924
# Creation time: Sat Jun  5 12:52:39 2010


@<TRIPOS>MOLECULE
frag3-248-3/31924
   18    17     1     1     1
SMALL
USER_CHARGES


@<TRIPOS>ATOM
      1 Br1        -1.3898    2.0511   -0.0016 Br         1 <1>        0.000
      2 C1         -1.0703    0.2841    0.5446 C.2        1 <1>        0.000
      3 C2          0.1570   -0.2245    0.7351 C.2        1 <1>        0.000
      4 C4          1.4114    0.5231    0.5536 C.2        1 <1>        0.000
      5 C5          2.5819    0.1806    1.1111 C.2        1 <1>        0.000
      6 C6          3.8273    0.9354    0.9351 C.2        1 <1>        0.000
      7 C7          4.4505    1.1999   -0.2302 C.2        1 <1>        0.000
      8 C8          4.0265    0.7980   -1.5757 C.2        1 <1>        0.000
      9 C9          3.8607   -0.4811   -1.9322 C.2        1 <1>        0.000
     10 H          -1.9290   -0.3649    0.7166 H.spc      1 <1>        0.000
     11 H           0.2298   -1.2665    1.0467 H.spc      1 <1>        0.000
     12 H           1.3876    1.4133   -0.0750 H.spc      1 <1>        0.000
     13 H           2.6096   -0.7138    1.7334 H.spc      1 <1>        0.000
     14 H           4.2969    1.3220    1.8396 H.spc      1 <1>        0.000
     15 H           5.3729    1.7771   -0.1656 H.spc      1 <1>        0.000
     16 H           3.8384    1.5746   -2.3170 H.spc      1 <1>        0.000
     17 H           4.0424   -1.2763   -1.2092 H.spc      1 <1>        0.000
     18 H           3.5439   -0.7278   -2.9456 H.spc      1 <1>        0.000
@<TRIPOS>BOND
     1    7    8 1  
     2    8    9 2  
     3    6    7 2  
     4    1    2 1  
     5    2    3 2  
     6    3    4 1  
     7    4    5 2  
     8    5    6 1  
     9    2   10 1  
    10    3   11 1  
    11    4   12 1  
    12    5   13 1  
    13    6   14 1  
    14    7   15 1  
    15    8   16 1  
    16    9   17 1  
    17    9   18 1  
# Name:          frag3-248-3/31924
# Creation time: Sat Jun  5 12:52:39 2010


@<TRIPOS>MOLECULE
frag3-248-3/31924
   18    17     1     1     1
SMALL
USER_CHARGES


@<TRIPOS>ATOM
      1 Br1        -1.0659    1.2091    2.3041 Br         1 <1>        0.000
      2 C1         -1.2373    0.3535    0.6416 C.2        1 <1>        0.000
      3 C2         -0.2011    0.1033   -0.1748 C.2        1 <1>        0.000
      4 C4          1.1970    0.4603    0.1160 C.2        1 <1>        0.000
      5 C5          1.8343    1.5118   -0.4234 C.2        1 <1>        0.000
      6 C6          3.2319    1.8563   -0.1369 C.2        1 <1>        0.000
      7 C7          4.3084    1.0735   -0.3323 C.2        1 <1>        0.000
      8 C8          4.3391   -0.2802   -0.8983 C.2        1 <1>        0.000
      9 C9          5.4489   -1.0210   -0.9563 C.2        1 <1>        0.000
     10 H          -2.2320    0.0430    0.3219 H.spc      1 <1>        0.000
     11 H          -0.4099   -0.3994   -1.1191 H.spc      1 <1>        0.000
     12 H           1.7500   -0.1689    0.8135 H.spc      1 <1>        0.000
     13 H           1.2810    2.1472   -1.1150 H.spc      1 <1>        0.000
     14 H           3.4165    2.8478    0.2765 H.spc      1 <1>        0.000
     15 H           5.2695    1.4935   -0.0358 H.spc      1 <1>        0.000
     16 H           3.4128   -0.7007   -1.2897 H.spc      1 <1>        0.000
     17 H           6.3891   -0.6252   -0.5722 H.spc      1 <1>        0.000
     18 H           5.4145   -2.0214   -1.3877 H.spc      1 <1>        0.000
@<TRIPOS>BOND
     1    7    8 1  
     2    8    9 2  
     3    6    7 2  
     4    1    2 1  
     5    2    3 2  
     6    3    4 1  
     7    4    5 2  
     8    5    6 1  
     9    2   10 1  
    10    3   11 1  
    11    4   12 1  
    12    5   13 1  
    13    6   14 1  
    14    7   15 1  
    15    8   16 1  
    16    9   17 1  
    17    9   18 1  
# Name:          frag3-248-3/31924
# Creation time: Sat Jun  5 12:52:39 2010


@<TRIPOS>MOLECULE
frag3-248-3/31924
   18    17     1     1     1
SMALL
USER_CHARGES


@<TRIPOS>ATOM
      1 Br1        -0.6150    0.3594    2.5334 Br         1 <1>        0.000
      2 C1         -1.0279    0.1806    0.7107 C.2        1 <1>        0.000
      3 C2         -0.2007    0.5531   -0.2781 C.2        1 <1>        0.000
      4 C4          1.1345    1.1399   -0.0784 C.2        1 <1>        0.000
      5 C5          2.0478    1.2836   -1.0489 C.2        1 <1>        0.000
      6 C6          3.3816    1.8590   -0.8415 C.2        1 <1>        0.000
      7 C7          4.4589    1.2364   -0.3257 C.2        1 <1>        0.000
      8 C8          4.5519   -0.1615    0.1096 C.2        1 <1>        0.000
      9 C9          4.1241   -1.1839   -0.6412 C.2        1 <1>        0.000
     10 H          -1.9925   -0.2494    0.4408 H.spc      1 <1>        0.000
     11 H          -0.5422    0.4109   -1.3034 H.spc      1 <1>        0.000
     12 H           1.3975    1.4795    0.9234 H.spc      1 <1>        0.000
     13 H           1.7836    0.9529   -2.0534 H.spc      1 <1>        0.000
     14 H           3.5146    2.9000   -1.1359 H.spc      1 <1>        0.000
     15 H           5.3617    1.8379   -0.2200 H.spc      1 <1>        0.000
     16 H           4.9876   -0.3767    1.0853 H.spc      1 <1>        0.000
     17 H           3.6847   -0.9944   -1.6205 H.spc      1 <1>        0.000
     18 H           4.2152   -2.2058   -0.2732 H.spc      1 <1>        0.000
@<TRIPOS>BOND
     1    7    8 1  
     2    8    9 2  
     3    6    7 2  
     4    1    2 1  
     5    2    3 2  
     6    3    4 1  
     7    4    5 2  
     8    5    6 1  
     9    2   10 1  
    10    3   11 1  
    11    4   12 1  
    12    5   13 1  
    13    6   14 1  
    14    7   15 1  
    15    8   16 1  
    16    9   17 1  
    17    9   18 1  
# Name:          frag3-248-3/31924
# Creation time: Sat Jun  5 12:52:39 2010


@<TRIPOS>MOLECULE
frag3-248-3/31924
   18    17     1     1     1
SMALL
USER_CHARGES


@<TRIPOS>ATOM
      1 Br1        -0.3457   -1.2428    1.3212 Br         1 <1>        0.000
      2 C1         -0.8299    0.5599    1.1441 C.2        1 <1>        0.000
      3 C2         -0.0704    1.4796    0.5287 C.2        1 <1>        0.000
      4 C4          1.2322    1.2073   -0.0948 C.2        1 <1>        0.000
      5 C5          2.0400    2.1470   -0.6080 C.2        1 <1>        0.000
      6 C6          3.3340    1.8682   -1.2362 C.2        1 <1>        0.000
      7 C7          4.1787    0.8672   -0.9202 C.2        1 <1>        0.000
      8 C8          3.9964   -0.1697    0.0998 C.2        1 <1>        0.000
      9 C9          4.3199   -1.4501   -0.0947 C.2        1 <1>        0.000
     10 H          -1.7832    0.8794    1.5652 H.spc      1 <1>        0.000
     11 H          -0.4467    2.5018    0.4885 H.spc      1 <1>        0.000
     12 H           1.5647    0.1704   -0.1435 H.spc      1 <1>        0.000
     13 H           1.7126    3.1853   -0.5542 H.spc      1 <1>        0.000
     14 H           3.6441    2.5371   -2.0390 H.spc      1 <1>        0.000
     15 H           5.1068    0.8232   -1.4901 H.spc      1 <1>        0.000
     16 H           3.5765    0.1187    1.0634 H.spc      1 <1>        0.000
     17 H           4.7417   -1.7668   -1.0486 H.spc      1 <1>        0.000
     18 H           4.1623   -2.1789    0.7004 H.spc      1 <1>        0.000
@<TRIPOS>BOND
     1    7    8 1  
     2    8    9 2  
     3    6    7 2  
     4    1    2 1  
     5    2    3 2  
     6    3    4 1  
     7    4    5 2  
     8    5    6 1  
     9    2   10 1  
    10    3   11 1  
    11    4   12 1  
    12    5   13 1  
    13    6   14 1  
    14    7   15 1  
    15    8   16 1  
    16    9   17 1  
    17    9   18 1  
# Name:          frag3-248-3/31924
# Creation time: Sat Jun  5 12:52:39 2010


@<TRIPOS>MOLECULE
frag3-248-3/31924
   18    17     1     1     1
SMALL
USER_CHARGES


@<TRIPOS>ATOM
      1 Br1        -1.0534    1.9501    1.5795 Br         1 <1>        0.000
      2 C1         -1.2050    0.4191    0.5064 C.2        1 <1>        0.000
      3 C2         -0.1532   -0.2899    0.0610 C.2        1 <1>        0.000
      4 C4          1.2503    0.0378    0.3549 C.2        1 <1>        0.000
      5 C5          1.8081    1.2438    0.1416 C.2        1 <1>        0.000
      6 C6          3.2084    1.5627    0.4267 C.2        1 <1>        0.000
      7 C7          4.2903    1.0259   -0.1667 C.2        1 <1>        0.000
      8 C8          4.3196    0.0333   -1.2445 C.2        1 <1>        0.000
      9 C9          5.3901   -0.7161   -1.5191 C.2        1 <1>        0.000
     10 H          -2.2043    0.0847    0.2277 H.spc      1 <1>        0.000
     11 H          -0.3535   -1.1644   -0.5581 H.spc      1 <1>        0.000
     12 H           1.8799   -0.7477    0.7729 H.spc      1 <1>        0.000
     13 H           1.1779    2.0326   -0.2692 H.spc      1 <1>        0.000
     14 H           3.3932    2.3107    1.1977 H.spc      1 <1>        0.000
     15 H           5.2586    1.3697    0.1970 H.spc      1 <1>        0.000
     16 H           3.4240   -0.0997   -1.8514 H.spc      1 <1>        0.000
     17 H           6.2995   -0.6045   -0.9286 H.spc      1 <1>        0.000
     18 H           5.3546   -1.4394   -2.3337 H.spc      1 <1>        0.000
@<TRIPOS>BOND
     1    7    8 1  
     2    8    9 2  
     3    6    7 2  
     4    1    2 1  
     5    2    3 2  
     6    3    4 1  
     7    4    5 2  
     8    5    6 1  
     9    2   10 1  
    10    3   11 1  
    11    4   12 1  
    12    5   13 1  
    13    6   14 1  
    14    7   15 1  
    15    8   16 1  
    16    9   17 1  
    17    9   18 1  
# Name:          frag3-248-3/31924
# Creation time: Sat Jun  5 12:52:39 2010


@<TRIPOS>MOLECULE
frag3-248-3/31924
   18    17     1     1     1
SMALL
USER_CHARGES


@<TRIPOS>ATOM
      1 Br1        -0.7049   -1.0911   -0.1084 Br         1 <1>        0.000
      2 C1         -0.7533    0.3733    1.0632 C.2        1 <1>        0.000
      3 C2          0.1916    1.3257    1.1041 C.2        1 <1>        0.000
      4 C4          1.3826    1.3606    0.2424 C.2        1 <1>        0.000
      5 C5          2.5401    1.9520    0.5739 C.2        1 <1>        0.000
      6 C6          3.7217    1.9908   -0.2931 C.2        1 <1>        0.000
      7 C7          4.1931    0.9830   -1.0549 C.2        1 <1>        0.000
      8 C8          3.6348   -0.3662   -1.1906 C.2        1 <1>        0.000
      9 C9          3.6496   -1.2615   -0.1969 C.2        1 <1>        0.000
     10 H          -1.5962    0.4553    1.7494 H.spc      1 <1>        0.000
     11 H           0.0672    2.1310    1.8280 H.spc      1 <1>        0.000
     12 H           1.3208    0.8734   -0.7307 H.spc      1 <1>        0.000
     13 H           2.6063    2.4340    1.5493 H.spc      1 <1>        0.000
     14 H           4.2752    2.9293   -0.3251 H.spc      1 <1>        0.000
     15 H           5.0908    1.1952   -1.6356 H.spc      1 <1>        0.000
     16 H           3.1882   -0.6520   -2.1429 H.spc      1 <1>        0.000
     17 H           4.0903   -1.0005    0.7653 H.spc      1 <1>        0.000
     18 H           3.2210   -2.2520   -0.3493 H.spc      1 <1>        0.000
@<TRIPOS>BOND
     1    7    8 1  
     2    8    9 2  
     3    6    7 2  
     4    1    2 1  
     5    2    3 2  
     6    3    4 1  
     7    4    5 2  
     8    5    6 1  
     9    2   10 1  
    10    3   11 1  
    11    4   12 1  
    12    5   13 1  
    13    6   14 1  
    14    7   15 1  
    15    8   16 1  
    16    9   17 1  
    17    9   18 1  
# Name:          frag3-248-3/31924
# Creation time: Sat Jun  5 12:52:39 2010


@<TRIPOS>MOLECULE
frag3-248-3/31924
   18    17     1     1     1
SMALL
USER_CHARGES


@<TRIPOS>ATOM
      1 Br1         0.2896   -0.3936    2.1443 Br         1 <1>        0.000
      2 C1         -0.9411    0.2344    0.8743 C.2        1 <1>        0.000
      3 C2         -0.6426    1.1487   -0.0642 C.2        1 <1>        0.000
      4 C4          0.6831    1.7656   -0.2321 C.2        1 <1>        0.000
      5 C5          1.7875    1.0948   -0.6008 C.2        1 <1>        0.000
      6 C6          3.1082    1.7118   -0.7547 C.2        1 <1>        0.000
      7 C7          4.2953    1.0867   -0.8236 C.2        1 <1>        0.000
      8 C8          4.5434   -0.3577   -0.7735 C.2        1 <1>        0.000
      9 C9          4.7318   -1.0242    0.3701 C.2        1 <1>        0.000
     10 H          -1.9550   -0.1649    0.8993 H.spc      1 <1>        0.000
     11 H          -1.4355    1.4540   -0.7470 H.spc      1 <1>        0.000
     12 H           0.7749    2.8355   -0.0453 H.spc      1 <1>        0.000
     13 H           1.6957    0.0266   -0.7974 H.spc      1 <1>        0.000
     14 H           3.1295    2.7996   -0.8206 H.spc      1 <1>        0.000
     15 H           5.1727    1.7249   -0.9285 H.spc      1 <1>        0.000
     16 H           4.5757   -0.9130   -1.7109 H.spc      1 <1>        0.000
     17 H           4.7045   -0.4929    1.3214 H.spc      1 <1>        0.000
     18 H           4.9127   -2.0989    0.3511 H.spc      1 <1>        0.000
@<TRIPOS>BOND
     1    7    8 1  
     2    8    9 2  
     3    6    7 2  
     4    1    2 1  
     5    2    3 2  
     6    3    4 1  
     7    4    5 2  
     8    5    6 1  
     9    2   10 1  
    10    3   11 1  
    11    4   12 1  
    12    5   13 1  
    13    6   14 1  
    14    7   15 1  
    15    8   16 1  
    16    9   17 1  
    17    9   18 1  
# Name:          frag3-248-3/31924
# Creation time: Sat Jun  5 12:52:39 2010


@<TRIPOS>MOLECULE
frag3-248-3/31924
   18    17     1     1     1
SMALL
USER_CHARGES


@<TRIPOS>ATOM
      1 Br1        -0.4277    0.9446    2.3751 Br         1 <1>        0.000
      2 C1         -1.0361    0.1433    0.7903 C.2        1 <1>        0.000
      3 C2         -0.4444    0.3122   -0.4043 C.2        1 <1>        0.000
      4 C4          0.7588    1.1304   -0.6274 C.2        1 <1>        0.000
      5 C5          1.9543    0.8834   -0.0659 C.2        1 <1>        0.000
      6 C6          3.1474    1.7074   -0.2839 C.2        1 <1>        0.000
      7 C7          4.4241    1.2901   -0.3430 C.2        1 <1>        0.000
      8 C8          4.9131   -0.0876   -0.2234 C.2        1 <1>        0.000
      9 C9          4.5656   -1.0573   -1.0778 C.2        1 <1>        0.000
     10 H          -1.9185   -0.4945    0.8420 H.spc      1 <1>        0.000
     11 H          -0.8848   -0.1902   -1.2656 H.spc      1 <1>        0.000
     12 H           0.6746    1.9915   -1.2903 H.spc      1 <1>        0.000
     13 H           2.0425    0.0183    0.5913 H.spc      1 <1>        0.000
     14 H           2.9808    2.7769   -0.4123 H.spc      1 <1>        0.000
     15 H           5.1793    2.0609   -0.4968 H.spc      1 <1>        0.000
     16 H           5.5885   -0.3321    0.5965 H.spc      1 <1>        0.000
     17 H           3.8916   -0.8383   -1.9059 H.spc      1 <1>        0.000
     18 H           4.9566   -2.0661   -0.9455 H.spc      1 <1>        0.000
@<TRIPOS>BOND
     1    7    8 1  
     2    8    9 2  
     3    6    7 2  
     4    1    2 1  
     5    2    3 2  
     6    3    4 1  
     7    4    5 2  
     8    5    6 1  
     9    2   10 1  
    10    3   11 1  
    11    4   12 1  
    12    5   13 1  
    13    6   14 1  
    14    7   15 1  
    15    8   16 1  
    16    9   17 1  
    17    9   18 1  
# Name:          frag3-248-3/31924
# Creation time: Sat Jun  5 12:52:39 2010


@<TRIPOS>MOLECULE
frag3-248-3/31924
   18    17     1     1     1
SMALL
USER_CHARGES


@<TRIPOS>ATOM
      1 Br1         0.2477   -1.1987    0.7802 Br         1 <1>        0.000
      2 C1         -0.7411    0.3530    1.1376 C.2        1 <1>        0.000
      3 C2         -0.4327    1.5689    0.6529 C.2        1 <1>        0.000
      4 C4          0.7187    1.8423   -0.2201 C.2        1 <1>        0.000
      5 C5          1.9783    1.4464    0.0361 C.2        1 <1>        0.000
      6 C6          3.1223    1.7271   -0.8310 C.2        1 <1>        0.000
      7 C7          4.2750    1.0394   -0.9083 C.2        1 <1>        0.000
      8 C8          4.6412   -0.1643   -0.1596 C.2        1 <1>        0.000
      9 C9          4.0459   -1.3474   -0.3479 C.2        1 <1>        0.000
     10 H          -1.6193    0.2645    1.7771 H.spc      1 <1>        0.000
     11 H          -1.0772    2.4050    0.9244 H.spc      1 <1>        0.000
     12 H           0.5392    2.4038   -1.1369 H.spc      1 <1>        0.000
     13 H           2.1583    0.8794    0.9495 H.spc      1 <1>        0.000
     14 H           3.0299    2.5914   -1.4887 H.spc      1 <1>        0.000
     15 H           5.0202    1.4206   -1.6064 H.spc      1 <1>        0.000
     16 H           5.4344   -0.0933    0.5846 H.spc      1 <1>        0.000
     17 H           3.2498   -1.4456   -1.0859 H.spc      1 <1>        0.000
     18 H           4.3569   -2.2132    0.2367 H.spc      1 <1>        0.000
@<TRIPOS>BOND
     1    7    8 1  
     2    8    9 2  
     3    6    7 2  
     4    1    2 1  
     5    2    3 2  
     6    3    4 1  
     7    4    5 2  
     8    5    6 1  
     9    2   10 1  
    10    3   11 1  
    11    4   12 1  
    12    5   13 1  
    13    6   14 1  
    14    7   15 1  
    15    8   16 1  
    16    9   17 1  
    17    9   18 1  
# Name:          frag3-248-3/31924
# Creation time: Sat Jun  5 12:52:39 2010


@<TRIPOS>MOLECULE
frag3-248-3/31924
   18    17     1     1     1
SMALL
USER_CHARGES


@<TRIPOS>ATOM
      1 Br1        -0.8599    1.5539    2.0986 Br         1 <1>        0.000
      2 C1         -1.1823    0.2830    0.7574 C.2        1 <1>        0.000
      3 C2         -0.3496    0.0545   -0.2731 C.2        1 <1>        0.000
      4 C4          0.9263    0.7574   -0.4784 C.2        1 <1>        0.000
      5 C5          1.8896    0.8675    0.4541 C.2        1 <1>        0.000
      6 C6          3.1538    1.5771    0.2490 C.2        1 <1>        0.000
      7 C7          4.2435    1.1114   -0.3866 C.2        1 <1>        0.000
      8 C8          4.4186   -0.1989   -1.0188 C.2        1 <1>        0.000
      9 C9          5.6153   -0.7392   -1.2623 C.2        1 <1>        0.000
     10 H          -2.0984   -0.3047    0.8169 H.spc      1 <1>        0.000
     11 H          -0.6387   -0.7007   -1.0040 H.spc      1 <1>        0.000
     12 H           1.1027    1.2193   -1.4498 H.spc      1 <1>        0.000
     13 H           1.7182    0.3990    1.4233 H.spc      1 <1>        0.000
     14 H           3.2183    2.5873    0.6533 H.spc      1 <1>        0.000
     15 H           5.0966    1.7880   -0.4375 H.spc      1 <1>        0.000
     16 H           3.5287   -0.7599   -1.3042 H.spc      1 <1>        0.000
     17 H           6.5224   -0.2009   -0.9876 H.spc      1 <1>        0.000
     18 H           5.6850   -1.7185   -1.7357 H.spc      1 <1>        0.000
@<TRIPOS>BOND
     1    7    8 1  
     2    8    9 2  
     3    6    7 2  
     4    1    2 1  
     5    2    3 2  
     6    3    4 1  
     7    4    5 2  
     8    5    6 1  
     9    2   10 1  
    10    3   11 1  
    11    4   12 1  
    12    5   13 1  
    13    6   14 1  
    14    7   15 1  
    15    8   16 1  
    16    9   17 1  
    17    9   18 1  
# Name:          frag3-248-3/31924
# Creation time: Sat Jun  5 12:52:39 2010


@<TRIPOS>MOLECULE
frag3-248-3/31924
   18    17     1     1     1
SMALL
USER_CHARGES


@<TRIPOS>ATOM
      1 Br1        -1.0447    1.7429    1.5939 Br         1 <1>        0.000
      2 C1         -1.0283    0.2565    0.4478 C.2        1 <1>        0.000
      3 C2          0.0962   -0.3067   -0.0252 C.2        1 <1>        0.000
      4 C4          1.4553    0.1613    0.2885 C.2        1 <1>        0.000
      5 C5          1.9586    1.3429   -0.1106 C.2        1 <1>        0.000
      6 C6          3.3180    1.7994    0.1970 C.2        1 <1>        0.000
      7 C7          4.4599    1.1055    0.0165 C.2        1 <1>        0.000
      8 C8          4.6015   -0.2388   -0.5536 C.2        1 <1>        0.000
      9 C9          4.0389   -0.5963   -1.7146 C.2        1 <1>        0.000
     10 H          -1.9843   -0.1738    0.1493 H.spc      1 <1>        0.000
     11 H          -0.0053   -1.1680   -0.6855 H.spc      1 <1>        0.000
     12 H           2.0952   -0.4914    0.8823 H.spc      1 <1>        0.000
     13 H           1.3178    2.0007   -0.6978 H.spc      1 <1>        0.000
     14 H           3.4151    2.8018    0.6140 H.spc      1 <1>        0.000
     15 H           5.3805    1.5983    0.3290 H.spc      1 <1>        0.000
     16 H           5.1895   -0.9776   -0.0090 H.spc      1 <1>        0.000
     17 H           3.4462    0.1246   -2.2778 H.spc      1 <1>        0.000
     18 H           4.1735   -1.6082   -2.0967 H.spc      1 <1>        0.000
@<TRIPOS>BOND
     1    7    8 1  
     2    8    9 2  
     3    6    7 2  
     4    1    2 1  
     5    2    3 2  
     6    3    4 1  
     7    4    5 2  
     8    5    6 1  
     9    2   10 1  
    10    3   11 1  
    11    4   12 1  
    12    5   13 1  
    13    6   14 1  
    14    7   15 1  
    15    8   16 1  
    16    9   17 1  
    17    9   18 1  
# Name:          frag3-248-3/31924
# Creation time: Sat Jun  5 12:52:39 2010


@<TRIPOS>MOLECULE
frag3-248-3/31924
   18    17     1     1     1
SMALL
USER_CHARGES


@<TRIPOS>ATOM
      1 Br1        -1.2667    1.6153   -0.7599 Br         1 <1>        0.000
      2 C1         -1.0511    0.3134    0.5751 C.2        1 <1>        0.000
      3 C2          0.1137    0.0733    1.1972 C.2        1 <1>        0.000
      4 C4          1.3707    0.7911    0.9293 C.2        1 <1>        0.000
      5 C5          2.5913    0.2760    1.1331 C.2        1 <1>        0.000
      6 C6          3.8411    0.9990    0.8727 C.2        1 <1>        0.000
      7 C7          4.6126    0.9125   -0.2269 C.2        1 <1>        0.000
      8 C8          4.3737    0.0876   -1.4160 C.2        1 <1>        0.000
      9 C9          3.2700    0.1983   -2.1648 C.2        1 <1>        0.000
     10 H          -1.9195   -0.2802    0.8608 H.spc      1 <1>        0.000
     11 H           0.1301   -0.7096    1.9554 H.spc      1 <1>        0.000
     12 H           1.3046    1.8071    0.5401 H.spc      1 <1>        0.000
     13 H           2.6595   -0.7424    1.5157 H.spc      1 <1>        0.000
     14 H           4.1814    1.6792    1.6535 H.spc      1 <1>        0.000
     15 H           5.5153    1.5234   -0.2346 H.spc      1 <1>        0.000
     16 H           5.1269   -0.6466   -1.7019 H.spc      1 <1>        0.000
     17 H           2.5021    0.9251   -1.8996 H.spc      1 <1>        0.000
     18 H           3.1389   -0.4383   -3.0398 H.spc      1 <1>        0.000
@<TRIPOS>BOND
     1    7    8 1  
     2    8    9 2  
     3    6    7 2  
     4    1    2 1  
     5    2    3 2  
     6    3    4 1  
     7    4    5 2  
     8    5    6 1  
     9    2   10 1  
    10    3   11 1  
    11    4   12 1  
    12    5   13 1  
    13    6   14 1  
    14    7   15 1  
    15    8   16 1  
    16    9   17 1  
    17    9   18 1  
# Name:          frag3-248-3/31924
# Creation time: Sat Jun  5 12:52:39 2010


@<TRIPOS>MOLECULE
frag3-248-3/31924
   18    17     1     1     1
SMALL
USER_CHARGES


@<TRIPOS>ATOM
      1 Br1        -0.3652    1.2208   -1.2086 Br         1 <1>        0.000
      2 C1         -0.7913    0.4018    0.4235 C.2        1 <1>        0.000
      3 C2          0.1253   -0.0093    1.3167 C.2        1 <1>        0.000
      4 C4          1.5775    0.1406    1.1416 C.2        1 <1>        0.000
      5 C5          2.2028    1.3192    0.9650 C.2        1 <1>        0.000
      6 C6          3.6486    1.4618    0.7796 C.2        1 <1>        0.000
      7 C7          4.4145    0.7993   -0.1112 C.2        1 <1>        0.000
      8 C8          3.9722   -0.1775   -1.1102 C.2        1 <1>        0.000
      9 C9          3.0709    0.1098   -2.0566 C.2        1 <1>        0.000
     10 H          -1.8440    0.2502    0.6620 H.spc      1 <1>        0.000
     11 H          -0.2313   -0.4848    2.2304 H.spc      1 <1>        0.000
     12 H           2.1878   -0.7624    1.1558 H.spc      1 <1>        0.000
     13 H           1.5953    2.2242    0.9596 H.spc      1 <1>        0.000
     14 H           4.1573    2.1758    1.4273 H.spc      1 <1>        0.000
     15 H           5.4827    1.0146   -0.0852 H.spc      1 <1>        0.000
     16 H           4.3957   -1.1814   -1.0810 H.spc      1 <1>        0.000
     17 H           2.6325    1.1065   -2.1071 H.spc      1 <1>        0.000
     18 H           2.7751   -0.6528   -2.7770 H.spc      1 <1>        0.000
@<TRIPOS>BOND
     1    7    8 1  
     2    8    9 2  
     3    6    7 2  
     4    1    2 1  
     5    2    3 2  
     6    3    4 1  
     7    4    5 2  
     8    5    6 1  
     9    2   10 1  
    10    3   11 1  
    11    4   12 1  
    12    5   13 1  
    13    6   14 1  
    14    7   15 1  
    15    8   16 1  
    16    9   17 1  
    17    9   18 1  
# Name:          frag3-248-3/31924
# Creation time: Sat Jun  5 12:52:39 2010


@<TRIPOS>MOLECULE
frag3-248-3/31924
   18    17     1     1     1
SMALL
USER_CHARGES


@<TRIPOS>ATOM
      1 Br1        -1.2264    1.9582    1.1960 Br         1 <1>        0.000
      2 C1         -1.0346    0.1945    0.5835 C.2        1 <1>        0.000
      3 C2          0.1030   -0.2919    0.0605 C.2        1 <1>        0.000
      4 C4          1.3474    0.4787   -0.0881 C.2        1 <1>        0.000
      5 C5          2.2741    0.6105    0.8759 C.2        1 <1>        0.000
      6 C6          3.5086    1.3885    0.7252 C.2        1 <1>        0.000
      7 C7          4.3806    1.3231   -0.3008 C.2        1 <1>        0.000
      8 C8          4.2906    0.4696   -1.4907 C.2        1 <1>        0.000
      9 C9          4.2119   -0.8646   -1.4218 C.2        1 <1>        0.000
     10 H          -1.8940   -0.4720    0.6562 H.spc      1 <1>        0.000
     11 H           0.1043   -1.3284   -0.2769 H.spc      1 <1>        0.000
     12 H           1.5293    0.9746   -1.0416 H.spc      1 <1>        0.000
     13 H           2.0979    0.1090    1.8275 H.spc      1 <1>        0.000
     14 H           3.7449    2.0911    1.5243 H.spc      1 <1>        0.000
     15 H           5.2500    1.9777   -0.2395 H.spc      1 <1>        0.000
     16 H           4.2877    0.9424   -2.4728 H.spc      1 <1>        0.000
     17 H           4.2130   -1.3612   -0.4515 H.spc      1 <1>        0.000
     18 H           4.1467   -1.4546   -2.3360 H.spc      1 <1>        0.000
@<TRIPOS>BOND
     1    7    8 1  
     2    8    9 2  
     3    6    7 2  
     4    1    2 1  
     5    2    3 2  
     6    3    4 1  
     7    4    5 2  
     8    5    6 1  
     9    2   10 1  
    10    3   11 1  
    11    4   12 1  
    12    5   13 1  
    13    6   14 1  
    14    7   15 1  
    15    8   16 1  
    16    9   17 1  
    17    9   18 1  
# Name:          frag3-248-3/31924
# Creation time: Sat Jun  5 12:52:39 2010


@<TRIPOS>MOLECULE
frag3-248-3/31924
   18    17     1     1     1
SMALL
USER_CHARGES


@<TRIPOS>ATOM
      1 Br1        -1.1723    1.0137    2.5118 Br         1 <1>        0.000
      2 C1         -1.3460    0.2739    0.7948 C.2        1 <1>        0.000
      3 C2         -0.4367    0.4370   -0.1789 C.2        1 <1>        0.000
      4 C4          0.8142    1.2009   -0.0389 C.2        1 <1>        0.000
      5 C5          1.9816    0.8422   -0.5917 C.2        1 <1>        0.000
      6 C6          3.2281    1.6012   -0.4384 C.2        1 <1>        0.000
      7 C7          4.4683    1.1053   -0.2953 C.2        1 <1>        0.000
      8 C8          4.8668   -0.3069   -0.2890 C.2        1 <1>        0.000
      9 C9          5.4513   -0.9008   -1.3345 C.2        1 <1>        0.000
     10 H          -2.2335   -0.3203    0.5770 H.spc      1 <1>        0.000
     11 H          -0.6389   -0.0298   -1.1429 H.spc      1 <1>        0.000
     12 H           0.7894    2.1165    0.5519 H.spc      1 <1>        0.000
     13 H           2.0064   -0.0679   -1.1910 H.spc      1 <1>        0.000
     14 H           3.1377    2.6874   -0.4409 H.spc      1 <1>        0.000
     15 H           5.2690    1.8342   -0.1697 H.spc      1 <1>        0.000
     16 H           4.6780   -0.8976    0.6074 H.spc      1 <1>        0.000
     17 H           5.6511   -0.3322   -2.2427 H.spc      1 <1>        0.000
     18 H           5.7280   -1.9536   -1.2787 H.spc      1 <1>        0.000
@<TRIPOS>BOND
     1    7    8 1  
     2    8    9 2  
     3    6    7 2  
     4    1    2 1  
     5    2    3 2  
     6    3    4 1  
     7    4    5 2  
     8    5    6 1  
     9    2   10 1  
    10    3   11 1  
    11    4   12 1  
    12    5   13 1  
    13    6   14 1  
    14    7   15 1  
    15    8   16 1  
    16    9   17 1  
    17    9   18 1  
# Name:          frag3-248-3/31924
# Creation time: Sat Jun  5 12:52:39 2010


@<TRIPOS>MOLECULE
frag3-248-3/31924
   18    17     1     1     1
SMALL
USER_CHARGES


@<TRIPOS>ATOM
      1 Br1        -1.5869    1.6400    1.9048 Br         1 <1>        0.000
      2 C1         -1.3178    0.2224    0.7029 C.2        1 <1>        0.000
      3 C2         -0.1878    0.0514   -0.0011 C.2        1 <1>        0.000
      4 C4          0.9892    0.9329    0.0766 C.2        1 <1>        0.000
      5 C5          2.2495    0.4956    0.2069 C.2        1 <1>        0.000
      6 C6          3.4185    1.3791    0.2943 C.2        1 <1>        0.000
      7 C7          4.5601    1.2872   -0.4106 C.2        1 <1>        0.000
      8 C8          4.8936    0.2876   -1.4321 C.2        1 <1>        0.000
      9 C9          4.8368   -1.0296   -1.2019 C.2        1 <1>        0.000
     10 H          -2.1226   -0.5005    0.5698 H.spc      1 <1>        0.000
     11 H          -0.1379   -0.8009   -0.6787 H.spc      1 <1>        0.000
     12 H           0.8251    2.0092    0.0249 H.spc      1 <1>        0.000
     13 H           2.4164   -0.5807    0.2506 H.spc      1 <1>        0.000
     14 H           3.3542    2.1996    1.0089 H.spc      1 <1>        0.000
     15 H           5.3217    2.0380   -0.2000 H.spc      1 <1>        0.000
     16 H           5.2004    0.6324   -2.4196 H.spc      1 <1>        0.000
     17 H           4.5329   -1.3991   -0.2225 H.spc      1 <1>        0.000
     18 H           5.0945   -1.7329   -1.9938 H.spc      1 <1>        0.000
@<TRIPOS>BOND
     1    7    8 1  
     2    8    9 2  
     3    6    7 2  
     4    1    2 1  
     5    2    3 2  
     6    3    4 1  
     7    4    5 2  
     8    5    6 1  
     9    2   10 1  
    10    3   11 1  
    11    4   12 1  
    12    5   13 1  
    13    6   14 1  
    14    7   15 1  
    15    8   16 1  
    16    9   17 1  
    17    9   18 1  
# Name:          frag3-248-3/31924 -- energy: -1.593975
# Creation time: Sat Jun  5 12:52:39 2010


@<TRIPOS>MOLECULE
frag3-248-3/31924 -- energy: -1.593975
   18    17     1     1     1
SMALL
USER_CHARGES


@<TRIPOS>ATOM
      1 Br1        -1.7404    1.6601    2.1490 Br         1 <1>        0.000
      2 C1         -1.5687    0.4406    0.7311 C.2        1 <1>        0.000
      3 C2         -0.4096    0.1932    0.1020 C.2        1 <1>        0.000
      4 C4          0.8772    0.8282    0.4323 C.2        1 <1>        0.000
      5 C5          1.9931    0.6926   -0.2967 C.2        1 <1>        0.000
      6 C6          3.2759    1.3191    0.0435 C.2        1 <1>        0.000
      7 C7          4.4985    0.9304   -0.3506 C.2        1 <1>        0.000
      8 C8          4.8374   -0.1953   -1.2291 C.2        1 <1>        0.000
      9 C9          6.0918   -0.6023   -1.4417 C.2        1 <1>        0.000
     10 H          -2.4588   -0.0952    0.4014 H.spc      1 <1>        0.000
     11 H          -0.4214   -0.5306   -0.7129 H.spc      1 <1>        0.000
     12 H           0.9250    1.4484    1.3274 H.spc      1 <1>        0.000
     13 H           1.9453    0.0799   -1.1969 H.spc      1 <1>        0.000
     14 H           3.2307    2.1973    0.6875 H.spc      1 <1>        0.000
     15 H           5.3360    1.5183    0.0249 H.spc      1 <1>        0.000
     16 H           4.0275   -0.7241   -1.7317 H.spc      1 <1>        0.000
     17 H           6.9209   -0.0916   -0.9519 H.spc      1 <1>        0.000
     18 H           6.2863   -1.4451   -2.1049 H.spc      1 <1>        0.000
@<TRIPOS>BOND
     1    7    8 1  
     2    8    9 2  
     3    6    7 2  
     4    1    2 1  
     5    2    3 2  
     6    3    4 1  
     7    4    5 2  
     8    5    6 1  
     9    2   10 1  
    10    3   11 1  
    11    4   12 1  
    12    5   13 1  
    13    6   14 1  
    14    7   15 1  
    15    8   16 1  
    16    9   17 1  
    17    9   18 1  
# Name:          frag3-248-3/31924 -- energy: -1.903069
# Creation time: Sat Jun  5 12:52:39 2010


@<TRIPOS>MOLECULE
frag3-248-3/31924 -- energy: -1.903069
   18    17     1     1     1
SMALL
USER_CHARGES


@<TRIPOS>ATOM
      1 Br1        -0.2939    0.4954    2.5362 Br         1 <1>        0.000
      2 C1         -1.1999    0.3066    0.9020 C.2        1 <1>        0.000
      3 C2         -0.7279    0.7710   -0.2667 C.2        1 <1>        0.000
      4 C4          0.5575    1.4711   -0.4278 C.2        1 <1>        0.000
      5 C5          1.7556    0.8670   -0.3777 C.2        1 <1>        0.000
      6 C6          3.0342    1.5714   -0.5282 C.2        1 <1>        0.000
      7 C7          4.2595    1.0271   -0.5820 C.2        1 <1>        0.000
      8 C8          4.6068   -0.3976   -0.5222 C.2        1 <1>        0.000
      9 C9          5.8633   -0.8453   -0.5938 C.2        1 <1>        0.000
     10 H          -2.1609   -0.2077    0.9019 H.spc      1 <1>        0.000
     11 H          -1.3383    0.6192   -1.1569 H.spc      1 <1>        0.000
     12 H           0.5350    2.5474   -0.5985 H.spc      1 <1>        0.000
     13 H           1.7800   -0.2106   -0.2156 H.spc      1 <1>        0.000
     14 H           2.9828    2.6575   -0.6048 H.spc      1 <1>        0.000
     15 H           5.0925    1.7230   -0.6815 H.spc      1 <1>        0.000
     16 H           3.8017   -1.1244   -0.4143 H.spc      1 <1>        0.000
     17 H           6.6877   -0.1404   -0.7019 H.spc      1 <1>        0.000
     18 H           6.0642   -1.9155   -0.5442 H.spc      1 <1>        0.000
@<TRIPOS>BOND
     1    7    8 1  
     2    8    9 2  
     3    6    7 2  
     4    1    2 1  
     5    2    3 2  
     6    3    4 1  
     7    4    5 2  
     8    5    6 1  
     9    2   10 1  
    10    3   11 1  
    11    4   12 1  
    12    5   13 1  
    13    6   14 1  
    14    7   15 1  
    15    8   16 1  
    16    9   17 1  
    17    9   18 1  
# Name:          frag3-248-3/31924 -- energy: -1.783829
# Creation time: Sat Jun  5 12:52:39 2010


@<TRIPOS>MOLECULE
frag3-248-3/31924 -- energy: -1.783829
   18    17     1     1     1
SMALL
USER_CHARGES


@<TRIPOS>ATOM
      1 Br1        -0.5856    0.0665    2.5752 Br         1 <1>        0.000
      2 C1         -1.1557    0.3290    0.8056 C.2        1 <1>        0.000
      3 C2         -0.3605    0.7969   -0.1688 C.2        1 <1>        0.000
      4 C4          1.0557    1.1592    0.0053 C.2        1 <1>        0.000
      5 C5          1.8617    1.5515   -0.9915 C.2        1 <1>        0.000
      6 C6          3.2755    1.9010   -0.8140 C.2        1 <1>        0.000
      7 C7          4.2975    1.0482   -0.6223 C.2        1 <1>        0.000
      8 C8          4.2427   -0.4172   -0.5783 C.2        1 <1>        0.000
      9 C9          5.2239   -1.1686   -0.0714 C.2        1 <1>        0.000
     10 H          -2.1891    0.0882    0.5561 H.spc      1 <1>        0.000
     11 H          -0.7947    0.9175   -1.1613 H.spc      1 <1>        0.000
     12 H           1.4761    1.1050    1.0095 H.spc      1 <1>        0.000
     13 H           1.4410    1.6147   -1.9951 H.spc      1 <1>        0.000
     14 H           3.5233    2.9621   -0.8402 H.spc      1 <1>        0.000
     15 H           5.2807    1.4979   -0.4835 H.spc      1 <1>        0.000
     16 H           3.3599   -0.9162   -0.9780 H.spc      1 <1>        0.000
     17 H           6.1180   -0.6958    0.3350 H.spc      1 <1>        0.000
     18 H           5.1305   -2.2546   -0.0641 H.spc      1 <1>        0.000
@<TRIPOS>BOND
     1    7    8 1  
     2    8    9 2  
     3    6    7 2  
     4    1    2 1  
     5    2    3 2  
     6    3    4 1  
     7    4    5 2  
     8    5    6 1  
     9    2   10 1  
    10    3   11 1  
    11    4   12 1  
    12    5   13 1  
    13    6   14 1  
    14    7   15 1  
    15    8   16 1  
    16    9   17 1  
    17    9   18 1  
# Name:          frag3-248-3/31924 -- energy: -1.707684
# Creation time: Sat Jun  5 12:52:39 2010


@<TRIPOS>MOLECULE
frag3-248-3/31924 -- energy: -1.707684
   18    17     1     1     1
SMALL
USER_CHARGES


@<TRIPOS>ATOM
      1 Br1        -1.7188    2.2994    1.2271 Br         1 <1>        0.000
      2 C1         -1.5407    0.5393    0.5961 C.2        1 <1>        0.000
      3 C2         -0.3618   -0.0925    0.4849 C.2        1 <1>        0.000
      4 C4          0.9410    0.4945    0.8411 C.2        1 <1>        0.000
      5 C5          2.0517    0.3654    0.1020 C.2        1 <1>        0.000
      6 C6          3.3505    0.9437    0.4675 C.2        1 <1>        0.000
      7 C7          4.5328    0.7266   -0.1294 C.2        1 <1>        0.000
      8 C8          4.7998   -0.1209   -1.2977 C.2        1 <1>        0.000
      9 C9          5.8008    0.1111   -2.1518 C.2        1 <1>        0.000
     10 H          -2.4432    0.0021    0.3046 H.spc      1 <1>        0.000
     11 H          -0.3692   -1.1136    0.1035 H.spc      1 <1>        0.000
     12 H           1.0062    1.0704    1.7642 H.spc      1 <1>        0.000
     13 H           1.9867   -0.2029   -0.8258 H.spc      1 <1>        0.000
     14 H           3.3552    1.6252    1.3182 H.spc      1 <1>        0.000
     15 H           5.3929    1.2380    0.3027 H.spc      1 <1>        0.000
     16 H           4.1518   -0.9789   -1.4767 H.spc      1 <1>        0.000
     17 H           6.4638    0.9622   -1.9962 H.spc      1 <1>        0.000
     18 H           5.9544   -0.5507   -3.0041 H.spc      1 <1>        0.000
@<TRIPOS>BOND
     1    7    8 1  
     2    8    9 2  
     3    6    7 2  
     4    1    2 1  
     5    2    3 2  
     6    3    4 1  
     7    4    5 2  
     8    5    6 1  
     9    2   10 1  
    10    3   11 1  
    11    4   12 1  
    12    5   13 1  
    13    6   14 1  
    14    7   15 1  
    15    8   16 1  
    16    9   17 1  
    17    9   18 1  
# Name:          frag3-248-3/31924 -- energy: -1.869912
# Creation time: Sat Jun  5 12:52:39 2010


@<TRIPOS>MOLECULE
frag3-248-3/31924 -- energy: -1.869912
   18    17     1     1     1
SMALL
USER_CHARGES


@<TRIPOS>ATOM
      1 Br1        -1.1518    0.8094    2.5165 Br         1 <1>        0.000
      2 C1         -1.2674    0.2123    0.7406 C.2        1 <1>        0.000
      3 C2         -0.3207    0.4407   -0.1830 C.2        1 <1>        0.000
      4 C4          0.9310    1.1753    0.0632 C.2        1 <1>        0.000
      5 C5          2.0734    0.9636   -0.6047 C.2        1 <1>        0.000
      6 C6          3.3214    1.6902   -0.3462 C.2        1 <1>        0.000
      7 C7          4.5758    1.2468   -0.5385 C.2        1 <1>        0.000
      8 C8          4.9836   -0.0600   -1.0658 C.2        1 <1>        0.000
      9 C9          4.7099   -1.2117   -0.4422 C.2        1 <1>        0.000
     10 H          -2.1520   -0.3509    0.4431 H.spc      1 <1>        0.000
     11 H          -0.4910    0.0544   -1.1879 H.spc      1 <1>        0.000
     12 H           0.9285    1.9410    0.8390 H.spc      1 <1>        0.000
     13 H           2.0755    0.2053   -1.3877 H.spc      1 <1>        0.000
     14 H           3.2203    2.7024    0.0454 H.spc      1 <1>        0.000
     15 H           5.3789    1.9344   -0.2732 H.spc      1 <1>        0.000
     16 H           5.5334   -0.0942   -2.0064 H.spc      1 <1>        0.000
     17 H           4.1614   -1.2045    0.4997 H.spc      1 <1>        0.000
     18 H           5.0354   -2.1571   -0.8761 H.spc      1 <1>        0.000
@<TRIPOS>BOND
     1    7    8 1  
     2    8    9 2  
     3    6    7 2  
     4    1    2 1  
     5    2    3 2  
     6    3    4 1  
     7    4    5 2  
     8    5    6 1  
     9    2   10 1  
    10    3   11 1  
    11    4   12 1  
    12    5   13 1  
    13    6   14 1  
    14    7   15 1  
    15    8   16 1  
    16    9   17 1  
    17    9   18 1  
# Name:          frag3-248-3/31924 -- energy: -1.788073
# Creation time: Sat Jun  5 12:52:39 2010


@<TRIPOS>MOLECULE
frag3-248-3/31924 -- energy: -1.788073
   18    17     1     1     1
SMALL
USER_CHARGES


@<TRIPOS>ATOM
      1 Br1        -1.7936    1.8617    1.6625 Br         1 <1>        0.000
      2 C1         -1.4365    0.3340    0.6302 C.2        1 <1>        0.000
      3 C2         -0.2052   -0.0196    0.2306 C.2        1 <1>        0.000
      4 C4          1.0254    0.7255    0.5447 C.2        1 <1>        0.000
      5 C5          2.1602    0.6376   -0.1626 C.2        1 <1>        0.000
      6 C6          3.3870    1.3750    0.1616 C.2        1 <1>        0.000
      7 C7          4.6524    0.9954   -0.0850 C.2        1 <1>        0.000
      8 C8          5.0961   -0.2289   -0.7617 C.2        1 <1>        0.000
      9 C9          4.9694   -0.4141   -2.0806 C.2        1 <1>        0.000
     10 H          -2.2746   -0.2996    0.3400 H.spc      1 <1>        0.000
     11 H          -0.1090   -0.9240   -0.3701 H.spc      1 <1>        0.000
     12 H           1.0125    1.3911    1.4077 H.spc      1 <1>        0.000
     13 H           2.1729   -0.0212   -1.0309 H.spc      1 <1>        0.000
     14 H           3.2575    2.3371    0.6573 H.spc      1 <1>        0.000
     15 H           5.4362    1.6720    0.2554 H.spc      1 <1>        0.000
     16 H           5.5480   -1.0209   -0.1645 H.spc      1 <1>        0.000
     17 H           4.5208    0.3630   -2.6994 H.spc      1 <1>        0.000
     18 H           5.3148   -1.3421   -2.5363 H.spc      1 <1>        0.000
@<TRIPOS>BOND
     1    7    8 1  
     2    8    9 2  
     3    6    7 2  
     4    1    2 1  
     5    2    3 2  
     6    3    4 1  
     7    4    5 2  
     8    5    6 1  
     9    2   10 1  
    10    3   11 1  
    11    4   12 1  
    12    5   13 1  
    13    6   14 1  
    14    7   15 1  
    15    8   16 1  
    16    9   17 1  
    17    9   18 1  
# Name:          frag3-248-3/31924 -- energy: -2.390603
# Creation time: Sat Jun  5 12:52:39 2010


@<TRIPOS>MOLECULE
frag3-248-3/31924 -- energy: -2.390603
   18    17     1     1     1
SMALL
USER_CHARGES


@<TRIPOS>ATOM
      1 Br1         0.3013    0.0581    2.3167 Br         1 <1>        0.000
      2 C1         -0.8777    0.3272    0.8821 C.2        1 <1>        0.000
      3 C2         -0.4806    0.6603   -0.3579 C.2        1 <1>        0.000
      4 C4          0.9218    0.8579   -0.7552 C.2        1 <1>        0.000
      5 C5          1.7308    1.7984   -0.2354 C.2        1 <1>        0.000
      6 C6          3.1249    1.9962   -0.6414 C.2        1 <1>        0.000
      7 C7          4.0977    1.0663   -0.6508 C.2        1 <1>        0.000
      8 C8          3.9900   -0.3456   -0.2701 C.2        1 <1>        0.000
      9 C9          5.0471   -1.1520   -0.1482 C.2        1 <1>        0.000
     10 H          -1.9455    0.2065    1.0648 H.spc      1 <1>        0.000
     11 H          -1.2488    0.7928   -1.1198 H.spc      1 <1>        0.000
     12 H           1.3322    0.1993   -1.5207 H.spc      1 <1>        0.000
     13 H           1.3245    2.4536    0.5351 H.spc      1 <1>        0.000
     14 H           3.4021    2.9982   -0.9690 H.spc      1 <1>        0.000
     15 H           5.0810    1.4021   -0.9800 H.spc      1 <1>        0.000
     16 H           2.9991   -0.7567   -0.0773 H.spc      1 <1>        0.000
     17 H           6.0500   -0.7679   -0.3349 H.spc      1 <1>        0.000
     18 H           4.9072   -2.1944    0.1380 H.spc      1 <1>        0.000
@<TRIPOS>BOND
     1    7    8 1  
     2    8    9 2  
     3    6    7 2  
     4    1    2 1  
     5    2    3 2  
     6    3    4 1  
     7    4    5 2  
     8    5    6 1  
     9    2   10 1  
    10    3   11 1  
    11    4   12 1  
    12    5   13 1  
    13    6   14 1  
    14    7   15 1  
    15    8   16 1  
    16    9   17 1  
    17    9   18 1  
# Name:          frag3-248-3/31924 -- energy: -2.135792
# Creation time: Sat Jun  5 12:52:39 2010


@<TRIPOS>MOLECULE
frag3-248-3/31924 -- energy: -2.135792
   18    17     1     1     1
SMALL
USER_CHARGES


@<TRIPOS>ATOM
      1 Br1        -0.0134   -1.1295    0.8441 Br         1 <1>        0.000
      2 C1         -0.9018    0.4808    1.2157 C.2        1 <1>        0.000
      3 C2         -0.5212    1.6741    0.7275 C.2        1 <1>        0.000
      4 C4          0.6359    1.8771   -0.1588 C.2        1 <1>        0.000
      5 C5          1.8872    1.4769    0.1264 C.2        1 <1>        0.000
      6 C6          3.0374    1.6883   -0.7557 C.2        1 <1>        0.000
      7 C7          4.0634    0.8487   -0.9668 C.2        1 <1>        0.000
      8 C8          4.2673   -0.4782   -0.3783 C.2        1 <1>        0.000
      9 C9          5.4005   -1.1716   -0.5143 C.2        1 <1>        0.000
     10 H          -1.7768    0.4468    1.8647 H.spc      1 <1>        0.000
     11 H          -1.1084    2.5490    1.0065 H.spc      1 <1>        0.000
     12 H           0.4674    2.3850   -1.1084 H.spc      1 <1>        0.000
     13 H           2.0564    0.9632    1.0728 H.spc      1 <1>        0.000
     14 H           3.0631    2.6317   -1.3010 H.spc      1 <1>        0.000
     15 H           4.8343    1.1938   -1.6558 H.spc      1 <1>        0.000
     16 H           3.4547   -0.9203    0.1982 H.spc      1 <1>        0.000
     17 H           6.2297   -0.7541   -1.0854 H.spc      1 <1>        0.000
     18 H           5.4962   -2.1551   -0.0542 H.spc      1 <1>        0.000
@<TRIPOS>BOND
     1    7    8 1  
     2    8    9 2  
     3    6    7 2  
     4    1    2 1  
     5    2    3 2  
     6    3    4 1  
     7    4    5 2  
     8    5    6 1  
     9    2   10 1  
    10    3   11 1  
    11    4   12 1  
    12    5   13 1  
    13    6   14 1  
    14    7   15 1  
    15    8   16 1  
    16    9   17 1  
    17    9   18 1  
# Name:          frag3-248-3/31924 -- energy: -2.356237
# Creation time: Sat Jun  5 12:52:39 2010


@<TRIPOS>MOLECULE
frag3-248-3/31924 -- energy: -2.356237
   18    17     1     1     1
SMALL
USER_CHARGES


@<TRIPOS>ATOM
      1 Br1        -0.5140    1.6992   -0.9179 Br         1 <1>        0.000
      2 C1         -0.9793    0.5114    0.4576 C.2        1 <1>        0.000
      3 C2         -0.0824   -0.1540    1.2059 C.2        1 <1>        0.000
      4 C4          1.3755   -0.0301    1.0572 C.2        1 <1>        0.000
      5 C5          2.0472    1.1345    1.1161 C.2        1 <1>        0.000
      6 C6          3.4983    1.2530    0.9561 C.2        1 <1>        0.000
      7 C7          4.2291    0.8156   -0.0860 C.2        1 <1>        0.000
      8 C8          3.7474    0.1544   -1.3025 C.2        1 <1>        0.000
      9 C9          4.5335   -0.1175   -2.3468 C.2        1 <1>        0.000
     10 H          -2.0380    0.3516    0.6618 H.spc      1 <1>        0.000
     11 H          -0.4605   -0.8296    1.9731 H.spc      1 <1>        0.000
     12 H           1.9495   -0.9412    0.8882 H.spc      1 <1>        0.000
     13 H           1.4762    2.0458    1.2938 H.spc      1 <1>        0.000
     14 H           4.0414    1.7453    1.7628 H.spc      1 <1>        0.000
     15 H           5.3057    0.9713   -0.0174 H.spc      1 <1>        0.000
     16 H           2.6963   -0.1290   -1.3571 H.spc      1 <1>        0.000
     17 H           5.5887    0.1545   -2.3201 H.spc      1 <1>        0.000
     18 H           4.1201   -0.6115   -3.2261 H.spc      1 <1>        0.000
@<TRIPOS>BOND
     1    7    8 1  
     2    8    9 2  
     3    6    7 2  
     4    1    2 1  
     5    2    3 2  
     6    3    4 1  
     7    4    5 2  
     8    5    6 1  
     9    2   10 1  
    10    3   11 1  
    11    4   12 1  
    12    5   13 1  
    13    6   14 1  
    14    7   15 1  
    15    8   16 1  
    16    9   17 1  
    17    9   18 1  
# Name:          frag3-248-3/31924 -- energy: -2.205999
# Creation time: Sat Jun  5 12:52:39 2010


@<TRIPOS>MOLECULE
frag3-248-3/31924 -- energy: -2.205999
   18    17     1     1     1
SMALL
USER_CHARGES


@<TRIPOS>ATOM
      1 Br1        -0.6013    2.0367   -0.5888 Br         1 <1>        0.000
      2 C1         -1.0706    0.4703    0.3324 C.2        1 <1>        0.000
      3 C2         -0.2411   -0.1819    1.1647 C.2        1 <1>        0.000
      4 C4          1.1366    0.2405    1.4642 C.2        1 <1>        0.000
      5 C5          2.1144    0.3343    0.5476 C.2        1 <1>        0.000
      6 C6          3.4878    0.7462    0.8528 C.2        1 <1>        0.000
      7 C7          4.4814    0.9804   -0.0216 C.2        1 <1>        0.000
      8 C8          4.4155    0.8893   -1.4838 C.2        1 <1>        0.000
      9 C9          4.1326   -0.2492   -2.1276 C.2        1 <1>        0.000
     10 H          -2.0723    0.0669    0.1840 H.spc      1 <1>        0.000
     11 H          -0.6135   -1.0839    1.6503 H.spc      1 <1>        0.000
     12 H           1.3793    0.4936    2.4963 H.spc      1 <1>        0.000
     13 H           1.8716    0.0891   -0.4863 H.spc      1 <1>        0.000
     14 H           3.7305    0.8773    1.9073 H.spc      1 <1>        0.000
     15 H           5.4425    1.2701    0.4031 H.spc      1 <1>        0.000
     16 H           4.6051    1.7875   -2.0714 H.spc      1 <1>        0.000
     17 H           3.9391   -1.1611   -1.5627 H.spc      1 <1>        0.000
     18 H           4.0956   -0.2646   -3.2169 H.spc      1 <1>        0.000
@<TRIPOS>BOND
     1    7    8 1  
     2    8    9 2  
     3    6    7 2  
     4    1    2 1  
     5    2    3 2  
     6    3    4 1  
     7    4    5 2  
     8    5    6 1  
     9    2   10 1  
    10    3   11 1  
    11    4   12 1  
    12    5   13 1  
    13    6   14 1  
    14    7   15 1  
    15    8   16 1  
    16    9   17 1  
    17    9   18 1  
# Name:          frag3-248-3/31924 -- energy: -1.854136
# Creation time: Sat Jun  5 12:52:39 2010


@<TRIPOS>MOLECULE
frag3-248-3/31924 -- energy: -1.854136
   18    17     1     1     1
SMALL
USER_CHARGES


@<TRIPOS>ATOM
      1 Br1        -0.6857    2.4295    0.0157 Br         1 <1>        0.000
      2 C1         -1.2487    0.6807    0.3942 C.2        1 <1>        0.000
      3 C2         -0.4519   -0.2647    0.9224 C.2        1 <1>        0.000
      4 C4          0.9611   -0.0539    1.2737 C.2        1 <1>        0.000
      5 C5          1.8764    0.4816    0.4467 C.2        1 <1>        0.000
      6 C6          3.2839    0.6795    0.7969 C.2        1 <1>        0.000
      7 C7          4.3426    0.6057   -0.0251 C.2        1 <1>        0.000
      8 C8          4.3382    0.3355   -1.4652 C.2        1 <1>        0.000
      9 C9          5.4393    0.3727   -2.2196 C.2        1 <1>        0.000
     10 H          -2.2825    0.4154    0.1729 H.spc      1 <1>        0.000
     11 H          -0.8804   -1.2508    1.1019 H.spc      1 <1>        0.000
     12 H           1.2877   -0.3514    2.2702 H.spc      1 <1>        0.000
     13 H           1.5496    0.7876   -0.5471 H.spc      1 <1>        0.000
     14 H           3.4957    0.9125    1.8404 H.spc      1 <1>        0.000
     15 H           5.3192    0.7654    0.4319 H.spc      1 <1>        0.000
     16 H           3.3897    0.0922   -1.9441 H.spc      1 <1>        0.000
     17 H           6.4017    0.6131   -1.7678 H.spc      1 <1>        0.000
     18 H           5.3758    0.1626   -3.2873 H.spc      1 <1>        0.000
@<TRIPOS>BOND
     1    7    8 1  
     2    8    9 2  
     3    6    7 2  
     4    1    2 1  
     5    2    3 2  
     6    3    4 1  
     7    4    5 2  
     8    5    6 1  
     9    2   10 1  
    10    3   11 1  
    11    4   12 1  
    12    5   13 1  
    13    6   14 1  
    14    7   15 1  
    15    8   16 1  
    16    9   17 1  
    17    9   18 1  
# Name:          frag3-248-3/31924 -- energy: -1.857336
# Creation time: Sat Jun  5 12:52:39 2010


@<TRIPOS>MOLECULE
frag3-248-3/31924 -- energy: -1.857336
   18    17     1     1     1
SMALL
USER_CHARGES


@<TRIPOS>ATOM
      1 Br1        -1.7133    2.1403    0.9652 Br         1 <1>        0.000
      2 C1         -1.3576    0.3474    0.5369 C.2        1 <1>        0.000
      3 C2         -0.1228   -0.1777    0.5061 C.2        1 <1>        0.000
      4 C4          1.1122    0.5652    0.8060 C.2        1 <1>        0.000
      5 C5          2.3133    0.2698    0.2915 C.2        1 <1>        0.000
      6 C6          3.5430    1.0083    0.6008 C.2        1 <1>        0.000
      7 C7          4.6227    1.1574   -0.1865 C.2        1 <1>        0.000
      8 C8          4.8130    0.6248   -1.5402 C.2        1 <1>        0.000
      9 C9          4.6447   -0.6688   -1.8399 C.2        1 <1>        0.000
     10 H          -2.1999   -0.3027    0.3003 H.spc      1 <1>        0.000
     11 H          -0.0275   -1.2304    0.2398 H.spc      1 <1>        0.000
     12 H           1.0450    1.4104    1.4910 H.spc      1 <1>        0.000
     13 H           2.3813   -0.5707   -0.3992 H.spc      1 <1>        0.000
     14 H           3.5859    1.4897    1.5778 H.spc      1 <1>        0.000
     15 H           5.4476    1.7380    0.2265 H.spc      1 <1>        0.000
     16 H           5.1037    1.3114   -2.3353 H.spc      1 <1>        0.000
     17 H           4.3542   -1.3751   -1.0622 H.spc      1 <1>        0.000
     18 H           4.7982   -1.0160   -2.8617 H.spc      1 <1>        0.000
@<TRIPOS>BOND
     1    7    8 1  
     2    8    9 2  
     3    6    7 2  
     4    1    2 1  
     5    2    3 2  
     6    3    4 1  
     7    4    5 2  
     8    5    6 1  
     9    2   10 1  
    10    3   11 1  
    11    4   12 1  
    12    5   13 1  
    13    6   14 1  
    14    7   15 1  
    15    8   16 1  
    16    9   17 1  
    17    9   18 1  
# Name:          frag3-248-3/31924 -- energy: -2.136422
# Creation time: Sat Jun  5 12:52:39 2010


@<TRIPOS>MOLECULE
frag3-248-3/31924 -- energy: -2.136422
   18    17     1     1     1
SMALL
USER_CHARGES


@<TRIPOS>ATOM
      1 Br1        -1.3898    2.0511   -0.0016 Br         1 <1>        0.000
      2 C1         -1.0703    0.2841    0.5446 C.2        1 <1>        0.000
      3 C2          0.1570   -0.2245    0.7351 C.2        1 <1>        0.000
      4 C4          1.4114    0.5231    0.5536 C.2        1 <1>        0.000
      5 C5          2.5819    0.1806    1.1111 C.2        1 <1>        0.000
      6 C6          3.8273    0.9354    0.9351 C.2        1 <1>        0.000
      7 C7          4.4505    1.1999   -0.2302 C.2        1 <1>        0.000
      8 C8          4.0265    0.7980   -1.5757 C.2        1 <1>        0.000
      9 C9          3.8607   -0.4811   -1.9322 C.2        1 <1>        0.000
     10 H          -1.9290   -0.3649    0.7166 H.spc      1 <1>        0.000
     11 H           0.2298   -1.2665    1.0467 H.spc      1 <1>        0.000
     12 H           1.3876    1.4133   -0.0750 H.spc      1 <1>        0.000
     13 H           2.6096   -0.7138    1.7334 H.spc      1 <1>        0.000
     14 H           4.2969    1.3220    1.8396 H.spc      1 <1>        0.000
     15 H           5.3729    1.7771   -0.1656 H.spc      1 <1>        0.000
     16 H           3.8384    1.5746   -2.3170 H.spc      1 <1>        0.000
     17 H           4.0424   -1.2763   -1.2092 H.spc      1 <1>        0.000
     18 H           3.5439   -0.7278   -2.9456 H.spc      1 <1>        0.000
@<TRIPOS>BOND
     1    7    8 1  
     2    8    9 2  
     3    6    7 2  
     4    1    2 1  
     5    2    3 2  
     6    3    4 1  
     7    4    5 2  
     8    5    6 1  
     9    2   10 1  
    10    3   11 1  
    11    4   12 1  
    12    5   13 1  
    13    6   14 1  
    14    7   15 1  
    15    8   16 1  
    16    9   17 1  
    17    9   18 1  
# Name:          frag3-248-3/31924 -- energy: -2.014713
# Creation time: Sat Jun  5 12:52:39 2010


@<TRIPOS>MOLECULE
frag3-248-3/31924 -- energy: -2.014713
   18    17     1     1     1
SMALL
USER_CHARGES


@<TRIPOS>ATOM
      1 Br1        -1.0659    1.2091    2.3041 Br         1 <1>        0.000
      2 C1         -1.2373    0.3535    0.6416 C.2        1 <1>        0.000
      3 C2         -0.2011    0.1033   -0.1748 C.2        1 <1>        0.000
      4 C4          1.1970    0.4603    0.1160 C.2        1 <1>        0.000
      5 C5          1.8343    1.5118   -0.4234 C.2        1 <1>        0.000
      6 C6          3.2319    1.8563   -0.1369 C.2        1 <1>        0.000
      7 C7          4.3084    1.0735   -0.3323 C.2        1 <1>        0.000
      8 C8          4.3391   -0.2802   -0.8983 C.2        1 <1>        0.000
      9 C9          5.4489   -1.0210   -0.9563 C.2        1 <1>        0.000
     10 H          -2.2320    0.0430    0.3219 H.spc      1 <1>        0.000
     11 H          -0.4099   -0.3994   -1.1191 H.spc      1 <1>        0.000
     12 H           1.7500   -0.1689    0.8135 H.spc      1 <1>        0.000
     13 H           1.2810    2.1472   -1.1150 H.spc      1 <1>        0.000
     14 H           3.4165    2.8478    0.2765 H.spc      1 <1>        0.000
     15 H           5.2695    1.4935   -0.0358 H.spc      1 <1>        0.000
     16 H           3.4128   -0.7007   -1.2897 H.spc      1 <1>        0.000
     17 H           6.3891   -0.6252   -0.5722 H.spc      1 <1>        0.000
     18 H           5.4145   -2.0214   -1.3877 H.spc      1 <1>        0.000
@<TRIPOS>BOND
     1    7    8 1  
     2    8    9 2  
     3    6    7 2  
     4    1    2 1  
     5    2    3 2  
     6    3    4 1  
     7    4    5 2  
     8    5    6 1  
     9    2   10 1  
    10    3   11 1  
    11    4   12 1  
    12    5   13 1  
    13    6   14 1  
    14    7   15 1  
    15    8   16 1  
    16    9   17 1  
    17    9   18 1  
# Name:          frag3-248-3/31924 -- energy: -2.032949
# Creation time: Sat Jun  5 12:52:39 2010


@<TRIPOS>MOLECULE
frag3-248-3/31924 -- energy: -2.032949
   18    17     1     1     1
SMALL
USER_CHARGES


@<TRIPOS>ATOM
      1 Br1        -0.6150    0.3594    2.5334 Br         1 <1>        0.000
      2 C1         -1.0279    0.1806    0.7107 C.2        1 <1>        0.000
      3 C2         -0.2007    0.5531   -0.2781 C.2        1 <1>        0.000
      4 C4          1.1345    1.1399   -0.0784 C.2        1 <1>        0.000
      5 C5          2.0478    1.2836   -1.0489 C.2        1 <1>        0.000
      6 C6          3.3816    1.8590   -0.8415 C.2        1 <1>        0.000
      7 C7          4.4589    1.2364   -0.3257 C.2        1 <1>        0.000
      8 C8          4.5519   -0.1615    0.1096 C.2        1 <1>        0.000
      9 C9          4.1241   -1.1839   -0.6412 C.2        1 <1>        0.000
     10 H          -1.9925   -0.2494    0.4408 H.spc      1 <1>        0.000
     11 H          -0.5422    0.4109   -1.3034 H.spc      1 <1>        0.000
     12 H           1.3975    1.4795    0.9234 H.spc      1 <1>        0.000
     13 H           1.7836    0.9529   -2.0534 H.spc      1 <1>        0.000
     14 H           3.5146    2.9000   -1.1359 H.spc      1 <1>        0.000
     15 H           5.3617    1.8379   -0.2200 H.spc      1 <1>        0.000
     16 H           4.9876   -0.3767    1.0853 H.spc      1 <1>        0.000
     17 H           3.6847   -0.9944   -1.6205 H.spc      1 <1>        0.000
     18 H           4.2152   -2.2058   -0.2732 H.spc      1 <1>        0.000
@<TRIPOS>BOND
     1    7    8 1  
     2    8    9 2  
     3    6    7 2  
     4    1    2 1  
     5    2    3 2  
     6    3    4 1  
     7    4    5 2  
     8    5    6 1  
     9    2   10 1  
    10    3   11 1  
    11    4   12 1  
    12    5   13 1  
    13    6   14 1  
    14    7   15 1  
    15    8   16 1  
    16    9   17 1  
    17    9   18 1  
# Name:          frag3-248-3/31924 -- energy: -1.926919
# Creation time: Sat Jun  5 12:52:39 2010


@<TRIPOS>MOLECULE
frag3-248-3/31924 -- energy: -1.926919
   18    17     1     1     1
SMALL
USER_CHARGES


@<TRIPOS>ATOM
      1 Br1        -0.3457   -1.2428    1.3212 Br         1 <1>        0.000
      2 C1         -0.8299    0.5599    1.1441 C.2        1 <1>        0.000
      3 C2         -0.0704    1.4796    0.5287 C.2        1 <1>        0.000
      4 C4          1.2322    1.2073   -0.0948 C.2        1 <1>        0.000
      5 C5          2.0400    2.1470   -0.6080 C.2        1 <1>        0.000
      6 C6          3.3340    1.8682   -1.2362 C.2        1 <1>        0.000
      7 C7          4.1787    0.8672   -0.9202 C.2        1 <1>        0.000
      8 C8          3.9964   -0.1697    0.0998 C.2        1 <1>        0.000
      9 C9          4.3199   -1.4501   -0.0947 C.2        1 <1>        0.000
     10 H          -1.7832    0.8794    1.5652 H.spc      1 <1>        0.000
     11 H          -0.4467    2.5018    0.4885 H.spc      1 <1>        0.000
     12 H           1.5647    0.1704   -0.1435 H.spc      1 <1>        0.000
     13 H           1.7126    3.1853   -0.5542 H.spc      1 <1>        0.000
     14 H           3.6441    2.5371   -2.0390 H.spc      1 <1>        0.000
     15 H           5.1068    0.8232   -1.4901 H.spc      1 <1>        0.000
     16 H           3.5765    0.1187    1.0634 H.spc      1 <1>        0.000
     17 H           4.7417   -1.7668   -1.0486 H.spc      1 <1>        0.000
     18 H           4.1623   -2.1789    0.7004 H.spc      1 <1>        0.000
@<TRIPOS>BOND
     1    7    8 1  
     2    8    9 2  
     3    6    7 2  
     4    1    2 1  
     5    2    3 2  
     6    3    4 1  
     7    4    5 2  
     8    5    6 1  
     9    2   10 1  
    10    3   11 1  
    11    4   12 1  
    12    5   13 1  
    13    6   14 1  
    14    7   15 1  
    15    8   16 1  
    16    9   17 1  
    17    9   18 1  
# Name:          frag3-248-3/31924 -- energy: -2.066235
# Creation time: Sat Jun  5 12:52:39 2010


@<TRIPOS>MOLECULE
frag3-248-3/31924 -- energy: -2.066235
   18    17     1     1     1
SMALL
USER_CHARGES


@<TRIPOS>ATOM
      1 Br1        -1.0534    1.9501    1.5795 Br         1 <1>        0.000
      2 C1         -1.2050    0.4191    0.5064 C.2        1 <1>        0.000
      3 C2         -0.1532   -0.2899    0.0610 C.2        1 <1>        0.000
      4 C4          1.2503    0.0378    0.3549 C.2        1 <1>        0.000
      5 C5          1.8081    1.2438    0.1416 C.2        1 <1>        0.000
      6 C6          3.2084    1.5627    0.4267 C.2        1 <1>        0.000
      7 C7          4.2903    1.0259   -0.1667 C.2        1 <1>        0.000
      8 C8          4.3196    0.0333   -1.2445 C.2        1 <1>        0.000
      9 C9          5.3901   -0.7161   -1.5191 C.2        1 <1>        0.000
     10 H          -2.2043    0.0847    0.2277 H.spc      1 <1>        0.000
     11 H          -0.3535   -1.1644   -0.5581 H.spc      1 <1>        0.000
     12 H           1.8799   -0.7477    0.7729 H.spc      1 <1>        0.000
     13 H           1.1779    2.0326   -0.2692 H.spc      1 <1>        0.000
     14 H           3.3932    2.3107    1.1977 H.spc      1 <1>        0.000
     15 H           5.2586    1.3697    0.1970 H.spc      1 <1>        0.000
     16 H           3.4240   -0.0997   -1.8514 H.spc      1 <1>        0.000
     17 H           6.2995   -0.6045   -0.9286 H.spc      1 <1>        0.000
     18 H           5.3546   -1.4394   -2.3337 H.spc      1 <1>        0.000
@<TRIPOS>BOND
     1    7    8 1  
     2    8    9 2  
     3    6    7 2  
     4    1    2 1  
     5    2    3 2  
     6    3    4 1  
     7    4    5 2  
     8    5    6 1  
     9    2   10 1  
    10    3   11 1  
    11    4   12 1  
    12    5   13 1  
    13    6   14 1  
    14    7   15 1  
    15    8   16 1  
    16    9   17 1  
    17    9   18 1  
# Name:          frag3-248-3/31924 -- energy: -2.414799
# Creation time: Sat Jun  5 12:52:39 2010


@<TRIPOS>MOLECULE
frag3-248-3/31924 -- energy: -2.414799
   18    17     1     1     1
SMALL
USER_CHARGES


@<TRIPOS>ATOM
      1 Br1        -0.7049   -1.0911   -0.1084 Br         1 <1>        0.000
      2 C1         -0.7533    0.3733    1.0632 C.2        1 <1>        0.000
      3 C2          0.1916    1.3257    1.1041 C.2        1 <1>        0.000
      4 C4          1.3826    1.3606    0.2424 C.2        1 <1>        0.000
      5 C5          2.5401    1.9520    0.5739 C.2        1 <1>        0.000
      6 C6          3.7217    1.9908   -0.2931 C.2        1 <1>        0.000
      7 C7          4.1931    0.9830   -1.0549 C.2        1 <1>        0.000
      8 C8          3.6348   -0.3662   -1.1906 C.2        1 <1>        0.000
      9 C9          3.6496   -1.2615   -0.1969 C.2        1 <1>        0.000
     10 H          -1.5962    0.4553    1.7494 H.spc      1 <1>        0.000
     11 H           0.0672    2.1310    1.8280 H.spc      1 <1>        0.000
     12 H           1.3208    0.8734   -0.7307 H.spc      1 <1>        0.000
     13 H           2.6063    2.4340    1.5493 H.spc      1 <1>        0.000
     14 H           4.2752    2.9293   -0.3251 H.spc      1 <1>        0.000
     15 H           5.0908    1.1952   -1.6356 H.spc      1 <1>        0.000
     16 H           3.1882   -0.6520   -2.1429 H.spc      1 <1>        0.000
     17 H           4.0903   -1.0005    0.7653 H.spc      1 <1>        0.000
     18 H           3.2210   -2.2520   -0.3493 H.spc      1 <1>        0.000
@<TRIPOS>BOND
     1    7    8 1  
     2    8    9 2  
     3    6    7 2  
     4    1    2 1  
     5    2    3 2  
     6    3    4 1  
     7    4    5 2  
     8    5    6 1  
     9    2   10 1  
    10    3   11 1  
    11    4   12 1  
    12    5   13 1  
    13    6   14 1  
    14    7   15 1  
    15    8   16 1  
    16    9   17 1  
    17    9   18 1  
# Name:          frag3-248-3/31924 -- energy: -2.148449
# Creation time: Sat Jun  5 12:52:39 2010


@<TRIPOS>MOLECULE
frag3-248-3/31924 -- energy: -2.148449
   18    17     1     1     1
SMALL
USER_CHARGES


@<TRIPOS>ATOM
      1 Br1         0.2896   -0.3936    2.1443 Br         1 <1>        0.000
      2 C1         -0.9411    0.2344    0.8743 C.2        1 <1>        0.000
      3 C2         -0.6426    1.1487   -0.0642 C.2        1 <1>        0.000
      4 C4          0.6831    1.7656   -0.2321 C.2        1 <1>        0.000
      5 C5          1.7875    1.0948   -0.6008 C.2        1 <1>        0.000
      6 C6          3.1082    1.7118   -0.7547 C.2        1 <1>        0.000
      7 C7          4.2953    1.0867   -0.8236 C.2        1 <1>        0.000
      8 C8          4.5434   -0.3577   -0.7735 C.2        1 <1>        0.000
      9 C9          4.7318   -1.0242    0.3701 C.2        1 <1>        0.000
     10 H          -1.9550   -0.1649    0.8993 H.spc      1 <1>        0.000
     11 H          -1.4355    1.4540   -0.7470 H.spc      1 <1>        0.000
     12 H           0.7749    2.8355   -0.0453 H.spc      1 <1>        0.000
     13 H           1.6957    0.0266   -0.7974 H.spc      1 <1>        0.000
     14 H           3.1295    2.7996   -0.8206 H.spc      1 <1>        0.000
     15 H           5.1727    1.7249   -0.9285 H.spc      1 <1>        0.000
     16 H           4.5757   -0.9130   -1.7109 H.spc      1 <1>        0.000
     17 H           4.7045   -0.4929    1.3214 H.spc      1 <1>        0.000
     18 H           4.9127   -2.0989    0.3511 H.spc      1 <1>        0.000
@<TRIPOS>BOND
     1    7    8 1  
     2    8    9 2  
     3    6    7 2  
     4    1    2 1  
     5    2    3 2  
     6    3    4 1  
     7    4    5 2  
     8    5    6 1  
     9    2   10 1  
    10    3   11 1  
    11    4   12 1  
    12    5   13 1  
    13    6   14 1  
    14    7   15 1  
    15    8   16 1  
    16    9   17 1  
    17    9   18 1  
# Name:          frag3-248-3/31924 -- energy: -2.154662
# Creation time: Sat Jun  5 12:52:39 2010


@<TRIPOS>MOLECULE
frag3-248-3/31924 -- energy: -2.154662
   18    17     1     1     1
SMALL
USER_CHARGES


@<TRIPOS>ATOM
      1 Br1        -0.4277    0.9446    2.3751 Br         1 <1>        0.000
      2 C1         -1.0361    0.1433    0.7903 C.2        1 <1>        0.000
      3 C2         -0.4444    0.3122   -0.4043 C.2        1 <1>        0.000
      4 C4          0.7588    1.1304   -0.6274 C.2        1 <1>        0.000
      5 C5          1.9543    0.8834   -0.0659 C.2        1 <1>        0.000
      6 C6          3.1474    1.7074   -0.2839 C.2        1 <1>        0.000
      7 C7          4.4241    1.2901   -0.3430 C.2        1 <1>        0.000
      8 C8          4.9131   -0.0876   -0.2234 C.2        1 <1>        0.000
      9 C9          4.5656   -1.0573   -1.0778 C.2        1 <1>        0.000
     10 H          -1.9185   -0.4945    0.8420 H.spc      1 <1>        0.000
     11 H          -0.8848   -0.1902   -1.2656 H.spc      1 <1>        0.000
     12 H           0.6746    1.9915   -1.2903 H.spc      1 <1>        0.000
     13 H           2.0425    0.0183    0.5913 H.spc      1 <1>        0.000
     14 H           2.9808    2.7769   -0.4123 H.spc      1 <1>        0.000
     15 H           5.1793    2.0609   -0.4968 H.spc      1 <1>        0.000
     16 H           5.5885   -0.3321    0.5965 H.spc      1 <1>        0.000
     17 H           3.8916   -0.8383   -1.9059 H.spc      1 <1>        0.000
     18 H           4.9566   -2.0661   -0.9455 H.spc      1 <1>        0.000
@<TRIPOS>BOND
     1    7    8 1  
     2    8    9 2  
     3    6    7 2  
     4    1    2 1  
     5    2    3 2  
     6    3    4 1  
     7    4    5 2  
     8    5    6 1  
     9    2   10 1  
    10    3   11 1  
    11    4   12 1  
    12    5   13 1  
    13    6   14 1  
    14    7   15 1  
    15    8   16 1  
    16    9   17 1  
    17    9   18 1  
# Name:          frag3-248-3/31924 -- energy: -2.363947
# Creation time: Sat Jun  5 12:52:39 2010


@<TRIPOS>MOLECULE
frag3-248-3/31924 -- energy: -2.363947
   18    17     1     1     1
SMALL
USER_CHARGES


@<TRIPOS>ATOM
      1 Br1         0.2477   -1.1987    0.7802 Br         1 <1>        0.000
      2 C1         -0.7411    0.3530    1.1376 C.2        1 <1>        0.000
      3 C2         -0.4327    1.5689    0.6529 C.2        1 <1>        0.000
      4 C4          0.7187    1.8423   -0.2201 C.2        1 <1>        0.000
      5 C5          1.9783    1.4464    0.0361 C.2        1 <1>        0.000
      6 C6          3.1223    1.7271   -0.8310 C.2        1 <1>        0.000
      7 C7          4.2750    1.0394   -0.9083 C.2        1 <1>        0.000
      8 C8          4.6412   -0.1643   -0.1596 C.2        1 <1>        0.000
      9 C9          4.0459   -1.3474   -0.3479 C.2        1 <1>        0.000
     10 H          -1.6193    0.2645    1.7771 H.spc      1 <1>        0.000
     11 H          -1.0772    2.4050    0.9244 H.spc      1 <1>        0.000
     12 H           0.5392    2.4038   -1.1369 H.spc      1 <1>        0.000
     13 H           2.1583    0.8794    0.9495 H.spc      1 <1>        0.000
     14 H           3.0299    2.5914   -1.4887 H.spc      1 <1>        0.000
     15 H           5.0202    1.4206   -1.6064 H.spc      1 <1>        0.000
     16 H           5.4344   -0.0933    0.5846 H.spc      1 <1>        0.000
     17 H           3.2498   -1.4456   -1.0859 H.spc      1 <1>        0.000
     18 H           4.3569   -2.2132    0.2367 H.spc      1 <1>        0.000
@<TRIPOS>BOND
     1    7    8 1  
     2    8    9 2  
     3    6    7 2  
     4    1    2 1  
     5    2    3 2  
     6    3    4 1  
     7    4    5 2  
     8    5    6 1  
     9    2   10 1  
    10    3   11 1  
    11    4   12 1  
    12    5   13 1  
    13    6   14 1  
    14    7   15 1  
    15    8   16 1  
    16    9   17 1  
    17    9   18 1  
# Name:          frag3-248-3/31924 -- energy: -2.000981
# Creation time: Sat Jun  5 12:52:39 2010


@<TRIPOS>MOLECULE
frag3-248-3/31924 -- energy: -2.000981
   18    17     1     1     1
SMALL
USER_CHARGES


@<TRIPOS>ATOM
      1 Br1        -0.8599    1.5539    2.0986 Br         1 <1>        0.000
      2 C1         -1.1823    0.2830    0.7574 C.2        1 <1>        0.000
      3 C2         -0.3496    0.0545   -0.2731 C.2        1 <1>        0.000
      4 C4          0.9263    0.7574   -0.4784 C.2        1 <1>        0.000
      5 C5          1.8896    0.8675    0.4541 C.2        1 <1>        0.000
      6 C6          3.1538    1.5771    0.2490 C.2        1 <1>        0.000
      7 C7          4.2435    1.1114   -0.3866 C.2        1 <1>        0.000
      8 C8          4.4186   -0.1989   -1.0188 C.2        1 <1>        0.000
      9 C9          5.6153   -0.7392   -1.2623 C.2        1 <1>        0.000
     10 H          -2.0984   -0.3047    0.8169 H.spc      1 <1>        0.000
     11 H          -0.6387   -0.7007   -1.0040 H.spc      1 <1>        0.000
     12 H           1.1027    1.2193   -1.4498 H.spc      1 <1>        0.000
     13 H           1.7182    0.3990    1.4233 H.spc      1 <1>        0.000
     14 H           3.2183    2.5873    0.6533 H.spc      1 <1>        0.000
     15 H           5.0966    1.7880   -0.4375 H.spc      1 <1>        0.000
     16 H           3.5287   -0.7599   -1.3042 H.spc      1 <1>        0.000
     17 H           6.5224   -0.2009   -0.9876 H.spc      1 <1>        0.000
     18 H           5.6850   -1.7185   -1.7357 H.spc      1 <1>        0.000
@<TRIPOS>BOND
     1    7    8 1  
     2    8    9 2  
     3    6    7 2  
     4    1    2 1  
     5    2    3 2  
     6    3    4 1  
     7    4    5 2  
     8    5    6 1  
     9    2   10 1  
    10    3   11 1  
    11    4   12 1  
    12    5   13 1  
    13    6   14 1  
    14    7   15 1  
    15    8   16 1  
    16    9   17 1  
    17    9   18 1  
# Name:          frag3-248-3/31924 -- energy: -2.479270
# Creation time: Sat Jun  5 12:52:39 2010


@<TRIPOS>MOLECULE
frag3-248-3/31924 -- energy: -2.479270
   18    17     1     1     1
SMALL
USER_CHARGES


@<TRIPOS>ATOM
      1 Br1        -1.0447    1.7429    1.5939 Br         1 <1>        0.000
      2 C1         -1.0283    0.2565    0.4478 C.2        1 <1>        0.000
      3 C2          0.0962   -0.3067   -0.0252 C.2        1 <1>        0.000
      4 C4          1.4553    0.1613    0.2885 C.2        1 <1>        0.000
      5 C5          1.9586    1.3429   -0.1106 C.2        1 <1>        0.000
      6 C6          3.3180    1.7994    0.1970 C.2        1 <1>        0.000
      7 C7          4.4599    1.1055    0.0165 C.2        1 <1>        0.000
      8 C8          4.6015   -0.2388   -0.5536 C.2        1 <1>        0.000
      9 C9          4.0389   -0.5963   -1.7146 C.2        1 <1>        0.000
     10 H          -1.9843   -0.1738    0.1493 H.spc      1 <1>        0.000
     11 H          -0.0053   -1.1680   -0.6855 H.spc      1 <1>        0.000
     12 H           2.0952   -0.4914    0.8823 H.spc      1 <1>        0.000
     13 H           1.3178    2.0007   -0.6978 H.spc      1 <1>        0.000
     14 H           3.4151    2.8018    0.6140 H.spc      1 <1>        0.000
     15 H           5.3805    1.5983    0.3290 H.spc      1 <1>        0.000
     16 H           5.1895   -0.9776   -0.0090 H.spc      1 <1>        0.000
     17 H           3.4462    0.1246   -2.2778 H.spc      1 <1>        0.000
     18 H           4.1735   -1.6082   -2.0967 H.spc      1 <1>        0.000
@<TRIPOS>BOND
     1    7    8 1  
     2    8    9 2  
     3    6    7 2  
     4    1    2 1  
     5    2    3 2  
     6    3    4 1  
     7    4    5 2  
     8    5    6 1  
     9    2   10 1  
    10    3   11 1  
    11    4   12 1  
    12    5   13 1  
    13    6   14 1  
    14    7   15 1  
    15    8   16 1  
    16    9   17 1  
    17    9   18 1  
# Name:          frag3-248-3/31924 -- energy: -2.185155
# Creation time: Sat Jun  5 12:52:39 2010


@<TRIPOS>MOLECULE
frag3-248-3/31924 -- energy: -2.185155
   18    17     1     1     1
SMALL
USER_CHARGES


@<TRIPOS>ATOM
      1 Br1        -1.2667    1.6153   -0.7599 Br         1 <1>        0.000
      2 C1         -1.0511    0.3134    0.5751 C.2        1 <1>        0.000
      3 C2          0.1137    0.0733    1.1972 C.2        1 <1>        0.000
      4 C4          1.3707    0.7911    0.9293 C.2        1 <1>        0.000
      5 C5          2.5913    0.2760    1.1331 C.2        1 <1>        0.000
      6 C6          3.8411    0.9990    0.8727 C.2        1 <1>        0.000
      7 C7          4.6126    0.9125   -0.2269 C.2        1 <1>        0.000
      8 C8          4.3737    0.0876   -1.4160 C.2        1 <1>        0.000
      9 C9          3.2700    0.1983   -2.1648 C.2        1 <1>        0.000
     10 H          -1.9195   -0.2802    0.8608 H.spc      1 <1>        0.000
     11 H           0.1301   -0.7096    1.9554 H.spc      1 <1>        0.000
     12 H           1.3046    1.8071    0.5401 H.spc      1 <1>        0.000
     13 H           2.6595   -0.7424    1.5157 H.spc      1 <1>        0.000
     14 H           4.1814    1.6792    1.6535 H.spc      1 <1>        0.000
     15 H           5.5153    1.5234   -0.2346 H.spc      1 <1>        0.000
     16 H           5.1269   -0.6466   -1.7019 H.spc      1 <1>        0.000
     17 H           2.5021    0.9251   -1.8996 H.spc      1 <1>        0.000
     18 H           3.1389   -0.4383   -3.0398 H.spc      1 <1>        0.000
@<TRIPOS>BOND
     1    7    8 1  
     2    8    9 2  
     3    6    7 2  
     4    1    2 1  
     5    2    3 2  
     6    3    4 1  
     7    4    5 2  
     8    5    6 1  
     9    2   10 1  
    10    3   11 1  
    11    4   12 1  
    12    5   13 1  
    13    6   14 1  
    14    7   15 1  
    15    8   16 1  
    16    9   17 1  
    17    9   18 1  
# Name:          frag3-248-3/31924 -- energy: -2.930336
# Creation time: Sat Jun  5 12:52:39 2010


@<TRIPOS>MOLECULE
frag3-248-3/31924 -- energy: -2.930336
   18    17     1     1     1
SMALL
USER_CHARGES


@<TRIPOS>ATOM
      1 Br1        -0.3652    1.2208   -1.2086 Br         1 <1>        0.000
      2 C1         -0.7913    0.4018    0.4235 C.2        1 <1>        0.000
      3 C2          0.1253   -0.0093    1.3167 C.2        1 <1>        0.000
      4 C4          1.5775    0.1406    1.1416 C.2        1 <1>        0.000
      5 C5          2.2028    1.3192    0.9650 C.2        1 <1>        0.000
      6 C6          3.6486    1.4618    0.7796 C.2        1 <1>        0.000
      7 C7          4.4145    0.7993   -0.1112 C.2        1 <1>        0.000
      8 C8          3.9722   -0.1775   -1.1102 C.2        1 <1>        0.000
      9 C9          3.0709    0.1098   -2.0566 C.2        1 <1>        0.000
     10 H          -1.8440    0.2502    0.6620 H.spc      1 <1>        0.000
     11 H          -0.2313   -0.4848    2.2304 H.spc      1 <1>        0.000
     12 H           2.1878   -0.7624    1.1558 H.spc      1 <1>        0.000
     13 H           1.5953    2.2242    0.9596 H.spc      1 <1>        0.000
     14 H           4.1573    2.1758    1.4273 H.spc      1 <1>        0.000
     15 H           5.4827    1.0146   -0.0852 H.spc      1 <1>        0.000
     16 H           4.3957   -1.1814   -1.0810 H.spc      1 <1>        0.000
     17 H           2.6325    1.1065   -2.1071 H.spc      1 <1>        0.000
     18 H           2.7751   -0.6528   -2.7770 H.spc      1 <1>        0.000
@<TRIPOS>BOND
     1    7    8 1  
     2    8    9 2  
     3    6    7 2  
     4    1    2 1  
     5    2    3 2  
     6    3    4 1  
     7    4    5 2  
     8    5    6 1  
     9    2   10 1  
    10    3   11 1  
    11    4   12 1  
    12    5   13 1  
    13    6   14 1  
    14    7   15 1  
    15    8   16 1  
    16    9   17 1  
    17    9   18 1  
# Name:          frag3-248-3/31924 -- energy: -2.367285
# Creation time: Sat Jun  5 12:52:39 2010


@<TRIPOS>MOLECULE
frag3-248-3/31924 -- energy: -2.367285
   18    17     1     1     1
SMALL
USER_CHARGES


@<TRIPOS>ATOM
      1 Br1        -1.2264    1.9582    1.1960 Br         1 <1>        0.000
      2 C1         -1.0346    0.1945    0.5835 C.2        1 <1>        0.000
      3 C2          0.1030   -0.2919    0.0605 C.2        1 <1>        0.000
      4 C4          1.3474    0.4787   -0.0881 C.2        1 <1>        0.000
      5 C5          2.2741    0.6105    0.8759 C.2        1 <1>        0.000
      6 C6          3.5086    1.3885    0.7252 C.2        1 <1>        0.000
      7 C7          4.3806    1.3231   -0.3008 C.2        1 <1>        0.000
      8 C8          4.2906    0.4696   -1.4907 C.2        1 <1>        0.000
      9 C9          4.2119   -0.8646   -1.4218 C.2        1 <1>        0.000
     10 H          -1.8940   -0.4720    0.6562 H.spc      1 <1>        0.000
     11 H           0.1043   -1.3284   -0.2769 H.spc      1 <1>        0.000
     12 H           1.5293    0.9746   -1.0416 H.spc      1 <1>        0.000
     13 H           2.0979    0.1090    1.8275 H.spc      1 <1>        0.000
     14 H           3.7449    2.0911    1.5243 H.spc      1 <1>        0.000
     15 H           5.2500    1.9777   -0.2395 H.spc      1 <1>        0.000
     16 H           4.2877    0.9424   -2.4728 H.spc      1 <1>        0.000
     17 H           4.2130   -1.3612   -0.4515 H.spc      1 <1>        0.000
     18 H           4.1467   -1.4546   -2.3360 H.spc      1 <1>        0.000
@<TRIPOS>BOND
     1    7    8 1  
     2    8    9 2  
     3    6    7 2  
     4    1    2 1  
     5    2    3 2  
     6    3    4 1  
     7    4    5 2  
     8    5    6 1  
     9    2   10 1  
    10    3   11 1  
    11    4   12 1  
    12    5   13 1  
    13    6   14 1  
    14    7   15 1  
    15    8   16 1  
    16    9   17 1  
    17    9   18 1  
# Name:          frag3-248-3/31924 -- energy: -1.743920
# Creation time: Sat Jun  5 12:52:39 2010


@<TRIPOS>MOLECULE
frag3-248-3/31924 -- energy: -1.743920
   18    17     1     1     1
SMALL
USER_CHARGES


@<TRIPOS>ATOM
      1 Br1        -1.1723    1.0137    2.5118 Br         1 <1>        0.000
      2 C1         -1.3460    0.2739    0.7948 C.2        1 <1>        0.000
      3 C2         -0.4367    0.4370   -0.1789 C.2        1 <1>        0.000
      4 C4          0.8142    1.2009   -0.0389 C.2        1 <1>        0.000
      5 C5          1.9816    0.8422   -0.5917 C.2        1 <1>        0.000
      6 C6          3.2281    1.6012   -0.4384 C.2        1 <1>        0.000
      7 C7          4.4683    1.1053   -0.2953 C.2        1 <1>        0.000
      8 C8          4.8668   -0.3069   -0.2890 C.2        1 <1>        0.000
      9 C9          5.4513   -0.9008   -1.3345 C.2        1 <1>        0.000
     10 H          -2.2335   -0.3203    0.5770 H.spc      1 <1>        0.000
     11 H          -0.6389   -0.0298   -1.1429 H.spc      1 <1>        0.000
     12 H           0.7894    2.1165    0.5519 H.spc      1 <1>        0.000
     13 H           2.0064   -0.0679   -1.1910 H.spc      1 <1>        0.000
     14 H           3.1377    2.6874   -0.4409 H.spc      1 <1>        0.000
     15 H           5.2690    1.8342   -0.1697 H.spc      1 <1>        0.000
     16 H           4.6780   -0.8976    0.6074 H.spc      1 <1>        0.000
     17 H           5.6511   -0.3322   -2.2427 H.spc      1 <1>        0.000
     18 H           5.7280   -1.9536   -1.2787 H.spc      1 <1>        0.000
@<TRIPOS>BOND
     1    7    8 1  
     2    8    9 2  
     3    6    7 2  
     4    1    2 1  
     5    2    3 2  
     6    3    4 1  
     7    4    5 2  
     8    5    6 1  
     9    2   10 1  
    10    3   11 1  
    11    4   12 1  
    12    5   13 1  
    13    6   14 1  
    14    7   15 1  
    15    8   16 1  
    16    9   17 1  
    17    9   18 1  
# Name:          frag3-248-3/31924 -- energy: -1.951333
# Creation time: Sat Jun  5 12:52:39 2010


@<TRIPOS>MOLECULE
frag3-248-3/31924 -- energy: -1.951333
   18    17     1     1     1
SMALL
USER_CHARGES


@<TRIPOS>ATOM
      1 Br1        -1.5869    1.6400    1.9048 Br         1 <1>        0.000
      2 C1         -1.3178    0.2224    0.7029 C.2        1 <1>        0.000
      3 C2         -0.1878    0.0514   -0.0011 C.2        1 <1>        0.000
      4 C4          0.9892    0.9329    0.0766 C.2        1 <1>        0.000
      5 C5          2.2495    0.4956    0.2069 C.2        1 <1>        0.000
      6 C6          3.4185    1.3791    0.2943 C.2        1 <1>        0.000
      7 C7          4.5601    1.2872   -0.4106 C.2        1 <1>        0.000
      8 C8          4.8936    0.2876   -1.4321 C.2        1 <1>        0.000
      9 C9          4.8368   -1.0296   -1.2019 C.2        1 <1>        0.000
     10 H          -2.1226   -0.5005    0.5698 H.spc      1 <1>        0.000
     11 H          -0.1379   -0.8009   -0.6787 H.spc      1 <1>        0.000
     12 H           0.8251    2.0092    0.0249 H.spc      1 <1>        0.000
     13 H           2.4164   -0.5807    0.2506 H.spc      1 <1>        0.000
     14 H           3.3542    2.1996    1.0089 H.spc      1 <1>        0.000
     15 H           5.3217    2.0380   -0.2000 H.spc      1 <1>        0.000
     16 H           5.2004    0.6324   -2.4196 H.spc      1 <1>        0.000
     17 H           4.5329   -1.3991   -0.2225 H.spc      1 <1>        0.000
     18 H           5.0945   -1.7329   -1.9938 H.spc      1 <1>        0.000
@<TRIPOS>BOND
     1    7    8 1  
     2    8    9 2  
     3    6    7 2  
     4    1    2 1  
     5    2    3 2  
     6    3    4 1  
     7    4    5 2  
     8    5    6 1  
     9    2   10 1  
    10    3   11 1  
    11    4   12 1  
    12    5   13 1  
    13    6   14 1  
    14    7   15 1  
    15    8   16 1  
    16    9   17 1  
    17    9   18 1  
