#      Rotatable Fragment
#      Build by yxyuan
#
# Name:          frag3-165-16/96164
# Creation time: Sat Jun  5 12:53:07 2010


@<TRIPOS>MOLECULE
frag3-165-16/96164
    9     8     1     1     1
SMALL
USER_CHARGES


@<TRIPOS>ATOM
      1 N2          1.2213    0.5092    0.1572 N.am       1 <1>        0.000
      2 S1          2.4890   -0.1932   -0.4281 S.o2       1 <1>        0.000
      3 N3          3.4450   -0.1702    0.8039 N.am       1 <1>        0.000
      4 O4          3.1098    0.6338   -1.4369 O.2        1 <1>        0.000
      5 O5          2.0854   -1.5593   -0.6137 O.2        1 <1>        0.000
      6 H           0.9432    1.4285   -0.1863 H.spc      1 <1>        0.000
      7 H           0.6721    0.0483    0.8827 H.spc      1 <1>        0.000
      8 H           4.3108    0.3678    0.7676 H.spc      1 <1>        0.000
      9 H           3.2044   -0.6932    1.6459 H.spc      1 <1>        0.000
@<TRIPOS>BOND
     1    1    2 1  
     2    2    3 1  
     3    2    4 2  
     4    2    5 2  
     5    1    6 1  
     6    1    7 1  
     7    3    8 1  
     8    3    9 1  
# Name:          frag3-165-16/96164 -- energy: -0.352194
# Creation time: Sat Jun  5 12:53:07 2010


@<TRIPOS>MOLECULE
frag3-165-16/96164 -- energy: -0.352194
    9     8     1     1     1
SMALL
USER_CHARGES


@<TRIPOS>ATOM
      1 N2          1.2213    0.5092    0.1572 N.am       1 <1>        0.000
      2 S1          2.4890   -0.1932   -0.4281 S.o2       1 <1>        0.000
      3 N3          3.4450   -0.1702    0.8039 N.am       1 <1>        0.000
      4 O4          3.1098    0.6338   -1.4369 O.2        1 <1>        0.000
      5 O5          2.0854   -1.5593   -0.6137 O.2        1 <1>        0.000
      6 H           0.9432    1.4285   -0.1863 H.spc      1 <1>        0.000
      7 H           0.6721    0.0483    0.8827 H.spc      1 <1>        0.000
      8 H           4.3108    0.3678    0.7676 H.spc      1 <1>        0.000
      9 H           3.2044   -0.6932    1.6459 H.spc      1 <1>        0.000
@<TRIPOS>BOND
     1    1    2 1  
     2    2    3 1  
     3    2    4 2  
     4    2    5 2  
     5    1    6 1  
     6    1    7 1  
     7    3    8 1  
     8    3    9 1  
