#      Rotatable Fragment
#      Build by yxyuan
#
# Name:          frag3-231-3/31924
# Creation time: Sat Jun  5 12:52:24 2010


@<TRIPOS>MOLECULE
frag3-231-3/31924
   12    11     1     1     1
SMALL
USER_CHARGES


@<TRIPOS>ATOM
      1 C6          2.3996    0.1067    0.1717 C.2        1 <1>        0.000
      2 O1          2.6077    0.6620    1.2365 O.2        1 <1>        0.000
      3 N1          1.2404   -0.3212   -0.4388 N.am       1 <1>        0.000
      4 C7          1.2601   -0.7641   -1.7657 C.2        1 <1>        0.000
      5 O2          0.4393   -1.6488   -2.0802 O.2        1 <1>        0.000
      6 N2          2.1684   -0.3415   -2.7462 N.am       1 <1>        0.000
      7 C8          2.1624   -0.9168   -4.0015 C.2        1 <1>        0.000
      8 O3          2.5403   -0.5174   -5.0888 O.2        1 <1>        0.000
      9 H           3.3018   -0.0886   -0.4080 H.spc      1 <1>        0.000
     10 H           0.3624   -0.3149    0.0802 H.spc      1 <1>        0.000
     11 H           2.8388    0.3965   -2.5308 H.spc      1 <1>        0.000
     12 H           1.7383   -1.9207   -4.0240 H.spc      1 <1>        0.000
@<TRIPOS>BOND
     1    1    2 2  
     2    1    3 am 
     3    3    4 am 
     4    4    5 2  
     5    4    6 am 
     6    6    7 am 
     7    7    8 2  
     8    1    9 1  
     9    3   10 1  
    10    6   11 1  
    11    7   12 1  
# Name:          frag3-231-3/31924
# Creation time: Sat Jun  5 12:52:24 2010


@<TRIPOS>MOLECULE
frag3-231-3/31924
   12    11     1     1     1
SMALL
USER_CHARGES


@<TRIPOS>ATOM
      1 C6          2.1066    0.1011    0.2997 C.2        1 <1>        0.000
      2 O1          3.1564    0.5161   -0.1623 O.2        1 <1>        0.000
      3 N1          1.0512   -0.5615   -0.2777 N.am       1 <1>        0.000
      4 C7          1.0094   -0.8011   -1.6581 C.2        1 <1>        0.000
      5 O2          0.3281   -1.7553   -2.0579 O.2        1 <1>        0.000
      6 N2          1.7656   -0.0857   -2.6093 N.am       1 <1>        0.000
      7 C8          2.4821   -0.7498   -3.5848 C.2        1 <1>        0.000
      8 O3          2.9189   -0.4049   -4.6627 O.2        1 <1>        0.000
      9 H           1.9835    0.2908    1.3660 H.spc      1 <1>        0.000
     10 H           0.2827   -0.8856    0.3095 H.spc      1 <1>        0.000
     11 H           1.7834    0.9336   -2.5763 H.spc      1 <1>        0.000
     12 H           2.6979   -1.7892   -3.3377 H.spc      1 <1>        0.000
@<TRIPOS>BOND
     1    1    2 2  
     2    1    3 am 
     3    3    4 am 
     4    4    5 2  
     5    4    6 am 
     6    6    7 am 
     7    7    8 2  
     8    1    9 1  
     9    3   10 1  
    10    6   11 1  
    11    7   12 1  
# Name:          frag3-231-3/31924
# Creation time: Sat Jun  5 12:52:24 2010


@<TRIPOS>MOLECULE
frag3-231-3/31924
   12    11     1     1     1
SMALL
USER_CHARGES


@<TRIPOS>ATOM
      1 C6          2.0935   -0.1047    0.3929 C.2        1 <1>        0.000
      2 O1          2.8917    0.7649    0.0981 O.2        1 <1>        0.000
      3 N1          1.3400   -0.9445   -0.3801 N.am       1 <1>        0.000
      4 C7          1.1984   -0.7629   -1.7655 C.2        1 <1>        0.000
      5 O2          0.4361   -1.4959   -2.3890 O.2        1 <1>        0.000
      6 N2          1.9882    0.1594   -2.5029 N.am       1 <1>        0.000
      7 C8          2.4180   -0.1513   -3.7787 C.2        1 <1>        0.000
      8 O3          2.4524   -1.2062   -4.3878 O.2        1 <1>        0.000
      9 H           1.9538   -0.2385    1.4656 H.spc      1 <1>        0.000
     10 H           0.8646   -1.7296    0.0649 H.spc      1 <1>        0.000
     11 H           2.2395    1.0566   -2.0879 H.spc      1 <1>        0.000
     12 H           2.7947    0.7020   -4.3427 H.spc      1 <1>        0.000
@<TRIPOS>BOND
     1    1    2 2  
     2    1    3 am 
     3    3    4 am 
     4    4    5 2  
     5    4    6 am 
     6    6    7 am 
     7    7    8 2  
     8    1    9 1  
     9    3   10 1  
    10    6   11 1  
    11    7   12 1  
# Name:          frag3-231-3/31924
# Creation time: Sat Jun  5 12:52:24 2010


@<TRIPOS>MOLECULE
frag3-231-3/31924
   12    11     1     1     1
SMALL
USER_CHARGES


@<TRIPOS>ATOM
      1 C6          2.4744    0.1406   -0.3017 C.2        1 <1>        0.000
      2 O1          2.8956    0.7743    0.6449 O.2        1 <1>        0.000
      3 N1          1.2062   -0.2085   -0.6967 N.am       1 <1>        0.000
      4 C7          0.9919   -1.1126   -1.7551 C.2        1 <1>        0.000
      5 O2          0.0120   -1.8595   -1.6805 O.2        1 <1>        0.000
      6 N2          1.8653   -1.2558   -2.8516 N.am       1 <1>        0.000
      7 C8          2.3492   -0.1655   -3.5344 C.2        1 <1>        0.000
      8 O3          3.0236   -0.0542   -4.5379 O.2        1 <1>        0.000
      9 H           3.2564   -0.2223   -0.9687 H.spc      1 <1>        0.000
     10 H           0.4035    0.1951   -0.2139 H.spc      1 <1>        0.000
     11 H           2.1453   -2.1915   -3.1458 H.spc      1 <1>        0.000
     12 H           2.0726    0.7887   -3.0860 H.spc      1 <1>        0.000
@<TRIPOS>BOND
     1    1    2 2  
     2    1    3 am 
     3    3    4 am 
     4    4    5 2  
     5    4    6 am 
     6    6    7 am 
     7    7    8 2  
     8    1    9 1  
     9    3   10 1  
    10    6   11 1  
    11    7   12 1  
# Name:          frag3-231-3/31924
# Creation time: Sat Jun  5 12:52:24 2010


@<TRIPOS>MOLECULE
frag3-231-3/31924
   12    11     1     1     1
SMALL
USER_CHARGES


@<TRIPOS>ATOM
      1 C6          2.6488   -0.5506   -3.1983 C.2        1 <1>        0.000
      2 O1          3.3474    0.0583   -3.9793 O.2        1 <1>        0.000
      3 N1          1.3371   -0.4105   -2.8185 N.am       1 <1>        0.000
      4 C7          0.8348   -1.0380   -1.6544 C.2        1 <1>        0.000
      5 O2         -0.2605   -1.5873   -1.7252 O.2        1 <1>        0.000
      6 N2          1.5035   -0.9948   -0.4141 N.am       1 <1>        0.000
      7 C8          2.4959   -0.0886   -0.1472 C.2        1 <1>        0.000
      8 O3          2.9112    0.8703   -0.7760 O.2        1 <1>        0.000
      9 H           3.1636   -1.3714   -2.6989 H.spc      1 <1>        0.000
     10 H           0.7109    0.1585   -3.3881 H.spc      1 <1>        0.000
     11 H           1.2391   -1.6621    0.3106 H.spc      1 <1>        0.000
     12 H           3.0079   -0.2552    0.8005 H.spc      1 <1>        0.000
@<TRIPOS>BOND
     1    1    2 2  
     2    1    3 am 
     3    3    4 am 
     4    4    5 2  
     5    4    6 am 
     6    6    7 am 
     7    7    8 2  
     8    1    9 1  
     9    3   10 1  
    10    6   11 1  
    11    7   12 1  
# Name:          frag3-231-3/31924
# Creation time: Sat Jun  5 12:52:24 2010


@<TRIPOS>MOLECULE
frag3-231-3/31924
   12    11     1     1     1
SMALL
USER_CHARGES


@<TRIPOS>ATOM
      1 C6          2.5171    0.0999   -0.5081 C.2        1 <1>        0.000
      2 O1          2.9646    0.9653    0.2123 O.2        1 <1>        0.000
      3 N1          1.2393   -0.2879   -0.8136 N.am       1 <1>        0.000
      4 C7          0.9607   -1.1895   -1.8670 C.2        1 <1>        0.000
      5 O2         -0.1532   -1.6985   -1.9144 O.2        1 <1>        0.000
      6 N2          1.9288   -1.5654   -2.8242 N.am       1 <1>        0.000
      7 C8          2.7078   -0.6411   -3.4727 C.2        1 <1>        0.000
      8 O3          2.6531    0.5761   -3.5252 O.2        1 <1>        0.000
      9 H           3.2840   -0.4869   -1.0138 H.spc      1 <1>        0.000
     10 H           0.4649    0.0851   -0.2644 H.spc      1 <1>        0.000
     11 H           2.0525   -2.5546   -3.0399 H.spc      1 <1>        0.000
     12 H           3.5267   -1.0744   -4.0470 H.spc      1 <1>        0.000
@<TRIPOS>BOND
     1    1    2 2  
     2    1    3 am 
     3    3    4 am 
     4    4    5 2  
     5    4    6 am 
     6    6    7 am 
     7    7    8 2  
     8    1    9 1  
     9    3   10 1  
    10    6   11 1  
    11    7   12 1  
# Name:          frag3-231-3/31924
# Creation time: Sat Jun  5 12:52:24 2010


@<TRIPOS>MOLECULE
frag3-231-3/31924
   12    11     1     1     1
SMALL
USER_CHARGES


@<TRIPOS>ATOM
      1 C6          1.8459   -0.8578   -4.1900 C.2        1 <1>        0.000
      2 O1          2.2898   -0.7609   -5.3323 O.2        1 <1>        0.000
      3 N1          2.3512   -0.4088   -2.9728 N.am       1 <1>        0.000
      4 C7          1.6273   -0.5896   -1.8121 C.2        1 <1>        0.000
      5 O2          0.9085   -1.6227   -1.7560 O.2        1 <1>        0.000
      6 N2          1.5635    0.2707   -0.7268 N.am       1 <1>        0.000
      7 C8          1.8739   -0.1778    0.5546 C.2        1 <1>        0.000
      8 O3          2.3580    0.4057    1.5223 O.2        1 <1>        0.000
      9 H           0.8946   -1.3851   -4.1178 H.spc      1 <1>        0.000
     10 H           3.2590    0.0551   -2.9390 H.spc      1 <1>        0.000
     11 H           1.2864    1.2421   -0.8683 H.spc      1 <1>        0.000
     12 H           1.6483   -1.2296    0.7301 H.spc      1 <1>        0.000
@<TRIPOS>BOND
     1    1    2 2  
     2    1    3 am 
     3    3    4 am 
     4    4    5 2  
     5    4    6 am 
     6    6    7 am 
     7    7    8 2  
     8    1    9 1  
     9    3   10 1  
    10    6   11 1  
    11    7   12 1  
# Name:          frag3-231-3/31924
# Creation time: Sat Jun  5 12:52:24 2010


@<TRIPOS>MOLECULE
frag3-231-3/31924
   12    11     1     1     1
SMALL
USER_CHARGES


@<TRIPOS>ATOM
      1 C6          2.1204   -0.6001   -4.3244 C.2        1 <1>        0.000
      2 O1          1.4274   -1.5734   -4.5734 O.2        1 <1>        0.000
      3 N1          2.4912    0.0519   -3.1631 N.am       1 <1>        0.000
      4 C7          1.9902   -0.3709   -1.9518 C.2        1 <1>        0.000
      5 O2          1.0795   -1.2217   -1.9729 O.2        1 <1>        0.000
      6 N2          2.4032    0.0228   -0.7042 N.am       1 <1>        0.000
      7 C8          1.5386   -0.0779    0.3908 C.2        1 <1>        0.000
      8 O3          1.7679    0.0282    1.5860 O.2        1 <1>        0.000
      9 H           2.5418   -0.1417   -5.2190 H.spc      1 <1>        0.000
     10 H           3.1335    0.8432   -3.2032 H.spc      1 <1>        0.000
     11 H           3.3456    0.3908   -0.5744 H.spc      1 <1>        0.000
     12 H           0.4983   -0.2830    0.1383 H.spc      1 <1>        0.000
@<TRIPOS>BOND
     1    1    2 2  
     2    1    3 am 
     3    3    4 am 
     4    4    5 2  
     5    4    6 am 
     6    6    7 am 
     7    7    8 2  
     8    1    9 1  
     9    3   10 1  
    10    6   11 1  
    11    7   12 1  
# Name:          frag3-231-3/31924
# Creation time: Sat Jun  5 12:52:24 2010


@<TRIPOS>MOLECULE
frag3-231-3/31924
   12    11     1     1     1
SMALL
USER_CHARGES


@<TRIPOS>ATOM
      1 C6          2.3131   -0.1391   -3.8275 C.2        1 <1>        0.000
      2 O1          2.9481   -1.1445   -4.1023 O.2        1 <1>        0.000
      3 N1          1.3370    0.0998   -2.8862 N.am       1 <1>        0.000
      4 C7          1.0589   -0.8501   -1.8779 C.2        1 <1>        0.000
      5 O2          0.2515   -1.7398   -2.1404 O.2        1 <1>        0.000
      6 N2          1.6282   -0.7939   -0.5897 N.am       1 <1>        0.000
      7 C8          2.4367    0.2364   -0.1863 C.2        1 <1>        0.000
      8 O3          2.8448    0.5899    0.8972 O.2        1 <1>        0.000
      9 H           2.5645    0.7277   -4.4387 H.spc      1 <1>        0.000
     10 H           0.8090    0.9719   -2.9171 H.spc      1 <1>        0.000
     11 H           1.4309   -1.5488    0.0672 H.spc      1 <1>        0.000
     12 H           2.7823    0.8648   -1.0072 H.spc      1 <1>        0.000
@<TRIPOS>BOND
     1    1    2 2  
     2    1    3 am 
     3    3    4 am 
     4    4    5 2  
     5    4    6 am 
     6    6    7 am 
     7    7    8 2  
     8    1    9 1  
     9    3   10 1  
    10    6   11 1  
    11    7   12 1  
# Name:          frag3-231-3/31924
# Creation time: Sat Jun  5 12:52:24 2010


@<TRIPOS>MOLECULE
frag3-231-3/31924
   12    11     1     1     1
SMALL
USER_CHARGES


@<TRIPOS>ATOM
      1 C6          2.2063   -0.9700   -3.9517 C.2        1 <1>        0.000
      2 O1          2.4677   -0.8519   -5.1486 O.2        1 <1>        0.000
      3 N1          1.8087   -0.0427   -3.0085 N.am       1 <1>        0.000
      4 C7          1.4240   -0.4601   -1.7421 C.2        1 <1>        0.000
      5 O2          1.3043   -1.6977   -1.5725 O.2        1 <1>        0.000
      6 N2          1.0745    0.3593   -0.6696 N.am       1 <1>        0.000
      7 C8          1.8056    0.3155    0.5034 C.2        1 <1>        0.000
      8 O3          2.7271   -0.3936    0.8766 O.2        1 <1>        0.000
      9 H           2.3062   -1.9855   -3.5685 H.spc      1 <1>        0.000
     10 H           1.7978    0.9499   -3.2430 H.spc      1 <1>        0.000
     11 H           0.2785    0.9919   -0.7503 H.spc      1 <1>        0.000
     12 H           1.4994    1.0595    1.2388 H.spc      1 <1>        0.000
@<TRIPOS>BOND
     1    1    2 2  
     2    1    3 am 
     3    3    4 am 
     4    4    5 2  
     5    4    6 am 
     6    6    7 am 
     7    7    8 2  
     8    1    9 1  
     9    3   10 1  
    10    6   11 1  
    11    7   12 1  
# Name:          frag3-231-3/31924
# Creation time: Sat Jun  5 12:52:24 2010


@<TRIPOS>MOLECULE
frag3-231-3/31924
   12    11     1     1     1
SMALL
USER_CHARGES


@<TRIPOS>ATOM
      1 C6          2.3923   -0.0109   -3.5266 C.2        1 <1>        0.000
      2 O1          3.1444   -0.9546   -3.7028 O.2        1 <1>        0.000
      3 N1          1.2984    0.1457   -2.7038 N.am       1 <1>        0.000
      4 C7          0.9362   -0.8636   -1.7742 C.2        1 <1>        0.000
      5 O2          0.3258   -1.8354   -2.1959 O.2        1 <1>        0.000
      6 N2          1.2453   -0.7665   -0.4025 N.am       1 <1>        0.000
      7 C8          2.2785   -0.0114    0.0790 C.2        1 <1>        0.000
      8 O3          3.1972    0.5554   -0.4860 O.2        1 <1>        0.000
      9 H           2.6280    0.8668   -4.1285 H.spc      1 <1>        0.000
     10 H           0.7416    0.9982   -2.7636 H.spc      1 <1>        0.000
     11 H           0.6709   -1.2842    0.2627 H.spc      1 <1>        0.000
     12 H           2.2807    0.1042    1.1628 H.spc      1 <1>        0.000
@<TRIPOS>BOND
     1    1    2 2  
     2    1    3 am 
     3    3    4 am 
     4    4    5 2  
     5    4    6 am 
     6    6    7 am 
     7    7    8 2  
     8    1    9 1  
     9    3   10 1  
    10    6   11 1  
    11    7   12 1  
# Name:          frag3-231-3/31924
# Creation time: Sat Jun  5 12:52:24 2010


@<TRIPOS>MOLECULE
frag3-231-3/31924
   12    11     1     1     1
SMALL
USER_CHARGES


@<TRIPOS>ATOM
      1 C6          2.3660   -0.3528   -4.0619 C.2        1 <1>        0.000
      2 O1          1.9767   -1.3358   -4.6710 O.2        1 <1>        0.000
      3 N1          2.2734    0.0012   -2.7297 N.am       1 <1>        0.000
      4 C7          1.4301   -0.7333   -1.8676 C.2        1 <1>        0.000
      5 O2          0.5082   -1.3655   -2.3972 O.2        1 <1>        0.000
      6 N2          1.5422   -0.7278   -0.4689 N.am       1 <1>        0.000
      7 C8          2.3827    0.1301    0.1929 C.2        1 <1>        0.000
      8 O3          2.3388    0.6428    1.2905 O.2        1 <1>        0.000
      9 H           2.8812    0.3803   -4.6826 H.spc      1 <1>        0.000
     10 H           2.8118    0.7896   -2.3705 H.spc      1 <1>        0.000
     11 H           0.9799   -1.3836    0.0735 H.spc      1 <1>        0.000
     12 H           3.2663    0.4060   -0.3826 H.spc      1 <1>        0.000
@<TRIPOS>BOND
     1    1    2 2  
     2    1    3 am 
     3    3    4 am 
     4    4    5 2  
     5    4    6 am 
     6    6    7 am 
     7    7    8 2  
     8    1    9 1  
     9    3   10 1  
    10    6   11 1  
    11    7   12 1  
# Name:          frag3-231-3/31924
# Creation time: Sat Jun  5 12:52:24 2010


@<TRIPOS>MOLECULE
frag3-231-3/31924
   12    11     1     1     1
SMALL
USER_CHARGES


@<TRIPOS>ATOM
      1 C6          2.4855   -0.7557   -3.6080 C.2        1 <1>        0.000
      2 O1          3.2340   -0.1930   -4.3813 O.2        1 <1>        0.000
      3 N1          1.3467   -0.3455   -2.9524 N.am       1 <1>        0.000
      4 C7          0.9329   -0.9794   -1.7648 C.2        1 <1>        0.000
      5 O2         -0.0549   -1.7208   -1.8295 O.2        1 <1>        0.000
      6 N2          1.5375   -0.7710   -0.5122 N.am       1 <1>        0.000
      7 C8          2.2218    0.3850   -0.2242 C.2        1 <1>        0.000
      8 O3          3.1148    0.6393    0.5593 O.2        1 <1>        0.000
      9 H           2.7707   -1.7851   -3.3910 H.spc      1 <1>        0.000
     10 H           0.7967    0.4257   -3.3308 H.spc      1 <1>        0.000
     11 H           1.4661   -1.4968    0.2009 H.spc      1 <1>        0.000
     12 H           1.9002    1.2428   -0.8149 H.spc      1 <1>        0.000
@<TRIPOS>BOND
     1    1    2 2  
     2    1    3 am 
     3    3    4 am 
     4    4    5 2  
     5    4    6 am 
     6    6    7 am 
     7    7    8 2  
     8    1    9 1  
     9    3   10 1  
    10    6   11 1  
    11    7   12 1  
# Name:          frag3-231-3/31924 -- energy: -0.566977
# Creation time: Sat Jun  5 12:52:24 2010


@<TRIPOS>MOLECULE
frag3-231-3/31924 -- energy: -0.566977
   12    11     1     1     1
SMALL
USER_CHARGES


@<TRIPOS>ATOM
      1 C6          2.3996    0.1067    0.1717 C.2        1 <1>        0.000
      2 O1          2.6077    0.6620    1.2365 O.2        1 <1>        0.000
      3 N1          1.2404   -0.3212   -0.4388 N.am       1 <1>        0.000
      4 C7          1.2601   -0.7641   -1.7657 C.2        1 <1>        0.000
      5 O2          0.4393   -1.6488   -2.0802 O.2        1 <1>        0.000
      6 N2          2.1684   -0.3415   -2.7462 N.am       1 <1>        0.000
      7 C8          2.1624   -0.9168   -4.0015 C.2        1 <1>        0.000
      8 O3          2.5403   -0.5174   -5.0888 O.2        1 <1>        0.000
      9 H           3.3018   -0.0886   -0.4080 H.spc      1 <1>        0.000
     10 H           0.3624   -0.3149    0.0802 H.spc      1 <1>        0.000
     11 H           2.8388    0.3965   -2.5308 H.spc      1 <1>        0.000
     12 H           1.7383   -1.9207   -4.0240 H.spc      1 <1>        0.000
@<TRIPOS>BOND
     1    1    2 2  
     2    1    3 am 
     3    3    4 am 
     4    4    5 2  
     5    4    6 am 
     6    6    7 am 
     7    7    8 2  
     8    1    9 1  
     9    3   10 1  
    10    6   11 1  
    11    7   12 1  
# Name:          frag3-231-3/31924 -- energy: -0.996359
# Creation time: Sat Jun  5 12:52:24 2010


@<TRIPOS>MOLECULE
frag3-231-3/31924 -- energy: -0.996359
   12    11     1     1     1
SMALL
USER_CHARGES


@<TRIPOS>ATOM
      1 C6          2.1066    0.1011    0.2997 C.2        1 <1>        0.000
      2 O1          3.1564    0.5161   -0.1623 O.2        1 <1>        0.000
      3 N1          1.0512   -0.5615   -0.2777 N.am       1 <1>        0.000
      4 C7          1.0094   -0.8011   -1.6581 C.2        1 <1>        0.000
      5 O2          0.3281   -1.7553   -2.0579 O.2        1 <1>        0.000
      6 N2          1.7656   -0.0857   -2.6093 N.am       1 <1>        0.000
      7 C8          2.4821   -0.7498   -3.5848 C.2        1 <1>        0.000
      8 O3          2.9189   -0.4049   -4.6627 O.2        1 <1>        0.000
      9 H           1.9835    0.2908    1.3660 H.spc      1 <1>        0.000
     10 H           0.2827   -0.8856    0.3095 H.spc      1 <1>        0.000
     11 H           1.7834    0.9336   -2.5763 H.spc      1 <1>        0.000
     12 H           2.6979   -1.7892   -3.3377 H.spc      1 <1>        0.000
@<TRIPOS>BOND
     1    1    2 2  
     2    1    3 am 
     3    3    4 am 
     4    4    5 2  
     5    4    6 am 
     6    6    7 am 
     7    7    8 2  
     8    1    9 1  
     9    3   10 1  
    10    6   11 1  
    11    7   12 1  
# Name:          frag3-231-3/31924 -- energy: -0.646896
# Creation time: Sat Jun  5 12:52:24 2010


@<TRIPOS>MOLECULE
frag3-231-3/31924 -- energy: -0.646896
   12    11     1     1     1
SMALL
USER_CHARGES


@<TRIPOS>ATOM
      1 C6          2.0935   -0.1047    0.3929 C.2        1 <1>        0.000
      2 O1          2.8917    0.7649    0.0981 O.2        1 <1>        0.000
      3 N1          1.3400   -0.9445   -0.3801 N.am       1 <1>        0.000
      4 C7          1.1984   -0.7629   -1.7655 C.2        1 <1>        0.000
      5 O2          0.4361   -1.4959   -2.3890 O.2        1 <1>        0.000
      6 N2          1.9882    0.1594   -2.5029 N.am       1 <1>        0.000
      7 C8          2.4180   -0.1513   -3.7787 C.2        1 <1>        0.000
      8 O3          2.4524   -1.2062   -4.3878 O.2        1 <1>        0.000
      9 H           1.9538   -0.2385    1.4656 H.spc      1 <1>        0.000
     10 H           0.8646   -1.7296    0.0649 H.spc      1 <1>        0.000
     11 H           2.2395    1.0566   -2.0879 H.spc      1 <1>        0.000
     12 H           2.7947    0.7020   -4.3427 H.spc      1 <1>        0.000
@<TRIPOS>BOND
     1    1    2 2  
     2    1    3 am 
     3    3    4 am 
     4    4    5 2  
     5    4    6 am 
     6    6    7 am 
     7    7    8 2  
     8    1    9 1  
     9    3   10 1  
    10    6   11 1  
    11    7   12 1  
# Name:          frag3-231-3/31924 -- energy: -1.122222
# Creation time: Sat Jun  5 12:52:24 2010


@<TRIPOS>MOLECULE
frag3-231-3/31924 -- energy: -1.122222
   12    11     1     1     1
SMALL
USER_CHARGES


@<TRIPOS>ATOM
      1 C6          2.4744    0.1406   -0.3017 C.2        1 <1>        0.000
      2 O1          2.8956    0.7743    0.6449 O.2        1 <1>        0.000
      3 N1          1.2062   -0.2085   -0.6967 N.am       1 <1>        0.000
      4 C7          0.9919   -1.1126   -1.7551 C.2        1 <1>        0.000
      5 O2          0.0120   -1.8595   -1.6805 O.2        1 <1>        0.000
      6 N2          1.8653   -1.2558   -2.8516 N.am       1 <1>        0.000
      7 C8          2.3492   -0.1655   -3.5344 C.2        1 <1>        0.000
      8 O3          3.0236   -0.0542   -4.5379 O.2        1 <1>        0.000
      9 H           3.2564   -0.2223   -0.9687 H.spc      1 <1>        0.000
     10 H           0.4035    0.1951   -0.2139 H.spc      1 <1>        0.000
     11 H           2.1453   -2.1915   -3.1458 H.spc      1 <1>        0.000
     12 H           2.0726    0.7887   -3.0860 H.spc      1 <1>        0.000
@<TRIPOS>BOND
     1    1    2 2  
     2    1    3 am 
     3    3    4 am 
     4    4    5 2  
     5    4    6 am 
     6    6    7 am 
     7    7    8 2  
     8    1    9 1  
     9    3   10 1  
    10    6   11 1  
    11    7   12 1  
# Name:          frag3-231-3/31924 -- energy: -1.073720
# Creation time: Sat Jun  5 12:52:24 2010


@<TRIPOS>MOLECULE
frag3-231-3/31924 -- energy: -1.073720
   12    11     1     1     1
SMALL
USER_CHARGES


@<TRIPOS>ATOM
      1 C6          2.6488   -0.5506   -3.1983 C.2        1 <1>        0.000
      2 O1          3.3474    0.0583   -3.9793 O.2        1 <1>        0.000
      3 N1          1.3371   -0.4105   -2.8185 N.am       1 <1>        0.000
      4 C7          0.8348   -1.0380   -1.6544 C.2        1 <1>        0.000
      5 O2         -0.2605   -1.5873   -1.7252 O.2        1 <1>        0.000
      6 N2          1.5035   -0.9948   -0.4141 N.am       1 <1>        0.000
      7 C8          2.4959   -0.0886   -0.1472 C.2        1 <1>        0.000
      8 O3          2.9112    0.8703   -0.7760 O.2        1 <1>        0.000
      9 H           3.1636   -1.3714   -2.6989 H.spc      1 <1>        0.000
     10 H           0.7109    0.1585   -3.3881 H.spc      1 <1>        0.000
     11 H           1.2391   -1.6621    0.3106 H.spc      1 <1>        0.000
     12 H           3.0079   -0.2552    0.8005 H.spc      1 <1>        0.000
@<TRIPOS>BOND
     1    1    2 2  
     2    1    3 am 
     3    3    4 am 
     4    4    5 2  
     5    4    6 am 
     6    6    7 am 
     7    7    8 2  
     8    1    9 1  
     9    3   10 1  
    10    6   11 1  
    11    7   12 1  
# Name:          frag3-231-3/31924 -- energy: -1.052467
# Creation time: Sat Jun  5 12:52:24 2010


@<TRIPOS>MOLECULE
frag3-231-3/31924 -- energy: -1.052467
   12    11     1     1     1
SMALL
USER_CHARGES


@<TRIPOS>ATOM
      1 C6          2.5171    0.0999   -0.5081 C.2        1 <1>        0.000
      2 O1          2.9646    0.9653    0.2123 O.2        1 <1>        0.000
      3 N1          1.2393   -0.2879   -0.8136 N.am       1 <1>        0.000
      4 C7          0.9607   -1.1895   -1.8670 C.2        1 <1>        0.000
      5 O2         -0.1532   -1.6985   -1.9144 O.2        1 <1>        0.000
      6 N2          1.9288   -1.5654   -2.8242 N.am       1 <1>        0.000
      7 C8          2.7078   -0.6411   -3.4727 C.2        1 <1>        0.000
      8 O3          2.6531    0.5761   -3.5252 O.2        1 <1>        0.000
      9 H           3.2840   -0.4869   -1.0138 H.spc      1 <1>        0.000
     10 H           0.4649    0.0851   -0.2644 H.spc      1 <1>        0.000
     11 H           2.0525   -2.5546   -3.0399 H.spc      1 <1>        0.000
     12 H           3.5267   -1.0744   -4.0470 H.spc      1 <1>        0.000
@<TRIPOS>BOND
     1    1    2 2  
     2    1    3 am 
     3    3    4 am 
     4    4    5 2  
     5    4    6 am 
     6    6    7 am 
     7    7    8 2  
     8    1    9 1  
     9    3   10 1  
    10    6   11 1  
    11    7   12 1  
# Name:          frag3-231-3/31924 -- energy: -0.552728
# Creation time: Sat Jun  5 12:52:24 2010


@<TRIPOS>MOLECULE
frag3-231-3/31924 -- energy: -0.552728
   12    11     1     1     1
SMALL
USER_CHARGES


@<TRIPOS>ATOM
      1 C6          1.8459   -0.8578   -4.1900 C.2        1 <1>        0.000
      2 O1          2.2898   -0.7609   -5.3323 O.2        1 <1>        0.000
      3 N1          2.3512   -0.4088   -2.9728 N.am       1 <1>        0.000
      4 C7          1.6273   -0.5896   -1.8121 C.2        1 <1>        0.000
      5 O2          0.9085   -1.6227   -1.7560 O.2        1 <1>        0.000
      6 N2          1.5635    0.2707   -0.7268 N.am       1 <1>        0.000
      7 C8          1.8739   -0.1778    0.5546 C.2        1 <1>        0.000
      8 O3          2.3580    0.4057    1.5223 O.2        1 <1>        0.000
      9 H           0.8946   -1.3851   -4.1178 H.spc      1 <1>        0.000
     10 H           3.2590    0.0551   -2.9390 H.spc      1 <1>        0.000
     11 H           1.2864    1.2421   -0.8683 H.spc      1 <1>        0.000
     12 H           1.6483   -1.2296    0.7301 H.spc      1 <1>        0.000
@<TRIPOS>BOND
     1    1    2 2  
     2    1    3 am 
     3    3    4 am 
     4    4    5 2  
     5    4    6 am 
     6    6    7 am 
     7    7    8 2  
     8    1    9 1  
     9    3   10 1  
    10    6   11 1  
    11    7   12 1  
# Name:          frag3-231-3/31924 -- energy: -0.094296
# Creation time: Sat Jun  5 12:52:24 2010


@<TRIPOS>MOLECULE
frag3-231-3/31924 -- energy: -0.094296
   12    11     1     1     1
SMALL
USER_CHARGES


@<TRIPOS>ATOM
      1 C6          2.1204   -0.6001   -4.3244 C.2        1 <1>        0.000
      2 O1          1.4274   -1.5734   -4.5734 O.2        1 <1>        0.000
      3 N1          2.4912    0.0519   -3.1631 N.am       1 <1>        0.000
      4 C7          1.9902   -0.3709   -1.9518 C.2        1 <1>        0.000
      5 O2          1.0795   -1.2217   -1.9729 O.2        1 <1>        0.000
      6 N2          2.4032    0.0228   -0.7042 N.am       1 <1>        0.000
      7 C8          1.5386   -0.0779    0.3908 C.2        1 <1>        0.000
      8 O3          1.7679    0.0282    1.5860 O.2        1 <1>        0.000
      9 H           2.5418   -0.1417   -5.2190 H.spc      1 <1>        0.000
     10 H           3.1335    0.8432   -3.2032 H.spc      1 <1>        0.000
     11 H           3.3456    0.3908   -0.5744 H.spc      1 <1>        0.000
     12 H           0.4983   -0.2830    0.1383 H.spc      1 <1>        0.000
@<TRIPOS>BOND
     1    1    2 2  
     2    1    3 am 
     3    3    4 am 
     4    4    5 2  
     5    4    6 am 
     6    6    7 am 
     7    7    8 2  
     8    1    9 1  
     9    3   10 1  
    10    6   11 1  
    11    7   12 1  
# Name:          frag3-231-3/31924 -- energy: -1.058668
# Creation time: Sat Jun  5 12:52:24 2010


@<TRIPOS>MOLECULE
frag3-231-3/31924 -- energy: -1.058668
   12    11     1     1     1
SMALL
USER_CHARGES


@<TRIPOS>ATOM
      1 C6          2.3131   -0.1391   -3.8275 C.2        1 <1>        0.000
      2 O1          2.9481   -1.1445   -4.1023 O.2        1 <1>        0.000
      3 N1          1.3370    0.0998   -2.8862 N.am       1 <1>        0.000
      4 C7          1.0589   -0.8501   -1.8779 C.2        1 <1>        0.000
      5 O2          0.2515   -1.7398   -2.1404 O.2        1 <1>        0.000
      6 N2          1.6282   -0.7939   -0.5897 N.am       1 <1>        0.000
      7 C8          2.4367    0.2364   -0.1863 C.2        1 <1>        0.000
      8 O3          2.8448    0.5899    0.8972 O.2        1 <1>        0.000
      9 H           2.5645    0.7277   -4.4387 H.spc      1 <1>        0.000
     10 H           0.8090    0.9719   -2.9171 H.spc      1 <1>        0.000
     11 H           1.4309   -1.5488    0.0672 H.spc      1 <1>        0.000
     12 H           2.7823    0.8648   -1.0072 H.spc      1 <1>        0.000
@<TRIPOS>BOND
     1    1    2 2  
     2    1    3 am 
     3    3    4 am 
     4    4    5 2  
     5    4    6 am 
     6    6    7 am 
     7    7    8 2  
     8    1    9 1  
     9    3   10 1  
    10    6   11 1  
    11    7   12 1  
# Name:          frag3-231-3/31924 -- energy: -0.299695
# Creation time: Sat Jun  5 12:52:24 2010


@<TRIPOS>MOLECULE
frag3-231-3/31924 -- energy: -0.299695
   12    11     1     1     1
SMALL
USER_CHARGES


@<TRIPOS>ATOM
      1 C6          2.2063   -0.9700   -3.9517 C.2        1 <1>        0.000
      2 O1          2.4677   -0.8519   -5.1486 O.2        1 <1>        0.000
      3 N1          1.8087   -0.0427   -3.0085 N.am       1 <1>        0.000
      4 C7          1.4240   -0.4601   -1.7421 C.2        1 <1>        0.000
      5 O2          1.3043   -1.6977   -1.5725 O.2        1 <1>        0.000
      6 N2          1.0745    0.3593   -0.6696 N.am       1 <1>        0.000
      7 C8          1.8056    0.3155    0.5034 C.2        1 <1>        0.000
      8 O3          2.7271   -0.3936    0.8766 O.2        1 <1>        0.000
      9 H           2.3062   -1.9855   -3.5685 H.spc      1 <1>        0.000
     10 H           1.7978    0.9499   -3.2430 H.spc      1 <1>        0.000
     11 H           0.2785    0.9919   -0.7503 H.spc      1 <1>        0.000
     12 H           1.4994    1.0595    1.2388 H.spc      1 <1>        0.000
@<TRIPOS>BOND
     1    1    2 2  
     2    1    3 am 
     3    3    4 am 
     4    4    5 2  
     5    4    6 am 
     6    6    7 am 
     7    7    8 2  
     8    1    9 1  
     9    3   10 1  
    10    6   11 1  
    11    7   12 1  
# Name:          frag3-231-3/31924 -- energy: -1.242325
# Creation time: Sat Jun  5 12:52:24 2010


@<TRIPOS>MOLECULE
frag3-231-3/31924 -- energy: -1.242325
   12    11     1     1     1
SMALL
USER_CHARGES


@<TRIPOS>ATOM
      1 C6          2.3923   -0.0109   -3.5266 C.2        1 <1>        0.000
      2 O1          3.1444   -0.9546   -3.7028 O.2        1 <1>        0.000
      3 N1          1.2984    0.1457   -2.7038 N.am       1 <1>        0.000
      4 C7          0.9362   -0.8636   -1.7742 C.2        1 <1>        0.000
      5 O2          0.3258   -1.8354   -2.1959 O.2        1 <1>        0.000
      6 N2          1.2453   -0.7665   -0.4025 N.am       1 <1>        0.000
      7 C8          2.2785   -0.0114    0.0790 C.2        1 <1>        0.000
      8 O3          3.1972    0.5554   -0.4860 O.2        1 <1>        0.000
      9 H           2.6280    0.8668   -4.1285 H.spc      1 <1>        0.000
     10 H           0.7416    0.9982   -2.7636 H.spc      1 <1>        0.000
     11 H           0.6709   -1.2842    0.2627 H.spc      1 <1>        0.000
     12 H           2.2807    0.1042    1.1628 H.spc      1 <1>        0.000
@<TRIPOS>BOND
     1    1    2 2  
     2    1    3 am 
     3    3    4 am 
     4    4    5 2  
     5    4    6 am 
     6    6    7 am 
     7    7    8 2  
     8    1    9 1  
     9    3   10 1  
    10    6   11 1  
    11    7   12 1  
# Name:          frag3-231-3/31924 -- energy: -0.540192
# Creation time: Sat Jun  5 12:52:24 2010


@<TRIPOS>MOLECULE
frag3-231-3/31924 -- energy: -0.540192
   12    11     1     1     1
SMALL
USER_CHARGES


@<TRIPOS>ATOM
      1 C6          2.3660   -0.3528   -4.0619 C.2        1 <1>        0.000
      2 O1          1.9767   -1.3358   -4.6710 O.2        1 <1>        0.000
      3 N1          2.2734    0.0012   -2.7297 N.am       1 <1>        0.000
      4 C7          1.4301   -0.7333   -1.8676 C.2        1 <1>        0.000
      5 O2          0.5082   -1.3655   -2.3972 O.2        1 <1>        0.000
      6 N2          1.5422   -0.7278   -0.4689 N.am       1 <1>        0.000
      7 C8          2.3827    0.1301    0.1929 C.2        1 <1>        0.000
      8 O3          2.3388    0.6428    1.2905 O.2        1 <1>        0.000
      9 H           2.8812    0.3803   -4.6826 H.spc      1 <1>        0.000
     10 H           2.8118    0.7896   -2.3705 H.spc      1 <1>        0.000
     11 H           0.9799   -1.3836    0.0735 H.spc      1 <1>        0.000
     12 H           3.2663    0.4060   -0.3826 H.spc      1 <1>        0.000
@<TRIPOS>BOND
     1    1    2 2  
     2    1    3 am 
     3    3    4 am 
     4    4    5 2  
     5    4    6 am 
     6    6    7 am 
     7    7    8 2  
     8    1    9 1  
     9    3   10 1  
    10    6   11 1  
    11    7   12 1  
# Name:          frag3-231-3/31924 -- energy: -1.076419
# Creation time: Sat Jun  5 12:52:24 2010


@<TRIPOS>MOLECULE
frag3-231-3/31924 -- energy: -1.076419
   12    11     1     1     1
SMALL
USER_CHARGES


@<TRIPOS>ATOM
      1 C6          2.4855   -0.7557   -3.6080 C.2        1 <1>        0.000
      2 O1          3.2340   -0.1930   -4.3813 O.2        1 <1>        0.000
      3 N1          1.3467   -0.3455   -2.9524 N.am       1 <1>        0.000
      4 C7          0.9329   -0.9794   -1.7648 C.2        1 <1>        0.000
      5 O2         -0.0549   -1.7208   -1.8295 O.2        1 <1>        0.000
      6 N2          1.5375   -0.7710   -0.5122 N.am       1 <1>        0.000
      7 C8          2.2218    0.3850   -0.2242 C.2        1 <1>        0.000
      8 O3          3.1148    0.6393    0.5593 O.2        1 <1>        0.000
      9 H           2.7707   -1.7851   -3.3910 H.spc      1 <1>        0.000
     10 H           0.7967    0.4257   -3.3308 H.spc      1 <1>        0.000
     11 H           1.4661   -1.4968    0.2009 H.spc      1 <1>        0.000
     12 H           1.9002    1.2428   -0.8149 H.spc      1 <1>        0.000
@<TRIPOS>BOND
     1    1    2 2  
     2    1    3 am 
     3    3    4 am 
     4    4    5 2  
     5    4    6 am 
     6    6    7 am 
     7    7    8 2  
     8    1    9 1  
     9    3   10 1  
    10    6   11 1  
    11    7   12 1  
