#      Rotatable Fragment
#      Build by yxyuan
#
# Name:          frag4-354-120/48856
# Creation time: Sat Jun  5 12:53:09 2010


@<TRIPOS>MOLECULE
frag4-354-120/48856
    9     9     1     1     1
SMALL
USER_CHARGES


@<TRIPOS>ATOM
      1 N1         -1.1434   -0.4019   -0.0127 N.2        1 <1>        0.000
      2 N2         -0.1701   -1.4033    0.2485 N.2        1 <1>        0.000
      3 C1          0.9867   -0.8235    0.2346 C.2        1 <1>        0.000
      4 C2          0.8001    0.6073   -0.0733 C.3        1 <1>        0.000
      5 C3         -0.6395    0.7865   -0.2057 C.2        1 <1>        0.000
      6 H           1.9430   -1.3125    0.4201 H.spc      1 <1>        0.000
      7 H           1.3259    0.8939   -0.9841 H.spc      1 <1>        0.000
      8 H           1.2137    1.2436    0.7091 H.spc      1 <1>        0.000
      9 H          -1.1776    1.7101   -0.4191 H.spc      1 <1>        0.000
@<TRIPOS>BOND
     1    1    2 1  
     2    1    5 2  
     3    2    3 2  
     4    3    4 1  
     5    4    5 1  
     6    3    6 1  
     7    4    7 1  
     8    4    8 1  
     9    5    9 1  
# Name:          frag4-354-120/48856 -- energy: -0.250873
# Creation time: Sat Jun  5 12:53:09 2010


@<TRIPOS>MOLECULE
frag4-354-120/48856 -- energy: -0.250873
    9     9     1     1     1
SMALL
USER_CHARGES


@<TRIPOS>ATOM
      1 N1         -1.1434   -0.4019   -0.0127 N.2        1 <1>        0.000
      2 N2         -0.1701   -1.4033    0.2485 N.2        1 <1>        0.000
      3 C1          0.9867   -0.8235    0.2346 C.2        1 <1>        0.000
      4 C2          0.8001    0.6073   -0.0733 C.3        1 <1>        0.000
      5 C3         -0.6395    0.7865   -0.2057 C.2        1 <1>        0.000
      6 H           1.9430   -1.3125    0.4201 H.spc      1 <1>        0.000
      7 H           1.3259    0.8939   -0.9841 H.spc      1 <1>        0.000
      8 H           1.2137    1.2436    0.7091 H.spc      1 <1>        0.000
      9 H          -1.1776    1.7101   -0.4191 H.spc      1 <1>        0.000
@<TRIPOS>BOND
     1    1    2 1  
     2    1    5 2  
     3    2    3 2  
     4    3    4 1  
     5    4    5 1  
     6    3    6 1  
     7    4    7 1  
     8    4    8 1  
     9    5    9 1  
