#      Rotatable Fragment
#      Build by yxyuan
#
# Name:          frag5-585-40/41815
# Creation time: Sat Jun  5 12:52:56 2010


@<TRIPOS>MOLECULE
frag5-585-40/41815
   17    17     1     1     1
SMALL
USER_CHARGES


@<TRIPOS>ATOM
      1 N1          3.0195    0.1107   -0.2747 N.am       1 <1>        0.000
      2 C1          4.3995    0.0001   -0.0210 C.ar       1 <1>        0.000
      3 C2          5.3396    0.1587   -1.0511 C.ar       1 <1>        0.000
      4 C3          6.7013    0.1183   -0.7717 C.ar       1 <1>        0.000
      5 C4          7.1734   -0.1197    0.5278 C.ar       1 <1>        0.000
      6 C5          6.2243   -0.3319    1.5446 C.ar       1 <1>        0.000
      7 C6          4.8602   -0.2806    1.2701 C.ar       1 <1>        0.000
      8 O1          8.5295   -0.1441    0.7753 O.3        1 <1>        0.000
      9 C7          2.5164    0.5525   -1.4502 C.2        1 <1>        0.000
     10 O2          1.3338    0.6207   -1.7291 O.2        1 <1>        0.000
     11 H           2.3674   -0.1550    0.4632 H.spc      1 <1>        0.000
     12 H           5.0006    0.3143   -2.0753 H.spc      1 <1>        0.000
     13 H           7.4166    0.2748   -1.5791 H.spc      1 <1>        0.000
     14 H           6.5612   -0.5391    2.5603 H.spc      1 <1>        0.000
     15 H           4.1427   -0.4613    2.0705 H.spc      1 <1>        0.000
     16 H           8.6805   -0.3179    1.7073 H.spc      1 <1>        0.000
     17 H           3.2288    0.8738   -2.2100 H.spc      1 <1>        0.000
@<TRIPOS>BOND
     1    6    7 ar 
     2    5    8 1  
     3    9   10 2  
     4    1    9 am 
     5    1    2 1  
     6    2    3 ar 
     7    2    7 ar 
     8    3    4 ar 
     9    4    5 ar 
    10    5    6 ar 
    11    1   11 1  
    12    3   12 1  
    13    4   13 1  
    14    6   14 1  
    15    7   15 1  
    16    8   16 1  
    17    9   17 1  
# Name:          frag5-585-40/41815
# Creation time: Sat Jun  5 12:52:56 2010


@<TRIPOS>MOLECULE
frag5-585-40/41815
   17    17     1     1     1
SMALL
USER_CHARGES


@<TRIPOS>ATOM
      1 N1          2.8581   -0.3233   -0.1584 N.am       1 <1>        0.000
      2 C1          4.2579   -0.2429    0.0238 C.ar       1 <1>        0.000
      3 C2          5.1246   -0.0931   -1.0697 C.ar       1 <1>        0.000
      4 C3          6.4928    0.0557   -0.8661 C.ar       1 <1>        0.000
      5 C4          7.0455    0.0216    0.4232 C.ar       1 <1>        0.000
      6 C5          6.1770   -0.1835    1.5091 C.ar       1 <1>        0.000
      7 C6          4.8052   -0.3217    1.3091 C.ar       1 <1>        0.000
      8 O1          8.4059    0.1814    0.5963 O.3        1 <1>        0.000
      9 C7          2.2166    0.3422   -1.1461 C.2        1 <1>        0.000
     10 O2          2.7137    1.2482   -1.8012 O.2        1 <1>        0.000
     11 H           2.3122   -0.9042    0.4780 H.spc      1 <1>        0.000
     12 H           4.7239   -0.0933   -2.0834 H.spc      1 <1>        0.000
     13 H           7.1481    0.2016   -1.7248 H.spc      1 <1>        0.000
     14 H           6.5816   -0.2351    2.5199 H.spc      1 <1>        0.000
     15 H           4.1508   -0.4932    2.1637 H.spc      1 <1>        0.000
     16 H           8.6163    0.1323    1.5317 H.spc      1 <1>        0.000
     17 H           1.1906    0.0526   -1.3730 H.spc      1 <1>        0.000
@<TRIPOS>BOND
     1    6    7 ar 
     2    5    8 1  
     3    9   10 2  
     4    1    9 am 
     5    1    2 1  
     6    2    3 ar 
     7    2    7 ar 
     8    3    4 ar 
     9    4    5 ar 
    10    5    6 ar 
    11    1   11 1  
    12    3   12 1  
    13    4   13 1  
    14    6   14 1  
    15    7   15 1  
    16    8   16 1  
    17    9   17 1  
# Name:          frag5-585-40/41815
# Creation time: Sat Jun  5 12:52:56 2010


@<TRIPOS>MOLECULE
frag5-585-40/41815
   17    17     1     1     1
SMALL
USER_CHARGES


@<TRIPOS>ATOM
      1 N1          2.8910    0.5260    0.0317 N.am       1 <1>        0.000
      2 C1          4.2792    0.2988    0.1667 C.ar       1 <1>        0.000
      3 C2          4.8243   -0.2200    1.3468 C.ar       1 <1>        0.000
      4 C3          6.1860   -0.4995    1.4292 C.ar       1 <1>        0.000
      5 C4          7.0514   -0.2324    0.3584 C.ar       1 <1>        0.000
      6 C5          6.5057    0.3419   -0.8040 C.ar       1 <1>        0.000
      7 C6          5.1431    0.6097   -0.8942 C.ar       1 <1>        0.000
      8 O1          8.3949   -0.5282    0.4670 O.3        1 <1>        0.000
      9 C7          2.2755    0.5636   -1.1727 C.2        1 <1>        0.000
     10 O2          2.5464   -0.1752   -2.1091 O.2        1 <1>        0.000
     11 H           2.3323    0.6669    0.8734 H.spc      1 <1>        0.000
     12 H           4.1796   -0.4062    2.2058 H.spc      1 <1>        0.000
     13 H           6.5874   -0.9347    2.3444 H.spc      1 <1>        0.000
     14 H           7.1580    0.5800   -1.6442 H.spc      1 <1>        0.000
     15 H           4.7424    1.0662   -1.7993 H.spc      1 <1>        0.000
     16 H           8.8417   -0.2854   -0.3473 H.spc      1 <1>        0.000
     17 H           1.4861    1.3010   -1.3181 H.spc      1 <1>        0.000
@<TRIPOS>BOND
     1    6    7 ar 
     2    5    8 1  
     3    9   10 2  
     4    1    9 am 
     5    1    2 1  
     6    2    3 ar 
     7    2    7 ar 
     8    3    4 ar 
     9    4    5 ar 
    10    5    6 ar 
    11    1   11 1  
    12    3   12 1  
    13    4   13 1  
    14    6   14 1  
    15    7   15 1  
    16    8   16 1  
    17    9   17 1  
# Name:          frag5-585-40/41815 -- energy: 0.015407
# Creation time: Sat Jun  5 12:52:56 2010


@<TRIPOS>MOLECULE
frag5-585-40/41815 -- energy: 0.015407
   17    17     1     1     1
SMALL
USER_CHARGES


@<TRIPOS>ATOM
      1 N1          3.0195    0.1107   -0.2747 N.am       1 <1>        0.000
      2 C1          4.3995    0.0001   -0.0210 C.ar       1 <1>        0.000
      3 C2          5.3396    0.1587   -1.0511 C.ar       1 <1>        0.000
      4 C3          6.7013    0.1183   -0.7717 C.ar       1 <1>        0.000
      5 C4          7.1734   -0.1197    0.5278 C.ar       1 <1>        0.000
      6 C5          6.2243   -0.3319    1.5446 C.ar       1 <1>        0.000
      7 C6          4.8602   -0.2806    1.2701 C.ar       1 <1>        0.000
      8 O1          8.5295   -0.1441    0.7753 O.3        1 <1>        0.000
      9 C7          2.5164    0.5525   -1.4502 C.2        1 <1>        0.000
     10 O2          1.3338    0.6207   -1.7291 O.2        1 <1>        0.000
     11 H           2.3674   -0.1550    0.4632 H.spc      1 <1>        0.000
     12 H           5.0006    0.3143   -2.0753 H.spc      1 <1>        0.000
     13 H           7.4166    0.2748   -1.5791 H.spc      1 <1>        0.000
     14 H           6.5612   -0.5391    2.5603 H.spc      1 <1>        0.000
     15 H           4.1427   -0.4613    2.0705 H.spc      1 <1>        0.000
     16 H           8.6805   -0.3179    1.7073 H.spc      1 <1>        0.000
     17 H           3.2288    0.8738   -2.2100 H.spc      1 <1>        0.000
@<TRIPOS>BOND
     1    6    7 ar 
     2    5    8 1  
     3    9   10 2  
     4    1    9 am 
     5    1    2 1  
     6    2    3 ar 
     7    2    7 ar 
     8    3    4 ar 
     9    4    5 ar 
    10    5    6 ar 
    11    1   11 1  
    12    3   12 1  
    13    4   13 1  
    14    6   14 1  
    15    7   15 1  
    16    8   16 1  
    17    9   17 1  
# Name:          frag5-585-40/41815 -- energy: -0.614903
# Creation time: Sat Jun  5 12:52:56 2010


@<TRIPOS>MOLECULE
frag5-585-40/41815 -- energy: -0.614903
   17    17     1     1     1
SMALL
USER_CHARGES


@<TRIPOS>ATOM
      1 N1          2.8581   -0.3233   -0.1584 N.am       1 <1>        0.000
      2 C1          4.2579   -0.2429    0.0238 C.ar       1 <1>        0.000
      3 C2          5.1246   -0.0931   -1.0697 C.ar       1 <1>        0.000
      4 C3          6.4928    0.0557   -0.8661 C.ar       1 <1>        0.000
      5 C4          7.0455    0.0216    0.4232 C.ar       1 <1>        0.000
      6 C5          6.1770   -0.1835    1.5091 C.ar       1 <1>        0.000
      7 C6          4.8052   -0.3217    1.3091 C.ar       1 <1>        0.000
      8 O1          8.4059    0.1814    0.5963 O.3        1 <1>        0.000
      9 C7          2.2166    0.3422   -1.1461 C.2        1 <1>        0.000
     10 O2          2.7137    1.2482   -1.8012 O.2        1 <1>        0.000
     11 H           2.3122   -0.9042    0.4780 H.spc      1 <1>        0.000
     12 H           4.7239   -0.0933   -2.0834 H.spc      1 <1>        0.000
     13 H           7.1481    0.2016   -1.7248 H.spc      1 <1>        0.000
     14 H           6.5816   -0.2351    2.5199 H.spc      1 <1>        0.000
     15 H           4.1508   -0.4932    2.1637 H.spc      1 <1>        0.000
     16 H           8.6163    0.1323    1.5317 H.spc      1 <1>        0.000
     17 H           1.1906    0.0526   -1.3730 H.spc      1 <1>        0.000
@<TRIPOS>BOND
     1    6    7 ar 
     2    5    8 1  
     3    9   10 2  
     4    1    9 am 
     5    1    2 1  
     6    2    3 ar 
     7    2    7 ar 
     8    3    4 ar 
     9    4    5 ar 
    10    5    6 ar 
    11    1   11 1  
    12    3   12 1  
    13    4   13 1  
    14    6   14 1  
    15    7   15 1  
    16    8   16 1  
    17    9   17 1  
# Name:          frag5-585-40/41815 -- energy: -0.687578
# Creation time: Sat Jun  5 12:52:56 2010


@<TRIPOS>MOLECULE
frag5-585-40/41815 -- energy: -0.687578
   17    17     1     1     1
SMALL
USER_CHARGES


@<TRIPOS>ATOM
      1 N1          2.8910    0.5260    0.0317 N.am       1 <1>        0.000
      2 C1          4.2792    0.2988    0.1667 C.ar       1 <1>        0.000
      3 C2          4.8243   -0.2200    1.3468 C.ar       1 <1>        0.000
      4 C3          6.1860   -0.4995    1.4292 C.ar       1 <1>        0.000
      5 C4          7.0514   -0.2324    0.3584 C.ar       1 <1>        0.000
      6 C5          6.5057    0.3419   -0.8040 C.ar       1 <1>        0.000
      7 C6          5.1431    0.6097   -0.8942 C.ar       1 <1>        0.000
      8 O1          8.3949   -0.5282    0.4670 O.3        1 <1>        0.000
      9 C7          2.2755    0.5636   -1.1727 C.2        1 <1>        0.000
     10 O2          2.5464   -0.1752   -2.1091 O.2        1 <1>        0.000
     11 H           2.3323    0.6669    0.8734 H.spc      1 <1>        0.000
     12 H           4.1796   -0.4062    2.2058 H.spc      1 <1>        0.000
     13 H           6.5874   -0.9347    2.3444 H.spc      1 <1>        0.000
     14 H           7.1580    0.5800   -1.6442 H.spc      1 <1>        0.000
     15 H           4.7424    1.0662   -1.7993 H.spc      1 <1>        0.000
     16 H           8.8417   -0.2854   -0.3473 H.spc      1 <1>        0.000
     17 H           1.4861    1.3010   -1.3181 H.spc      1 <1>        0.000
@<TRIPOS>BOND
     1    6    7 ar 
     2    5    8 1  
     3    9   10 2  
     4    1    9 am 
     5    1    2 1  
     6    2    3 ar 
     7    2    7 ar 
     8    3    4 ar 
     9    4    5 ar 
    10    5    6 ar 
    11    1   11 1  
    12    3   12 1  
    13    4   13 1  
    14    6   14 1  
    15    7   15 1  
    16    8   16 1  
    17    9   17 1  
