#      Rotatable Fragment
#      Build by yxyuan
#
# Name:          frag3-164-16/96164
# Creation time: Sat Jun  5 12:53:07 2010


@<TRIPOS>MOLECULE
frag3-164-16/96164
   14    13     1     1     1
SMALL
USER_CHARGES


@<TRIPOS>ATOM
      1 N1          2.2873    0.4490    0.8194 N.pl3      1 <1>        0.000
      2 C10         1.2051    0.0486    0.1522 C.cat      1 <1>        0.000
      3 N2          0.0546    0.6675    0.3051 N.pl3      1 <1>        0.000
      4 N3          1.3077   -0.9780   -0.6814 N.pl3      1 <1>        0.000
      5 C12        -0.3992    1.5372    1.1805 C.cat      1 <1>        0.000
      6 N4          0.2754    1.7768    2.3032 N.pl3      1 <1>        0.000
      7 N5         -1.5338    2.1869    0.9545 N.pl3      1 <1>        0.000
      8 H           3.1765   -0.0324    0.6849 H.spc      1 <1>        0.000
      9 H          -0.6320    0.4199   -0.4074 H.spc      1 <1>        0.000
     10 H           2.2047   -1.4479   -0.8038 H.spc      1 <1>        0.000
     11 H           0.4896   -1.2976   -1.2000 H.spc      1 <1>        0.000
     12 H          -0.0813    2.4534    2.9780 H.spc      1 <1>        0.000
     13 H          -1.8801    2.8611    1.6371 H.spc      1 <1>        0.000
     14 H          -2.0597    2.0121    0.0982 H.spc      1 <1>        0.000
@<TRIPOS>BOND
     1    1    2 ar 
     2    2    3 ar 
     3    2    4 ar 
     4    3    5 ar 
     5    5    6 ar 
     6    5    7 ar 
     7    1    8 1  
     8    3    9 1  
     9    4   10 1  
    10    4   11 1  
    11    6   12 1  
    12    7   13 1  
    13    7   14 1  
# Name:          frag3-164-16/96164
# Creation time: Sat Jun  5 12:53:07 2010


@<TRIPOS>MOLECULE
frag3-164-16/96164
   14    13     1     1     1
SMALL
USER_CHARGES


@<TRIPOS>ATOM
      1 N1          2.6514    0.0051   -0.0175 N.pl3      1 <1>        0.000
      2 C10         1.3466    0.1640    0.2192 C.cat      1 <1>        0.000
      3 N2          0.8958    1.0089    1.1322 N.pl3      1 <1>        0.000
      4 N3          0.4729   -0.5334   -0.4968 N.pl3      1 <1>        0.000
      5 C12        -0.3074    1.5145    1.3324 C.cat      1 <1>        0.000
      6 N4         -0.6687    1.9738    2.5285 N.pl3      1 <1>        0.000
      7 N5         -1.1935    1.5551    0.3354 N.pl3      1 <1>        0.000
      8 H           2.9634   -0.6444   -0.7394 H.spc      1 <1>        0.000
      9 H           1.6011    1.3249    1.7978 H.spc      1 <1>        0.000
     10 H           0.8017   -1.1788   -1.2150 H.spc      1 <1>        0.000
     11 H          -0.5272   -0.4239   -0.3287 H.spc      1 <1>        0.000
     12 H          -1.6073    2.3474    2.6691 H.spc      1 <1>        0.000
     13 H          -2.1269    1.9329    0.4978 H.spc      1 <1>        0.000
     14 H          -0.9373    1.2084   -0.5890 H.spc      1 <1>        0.000
@<TRIPOS>BOND
     1    1    2 ar 
     2    2    3 ar 
     3    2    4 ar 
     4    3    5 ar 
     5    5    6 ar 
     6    5    7 ar 
     7    1    8 1  
     8    3    9 1  
     9    4   10 1  
    10    4   11 1  
    11    6   12 1  
    12    7   13 1  
    13    7   14 1  
# Name:          frag3-164-16/96164
# Creation time: Sat Jun  5 12:53:07 2010


@<TRIPOS>MOLECULE
frag3-164-16/96164
   14    13     1     1     1
SMALL
USER_CHARGES


@<TRIPOS>ATOM
      1 N1         -0.4188    2.7160    1.9853 N.pl3      1 <1>        0.000
      2 C10        -0.2762    1.5966    1.2795 C.cat      1 <1>        0.000
      3 N2          0.9164    1.0270    1.1126 N.pl3      1 <1>        0.000
      4 N3         -1.3635    1.0469    0.7282 N.pl3      1 <1>        0.000
      5 C12         1.3203    0.0828    0.2696 C.cat      1 <1>        0.000
      6 N4          2.3663   -0.7039    0.5358 N.pl3      1 <1>        0.000
      7 N5          0.6526   -0.0775   -0.8775 N.pl3      1 <1>        0.000
      8 H          -1.3421    3.1352    2.0957 H.spc      1 <1>        0.000
      9 H           1.6430    1.3748    1.7383 H.spc      1 <1>        0.000
     10 H          -2.2759    1.4855    0.8532 H.spc      1 <1>        0.000
     11 H          -1.2805    0.1891    0.1827 H.spc      1 <1>        0.000
     12 H           2.6496   -1.4196   -0.1335 H.spc      1 <1>        0.000
     13 H           0.9433   -0.7959   -1.5407 H.spc      1 <1>        0.000
     14 H          -0.1475    0.5186   -1.0895 H.spc      1 <1>        0.000
@<TRIPOS>BOND
     1    1    2 ar 
     2    2    3 ar 
     3    2    4 ar 
     4    3    5 ar 
     5    5    6 ar 
     6    5    7 ar 
     7    1    8 1  
     8    3    9 1  
     9    4   10 1  
    10    4   11 1  
    11    6   12 1  
    12    7   13 1  
    13    7   14 1  
# Name:          frag3-164-16/96164
# Creation time: Sat Jun  5 12:53:07 2010


@<TRIPOS>MOLECULE
frag3-164-16/96164
   14    13     1     1     1
SMALL
USER_CHARGES


@<TRIPOS>ATOM
      1 N1          0.3986    2.0974    2.1003 N.pl3      1 <1>        0.000
      2 C10        -0.3914    1.5560    1.1758 C.cat      1 <1>        0.000
      3 N2          0.0195    0.5457    0.4312 N.pl3      1 <1>        0.000
      4 N3         -1.6227    2.0405    1.0105 N.pl3      1 <1>        0.000
      5 C12         1.1945   -0.0028    0.1858 C.cat      1 <1>        0.000
      6 N4          1.2971   -1.1993   -0.3950 N.pl3      1 <1>        0.000
      7 N5          2.3015    0.6504    0.5248 N.pl3      1 <1>        0.000
      8 H           0.0596    2.8721    2.6706 H.spc      1 <1>        0.000
      9 H          -0.7430    0.0857   -0.0663 H.spc      1 <1>        0.000
     10 H          -1.9476    2.8156    1.5885 H.spc      1 <1>        0.000
     11 H          -2.2396    1.6360    0.3061 H.spc      1 <1>        0.000
     12 H           2.2169   -1.6022   -0.5739 H.spc      1 <1>        0.000
     13 H           3.2150    0.2359    0.3402 H.spc      1 <1>        0.000
     14 H           2.2374    1.5661    0.9696 H.spc      1 <1>        0.000
@<TRIPOS>BOND
     1    1    2 ar 
     2    2    3 ar 
     3    2    4 ar 
     4    3    5 ar 
     5    5    6 ar 
     6    5    7 ar 
     7    1    8 1  
     8    3    9 1  
     9    4   10 1  
    10    4   11 1  
    11    6   12 1  
    12    7   13 1  
    13    7   14 1  
# Name:          frag3-164-16/96164
# Creation time: Sat Jun  5 12:53:07 2010


@<TRIPOS>MOLECULE
frag3-164-16/96164
   14    13     1     1     1
SMALL
USER_CHARGES


@<TRIPOS>ATOM
      1 N1          2.5980    0.4469   -0.3145 N.pl3      1 <1>        0.000
      2 C10         1.3628    0.2550    0.1551 C.cat      1 <1>        0.000
      3 N2          0.4841    1.2338    0.2492 N.pl3      1 <1>        0.000
      4 N3          1.0039   -0.9661    0.5410 N.pl3      1 <1>        0.000
      5 C12        -0.4407    1.4785    1.1533 C.cat      1 <1>        0.000
      6 N4         -0.4330    0.8508    2.3338 N.pl3      1 <1>        0.000
      7 N5         -1.3781    2.3889    0.9154 N.pl3      1 <1>        0.000
      8 H           3.2489   -0.3363   -0.3727 H.spc      1 <1>        0.000
      9 H           0.5286    1.9171   -0.5068 H.spc      1 <1>        0.000
     10 H           1.6681   -1.7374    0.4757 H.spc      1 <1>        0.000
     11 H           0.0644   -1.1313    0.9023 H.spc      1 <1>        0.000
     12 H          -1.1397    1.0739    3.0347 H.spc      1 <1>        0.000
     13 H          -2.0770    2.5994    1.6278 H.spc      1 <1>        0.000
     14 H          -1.3990    2.8775    0.0203 H.spc      1 <1>        0.000
@<TRIPOS>BOND
     1    1    2 ar 
     2    2    3 ar 
     3    2    4 ar 
     4    3    5 ar 
     5    5    6 ar 
     6    5    7 ar 
     7    1    8 1  
     8    3    9 1  
     9    4   10 1  
    10    4   11 1  
    11    6   12 1  
    12    7   13 1  
    13    7   14 1  
# Name:          frag3-164-16/96164 -- energy: -0.777956
# Creation time: Sat Jun  5 12:53:07 2010


@<TRIPOS>MOLECULE
frag3-164-16/96164 -- energy: -0.777956
   14    13     1     1     1
SMALL
USER_CHARGES


@<TRIPOS>ATOM
      1 N1          2.2873    0.4490    0.8194 N.pl3      1 <1>        0.000
      2 C10         1.2051    0.0486    0.1522 C.cat      1 <1>        0.000
      3 N2          0.0546    0.6675    0.3051 N.pl3      1 <1>        0.000
      4 N3          1.3077   -0.9780   -0.6814 N.pl3      1 <1>        0.000
      5 C12        -0.3992    1.5372    1.1805 C.cat      1 <1>        0.000
      6 N4          0.2754    1.7768    2.3032 N.pl3      1 <1>        0.000
      7 N5         -1.5338    2.1869    0.9545 N.pl3      1 <1>        0.000
      8 H           3.1765   -0.0324    0.6849 H.spc      1 <1>        0.000
      9 H          -0.6320    0.4199   -0.4074 H.spc      1 <1>        0.000
     10 H           2.2047   -1.4479   -0.8038 H.spc      1 <1>        0.000
     11 H           0.4896   -1.2976   -1.2000 H.spc      1 <1>        0.000
     12 H          -0.0813    2.4534    2.9780 H.spc      1 <1>        0.000
     13 H          -1.8801    2.8611    1.6371 H.spc      1 <1>        0.000
     14 H          -2.0597    2.0121    0.0982 H.spc      1 <1>        0.000
@<TRIPOS>BOND
     1    1    2 ar 
     2    2    3 ar 
     3    2    4 ar 
     4    3    5 ar 
     5    5    6 ar 
     6    5    7 ar 
     7    1    8 1  
     8    3    9 1  
     9    4   10 1  
    10    4   11 1  
    11    6   12 1  
    12    7   13 1  
    13    7   14 1  
# Name:          frag3-164-16/96164 -- energy: 1.922002
# Creation time: Sat Jun  5 12:53:07 2010


@<TRIPOS>MOLECULE
frag3-164-16/96164 -- energy: 1.922002
   14    13     1     1     1
SMALL
USER_CHARGES


@<TRIPOS>ATOM
      1 N1          2.6514    0.0051   -0.0175 N.pl3      1 <1>        0.000
      2 C10         1.3466    0.1640    0.2192 C.cat      1 <1>        0.000
      3 N2          0.8958    1.0089    1.1322 N.pl3      1 <1>        0.000
      4 N3          0.4729   -0.5334   -0.4968 N.pl3      1 <1>        0.000
      5 C12        -0.3074    1.5145    1.3324 C.cat      1 <1>        0.000
      6 N4         -0.6687    1.9738    2.5285 N.pl3      1 <1>        0.000
      7 N5         -1.1935    1.5551    0.3354 N.pl3      1 <1>        0.000
      8 H           2.9634   -0.6444   -0.7394 H.spc      1 <1>        0.000
      9 H           1.6011    1.3249    1.7978 H.spc      1 <1>        0.000
     10 H           0.8017   -1.1788   -1.2150 H.spc      1 <1>        0.000
     11 H          -0.5272   -0.4239   -0.3287 H.spc      1 <1>        0.000
     12 H          -1.6073    2.3474    2.6691 H.spc      1 <1>        0.000
     13 H          -2.1269    1.9329    0.4978 H.spc      1 <1>        0.000
     14 H          -0.9373    1.2084   -0.5890 H.spc      1 <1>        0.000
@<TRIPOS>BOND
     1    1    2 ar 
     2    2    3 ar 
     3    2    4 ar 
     4    3    5 ar 
     5    5    6 ar 
     6    5    7 ar 
     7    1    8 1  
     8    3    9 1  
     9    4   10 1  
    10    4   11 1  
    11    6   12 1  
    12    7   13 1  
    13    7   14 1  
# Name:          frag3-164-16/96164 -- energy: 1.313088
# Creation time: Sat Jun  5 12:53:07 2010


@<TRIPOS>MOLECULE
frag3-164-16/96164 -- energy: 1.313088
   14    13     1     1     1
SMALL
USER_CHARGES


@<TRIPOS>ATOM
      1 N1         -0.4188    2.7160    1.9853 N.pl3      1 <1>        0.000
      2 C10        -0.2762    1.5966    1.2795 C.cat      1 <1>        0.000
      3 N2          0.9164    1.0270    1.1126 N.pl3      1 <1>        0.000
      4 N3         -1.3635    1.0469    0.7282 N.pl3      1 <1>        0.000
      5 C12         1.3203    0.0828    0.2696 C.cat      1 <1>        0.000
      6 N4          2.3663   -0.7039    0.5358 N.pl3      1 <1>        0.000
      7 N5          0.6526   -0.0775   -0.8775 N.pl3      1 <1>        0.000
      8 H          -1.3421    3.1352    2.0957 H.spc      1 <1>        0.000
      9 H           1.6430    1.3748    1.7383 H.spc      1 <1>        0.000
     10 H          -2.2759    1.4855    0.8532 H.spc      1 <1>        0.000
     11 H          -1.2805    0.1891    0.1827 H.spc      1 <1>        0.000
     12 H           2.6496   -1.4196   -0.1335 H.spc      1 <1>        0.000
     13 H           0.9433   -0.7959   -1.5407 H.spc      1 <1>        0.000
     14 H          -0.1475    0.5186   -1.0895 H.spc      1 <1>        0.000
@<TRIPOS>BOND
     1    1    2 ar 
     2    2    3 ar 
     3    2    4 ar 
     4    3    5 ar 
     5    5    6 ar 
     6    5    7 ar 
     7    1    8 1  
     8    3    9 1  
     9    4   10 1  
    10    4   11 1  
    11    6   12 1  
    12    7   13 1  
    13    7   14 1  
# Name:          frag3-164-16/96164 -- energy: -0.455186
# Creation time: Sat Jun  5 12:53:07 2010


@<TRIPOS>MOLECULE
frag3-164-16/96164 -- energy: -0.455186
   14    13     1     1     1
SMALL
USER_CHARGES


@<TRIPOS>ATOM
      1 N1          0.3986    2.0974    2.1003 N.pl3      1 <1>        0.000
      2 C10        -0.3914    1.5560    1.1758 C.cat      1 <1>        0.000
      3 N2          0.0195    0.5457    0.4312 N.pl3      1 <1>        0.000
      4 N3         -1.6227    2.0405    1.0105 N.pl3      1 <1>        0.000
      5 C12         1.1945   -0.0028    0.1858 C.cat      1 <1>        0.000
      6 N4          1.2971   -1.1993   -0.3950 N.pl3      1 <1>        0.000
      7 N5          2.3015    0.6504    0.5248 N.pl3      1 <1>        0.000
      8 H           0.0596    2.8721    2.6706 H.spc      1 <1>        0.000
      9 H          -0.7430    0.0857   -0.0663 H.spc      1 <1>        0.000
     10 H          -1.9476    2.8156    1.5885 H.spc      1 <1>        0.000
     11 H          -2.2396    1.6360    0.3061 H.spc      1 <1>        0.000
     12 H           2.2169   -1.6022   -0.5739 H.spc      1 <1>        0.000
     13 H           3.2150    0.2359    0.3402 H.spc      1 <1>        0.000
     14 H           2.2374    1.5661    0.9696 H.spc      1 <1>        0.000
@<TRIPOS>BOND
     1    1    2 ar 
     2    2    3 ar 
     3    2    4 ar 
     4    3    5 ar 
     5    5    6 ar 
     6    5    7 ar 
     7    1    8 1  
     8    3    9 1  
     9    4   10 1  
    10    4   11 1  
    11    6   12 1  
    12    7   13 1  
    13    7   14 1  
# Name:          frag3-164-16/96164 -- energy: -0.895790
# Creation time: Sat Jun  5 12:53:07 2010


@<TRIPOS>MOLECULE
frag3-164-16/96164 -- energy: -0.895790
   14    13     1     1     1
SMALL
USER_CHARGES


@<TRIPOS>ATOM
      1 N1          2.5980    0.4469   -0.3145 N.pl3      1 <1>        0.000
      2 C10         1.3628    0.2550    0.1551 C.cat      1 <1>        0.000
      3 N2          0.4841    1.2338    0.2492 N.pl3      1 <1>        0.000
      4 N3          1.0039   -0.9661    0.5410 N.pl3      1 <1>        0.000
      5 C12        -0.4407    1.4785    1.1533 C.cat      1 <1>        0.000
      6 N4         -0.4330    0.8508    2.3338 N.pl3      1 <1>        0.000
      7 N5         -1.3781    2.3889    0.9154 N.pl3      1 <1>        0.000
      8 H           3.2489   -0.3363   -0.3727 H.spc      1 <1>        0.000
      9 H           0.5286    1.9171   -0.5068 H.spc      1 <1>        0.000
     10 H           1.6681   -1.7374    0.4757 H.spc      1 <1>        0.000
     11 H           0.0644   -1.1313    0.9023 H.spc      1 <1>        0.000
     12 H          -1.1397    1.0739    3.0347 H.spc      1 <1>        0.000
     13 H          -2.0770    2.5994    1.6278 H.spc      1 <1>        0.000
     14 H          -1.3990    2.8775    0.0203 H.spc      1 <1>        0.000
@<TRIPOS>BOND
     1    1    2 ar 
     2    2    3 ar 
     3    2    4 ar 
     4    3    5 ar 
     5    5    6 ar 
     6    5    7 ar 
     7    1    8 1  
     8    3    9 1  
     9    4   10 1  
    10    4   11 1  
    11    6   12 1  
    12    7   13 1  
    13    7   14 1  
