#      Rotatable Fragment
#      Build by yxyuan
#
# Name:          frag3-111-81/31924
# Creation time: Sat Jun  5 12:52:00 2010


@<TRIPOS>MOLECULE
frag3-111-81/31924
   14    13     1     1     1
SMALL
USER_CHARGES


@<TRIPOS>ATOM
      1 C12         3.0599   -0.2637   -0.0473 C.2        1 <1>        0.000
      2 C13         1.8749    0.3694   -0.1574 C.2        1 <1>        0.000
      3 C14         0.6067   -0.2243    0.2251 C.2        1 <1>        0.000
      4 C15        -0.5960    0.3693    0.0401 C.2        1 <1>        0.000
      5 C16        -1.8599   -0.1984    0.4792 C.2        1 <1>        0.000
      6 C17        -3.0550    0.3622    0.2133 C.2        1 <1>        0.000
      7 H           3.1008   -1.2789    0.3474 H.spc      1 <1>        0.000
      8 H           3.9772    0.2396   -0.3530 H.spc      1 <1>        0.000
      9 H           1.8687    1.3839   -0.5559 H.spc      1 <1>        0.000
     10 H           0.6237   -1.2098    0.6904 H.spc      1 <1>        0.000
     11 H          -0.6178    1.3325   -0.4697 H.spc      1 <1>        0.000
     12 H          -1.8393   -1.1250    1.0529 H.spc      1 <1>        0.000
     13 H          -3.1072    1.2889   -0.3582 H.spc      1 <1>        0.000
     14 H          -3.9702   -0.1107    0.5696 H.spc      1 <1>        0.000
@<TRIPOS>BOND
     1    1    2 2  
     2    2    3 1  
     3    3    4 2  
     4    4    5 1  
     5    5    6 2  
     6    1    7 1  
     7    1    8 1  
     8    2    9 1  
     9    3   10 1  
    10    4   11 1  
    11    5   12 1  
    12    6   13 1  
    13    6   14 1  
# Name:          frag3-111-81/31924
# Creation time: Sat Jun  5 12:52:00 2010


@<TRIPOS>MOLECULE
frag3-111-81/31924
   14    13     1     1     1
SMALL
USER_CHARGES


@<TRIPOS>ATOM
      1 C12         2.6500    0.5404    0.4656 C.2        1 <1>        0.000
      2 C13         1.9368   -0.2073   -0.4002 C.2        1 <1>        0.000
      3 C14         0.5668   -0.6258   -0.1635 C.2        1 <1>        0.000
      4 C15        -0.4762    0.2281   -0.0362 C.2        1 <1>        0.000
      5 C16        -1.8367   -0.1891    0.2620 C.2        1 <1>        0.000
      6 C17        -2.8101    0.6680    0.6254 C.2        1 <1>        0.000
      7 H           2.2008    0.8645    1.4044 H.spc      1 <1>        0.000
      8 H           3.6759    0.8209    0.2269 H.spc      1 <1>        0.000
      9 H           2.4154   -0.5149   -1.3299 H.spc      1 <1>        0.000
     10 H           0.3654   -1.6940   -0.0833 H.spc      1 <1>        0.000
     11 H          -0.2842    1.2933   -0.1651 H.spc      1 <1>        0.000
     12 H          -2.0812   -1.2487    0.1877 H.spc      1 <1>        0.000
     13 H          -2.5952    1.7334    0.7081 H.spc      1 <1>        0.000
     14 H          -3.8127    0.2962    0.8368 H.spc      1 <1>        0.000
@<TRIPOS>BOND
     1    1    2 2  
     2    2    3 1  
     3    3    4 2  
     4    4    5 1  
     5    5    6 2  
     6    1    7 1  
     7    1    8 1  
     8    2    9 1  
     9    3   10 1  
    10    4   11 1  
    11    5   12 1  
    12    6   13 1  
    13    6   14 1  
# Name:          frag3-111-81/31924
# Creation time: Sat Jun  5 12:52:00 2010


@<TRIPOS>MOLECULE
frag3-111-81/31924
   14    13     1     1     1
SMALL
USER_CHARGES


@<TRIPOS>ATOM
      1 C12         2.6168   -0.1572    0.5231 C.2        1 <1>        0.000
      2 C13         1.8261    0.3161   -0.4563 C.2        1 <1>        0.000
      3 C14         0.3883    0.4311   -0.3508 C.2        1 <1>        0.000
      4 C15        -0.4161   -0.4971    0.2177 C.2        1 <1>        0.000
      5 C16        -1.8608   -0.4089    0.2760 C.2        1 <1>        0.000
      6 C17        -2.5237    0.7303    0.5432 C.2        1 <1>        0.000
      7 H           2.1796   -0.4827    1.4671 H.spc      1 <1>        0.000
      8 H           3.6948   -0.2154    0.3730 H.spc      1 <1>        0.000
      9 H           2.2977    0.6324   -1.3867 H.spc      1 <1>        0.000
     10 H          -0.0800    1.3275   -0.7573 H.spc      1 <1>        0.000
     11 H           0.0564   -1.3726    0.6630 H.spc      1 <1>        0.000
     12 H          -2.4411   -1.3134    0.0937 H.spc      1 <1>        0.000
     13 H          -1.9714    1.6513    0.7298 H.spc      1 <1>        0.000
     14 H          -3.6133    0.7326    0.5731 H.spc      1 <1>        0.000
@<TRIPOS>BOND
     1    1    2 2  
     2    2    3 1  
     3    3    4 2  
     4    4    5 1  
     5    5    6 2  
     6    1    7 1  
     7    1    8 1  
     8    2    9 1  
     9    3   10 1  
    10    4   11 1  
    11    5   12 1  
    12    6   13 1  
    13    6   14 1  
# Name:          frag3-111-81/31924
# Creation time: Sat Jun  5 12:52:00 2010


@<TRIPOS>MOLECULE
frag3-111-81/31924
   14    13     1     1     1
SMALL
USER_CHARGES


@<TRIPOS>ATOM
      1 C12         2.5176   -0.5912   -0.2766 C.2        1 <1>        0.000
      2 C13         1.8542    0.5589   -0.0604 C.2        1 <1>        0.000
      3 C14         0.4180    0.6509    0.0629 C.2        1 <1>        0.000
      4 C15        -0.3699   -0.3053    0.6083 C.2        1 <1>        0.000
      5 C16        -1.8136   -0.2423    0.6804 C.2        1 <1>        0.000
      6 C17        -2.5757    0.3434   -0.2616 C.2        1 <1>        0.000
      7 H           1.9683   -1.5281   -0.3692 H.spc      1 <1>        0.000
      8 H           3.6045   -0.5862   -0.3592 H.spc      1 <1>        0.000
      9 H           2.4355    1.4768    0.0270 H.spc      1 <1>        0.000
     10 H          -0.0655    1.5540   -0.3095 H.spc      1 <1>        0.000
     11 H           0.1188   -1.1868    1.0233 H.spc      1 <1>        0.000
     12 H          -2.3089   -0.6919    1.5410 H.spc      1 <1>        0.000
     13 H          -2.1085    0.8013   -1.1335 H.spc      1 <1>        0.000
     14 H          -3.6601    0.3599   -0.1527 H.spc      1 <1>        0.000
@<TRIPOS>BOND
     1    1    2 2  
     2    2    3 1  
     3    3    4 2  
     4    4    5 1  
     5    5    6 2  
     6    1    7 1  
     7    1    8 1  
     8    2    9 1  
     9    3   10 1  
    10    4   11 1  
    11    5   12 1  
    12    6   13 1  
    13    6   14 1  
# Name:          frag3-111-81/31924 -- energy: -0.820005
# Creation time: Sat Jun  5 12:52:00 2010


@<TRIPOS>MOLECULE
frag3-111-81/31924 -- energy: -0.820005
   14    13     1     1     1
SMALL
USER_CHARGES


@<TRIPOS>ATOM
      1 C12         3.0599   -0.2637   -0.0473 C.2        1 <1>        0.000
      2 C13         1.8749    0.3694   -0.1574 C.2        1 <1>        0.000
      3 C14         0.6067   -0.2243    0.2251 C.2        1 <1>        0.000
      4 C15        -0.5960    0.3693    0.0401 C.2        1 <1>        0.000
      5 C16        -1.8599   -0.1984    0.4792 C.2        1 <1>        0.000
      6 C17        -3.0550    0.3622    0.2133 C.2        1 <1>        0.000
      7 H           3.1008   -1.2789    0.3474 H.spc      1 <1>        0.000
      8 H           3.9772    0.2396   -0.3530 H.spc      1 <1>        0.000
      9 H           1.8687    1.3839   -0.5559 H.spc      1 <1>        0.000
     10 H           0.6237   -1.2098    0.6904 H.spc      1 <1>        0.000
     11 H          -0.6178    1.3325   -0.4697 H.spc      1 <1>        0.000
     12 H          -1.8393   -1.1250    1.0529 H.spc      1 <1>        0.000
     13 H          -3.1072    1.2889   -0.3582 H.spc      1 <1>        0.000
     14 H          -3.9702   -0.1107    0.5696 H.spc      1 <1>        0.000
@<TRIPOS>BOND
     1    1    2 2  
     2    2    3 1  
     3    3    4 2  
     4    4    5 1  
     5    5    6 2  
     6    1    7 1  
     7    1    8 1  
     8    2    9 1  
     9    3   10 1  
    10    4   11 1  
    11    5   12 1  
    12    6   13 1  
    13    6   14 1  
# Name:          frag3-111-81/31924 -- energy: -0.896885
# Creation time: Sat Jun  5 12:52:00 2010


@<TRIPOS>MOLECULE
frag3-111-81/31924 -- energy: -0.896885
   14    13     1     1     1
SMALL
USER_CHARGES


@<TRIPOS>ATOM
      1 C12         2.6500    0.5404    0.4656 C.2        1 <1>        0.000
      2 C13         1.9368   -0.2073   -0.4002 C.2        1 <1>        0.000
      3 C14         0.5668   -0.6258   -0.1635 C.2        1 <1>        0.000
      4 C15        -0.4762    0.2281   -0.0362 C.2        1 <1>        0.000
      5 C16        -1.8367   -0.1891    0.2620 C.2        1 <1>        0.000
      6 C17        -2.8101    0.6680    0.6254 C.2        1 <1>        0.000
      7 H           2.2008    0.8645    1.4044 H.spc      1 <1>        0.000
      8 H           3.6759    0.8209    0.2269 H.spc      1 <1>        0.000
      9 H           2.4154   -0.5149   -1.3299 H.spc      1 <1>        0.000
     10 H           0.3654   -1.6940   -0.0833 H.spc      1 <1>        0.000
     11 H          -0.2842    1.2933   -0.1651 H.spc      1 <1>        0.000
     12 H          -2.0812   -1.2487    0.1877 H.spc      1 <1>        0.000
     13 H          -2.5952    1.7334    0.7081 H.spc      1 <1>        0.000
     14 H          -3.8127    0.2962    0.8368 H.spc      1 <1>        0.000
@<TRIPOS>BOND
     1    1    2 2  
     2    2    3 1  
     3    3    4 2  
     4    4    5 1  
     5    5    6 2  
     6    1    7 1  
     7    1    8 1  
     8    2    9 1  
     9    3   10 1  
    10    4   11 1  
    11    5   12 1  
    12    6   13 1  
    13    6   14 1  
# Name:          frag3-111-81/31924 -- energy: -0.981759
# Creation time: Sat Jun  5 12:52:00 2010


@<TRIPOS>MOLECULE
frag3-111-81/31924 -- energy: -0.981759
   14    13     1     1     1
SMALL
USER_CHARGES


@<TRIPOS>ATOM
      1 C12         2.6168   -0.1572    0.5231 C.2        1 <1>        0.000
      2 C13         1.8261    0.3161   -0.4563 C.2        1 <1>        0.000
      3 C14         0.3883    0.4311   -0.3508 C.2        1 <1>        0.000
      4 C15        -0.4161   -0.4971    0.2177 C.2        1 <1>        0.000
      5 C16        -1.8608   -0.4089    0.2760 C.2        1 <1>        0.000
      6 C17        -2.5237    0.7303    0.5432 C.2        1 <1>        0.000
      7 H           2.1796   -0.4827    1.4671 H.spc      1 <1>        0.000
      8 H           3.6948   -0.2154    0.3730 H.spc      1 <1>        0.000
      9 H           2.2977    0.6324   -1.3867 H.spc      1 <1>        0.000
     10 H          -0.0800    1.3275   -0.7573 H.spc      1 <1>        0.000
     11 H           0.0564   -1.3726    0.6630 H.spc      1 <1>        0.000
     12 H          -2.4411   -1.3134    0.0937 H.spc      1 <1>        0.000
     13 H          -1.9714    1.6513    0.7298 H.spc      1 <1>        0.000
     14 H          -3.6133    0.7326    0.5731 H.spc      1 <1>        0.000
@<TRIPOS>BOND
     1    1    2 2  
     2    2    3 1  
     3    3    4 2  
     4    4    5 1  
     5    5    6 2  
     6    1    7 1  
     7    1    8 1  
     8    2    9 1  
     9    3   10 1  
    10    4   11 1  
    11    5   12 1  
    12    6   13 1  
    13    6   14 1  
# Name:          frag3-111-81/31924 -- energy: -0.948296
# Creation time: Sat Jun  5 12:52:00 2010


@<TRIPOS>MOLECULE
frag3-111-81/31924 -- energy: -0.948296
   14    13     1     1     1
SMALL
USER_CHARGES


@<TRIPOS>ATOM
      1 C12         2.5176   -0.5912   -0.2766 C.2        1 <1>        0.000
      2 C13         1.8542    0.5589   -0.0604 C.2        1 <1>        0.000
      3 C14         0.4180    0.6509    0.0629 C.2        1 <1>        0.000
      4 C15        -0.3699   -0.3053    0.6083 C.2        1 <1>        0.000
      5 C16        -1.8136   -0.2423    0.6804 C.2        1 <1>        0.000
      6 C17        -2.5757    0.3434   -0.2616 C.2        1 <1>        0.000
      7 H           1.9683   -1.5281   -0.3692 H.spc      1 <1>        0.000
      8 H           3.6045   -0.5862   -0.3592 H.spc      1 <1>        0.000
      9 H           2.4355    1.4768    0.0270 H.spc      1 <1>        0.000
     10 H          -0.0655    1.5540   -0.3095 H.spc      1 <1>        0.000
     11 H           0.1188   -1.1868    1.0233 H.spc      1 <1>        0.000
     12 H          -2.3089   -0.6919    1.5410 H.spc      1 <1>        0.000
     13 H          -2.1085    0.8013   -1.1335 H.spc      1 <1>        0.000
     14 H          -3.6601    0.3599   -0.1527 H.spc      1 <1>        0.000
@<TRIPOS>BOND
     1    1    2 2  
     2    2    3 1  
     3    3    4 2  
     4    4    5 1  
     5    5    6 2  
     6    1    7 1  
     7    1    8 1  
     8    2    9 1  
     9    3   10 1  
    10    4   11 1  
    11    5   12 1  
    12    6   13 1  
    13    6   14 1  
