#      Rotatable Fragment
#      Build by yxyuan
#
# Name:          frag5-538-78/41815
# Creation time: Sat Jun  5 12:52:52 2010


@<TRIPOS>MOLECULE
frag5-538-78/41815
   12    12     1     1     1
SMALL
USER_CHARGES


@<TRIPOS>ATOM
      1 Cl1        -2.8845    1.1754    0.2010 Cl         1 <1>        0.000
      2 C1         -1.2776    0.4896    0.0911 C.ar       1 <1>        0.000
      3 C2         -1.0983   -0.8917    0.1703 C.ar       1 <1>        0.000
      4 C3          0.1851   -1.4357    0.0820 C.ar       1 <1>        0.000
      5 C4          1.2912   -0.5983   -0.0846 C.ar       1 <1>        0.000
      6 C5          1.1144    0.7836   -0.1643 C.ar       1 <1>        0.000
      7 C6         -0.1719    1.3239   -0.0757 C.ar       1 <1>        0.000
      8 Cl2         2.5004    1.8318   -0.3742 Cl         1 <1>        0.000
      9 H          -1.9599   -1.5464    0.3011 H.spc      1 <1>        0.000
     10 H           0.3240   -2.5151    0.1431 H.spc      1 <1>        0.000
     11 H           2.2921   -1.0245   -0.1523 H.spc      1 <1>        0.000
     12 H          -0.3118    2.4031   -0.1373 H.spc      1 <1>        0.000
@<TRIPOS>BOND
     1    1    2 1  
     2    2    3 ar 
     3    2    7 ar 
     4    3    4 ar 
     5    4    5 ar 
     6    5    6 ar 
     7    6    7 ar 
     8    6    8 1  
     9    3    9 1  
    10    4   10 1  
    11    5   11 1  
    12    7   12 1  
# Name:          frag5-538-78/41815 -- energy: -0.296486
# Creation time: Sat Jun  5 12:52:52 2010


@<TRIPOS>MOLECULE
frag5-538-78/41815 -- energy: -0.296486
   12    12     1     1     1
SMALL
USER_CHARGES


@<TRIPOS>ATOM
      1 Cl1        -2.8845    1.1754    0.2010 Cl         1 <1>        0.000
      2 C1         -1.2776    0.4896    0.0911 C.ar       1 <1>        0.000
      3 C2         -1.0983   -0.8917    0.1703 C.ar       1 <1>        0.000
      4 C3          0.1851   -1.4357    0.0820 C.ar       1 <1>        0.000
      5 C4          1.2912   -0.5983   -0.0846 C.ar       1 <1>        0.000
      6 C5          1.1144    0.7836   -0.1643 C.ar       1 <1>        0.000
      7 C6         -0.1719    1.3239   -0.0757 C.ar       1 <1>        0.000
      8 Cl2         2.5004    1.8318   -0.3742 Cl         1 <1>        0.000
      9 H          -1.9599   -1.5464    0.3011 H.spc      1 <1>        0.000
     10 H           0.3240   -2.5151    0.1431 H.spc      1 <1>        0.000
     11 H           2.2921   -1.0245   -0.1523 H.spc      1 <1>        0.000
     12 H          -0.3118    2.4031   -0.1373 H.spc      1 <1>        0.000
@<TRIPOS>BOND
     1    1    2 1  
     2    2    3 ar 
     3    2    7 ar 
     4    3    4 ar 
     5    4    5 ar 
     6    5    6 ar 
     7    6    7 ar 
     8    6    8 1  
     9    3    9 1  
    10    4   10 1  
    11    5   11 1  
    12    7   12 1  
