#      Rotatable Fragment
#      Build by yxyuan
#
# Name:          frag5-520-129/41815
# Creation time: Sat Jun  5 12:52:51 2010


@<TRIPOS>MOLECULE
frag5-520-129/41815
   12    13     1     1     1
SMALL
USER_CHARGES


@<TRIPOS>ATOM
      1 N1         -1.7276   -1.0262   -0.1222 N.ar       1 <1>        0.000
      2 C1         -2.5552    0.1710   -0.1078 C.ar       1 <1>        0.000
      3 N2         -1.7498    1.1738    0.0358 N.ar       1 <1>        0.000
      4 C2         -0.4518    0.7640    0.0915 C.ar       1 <1>        0.000
      5 C3         -0.3824   -0.5793   -0.0765 C.ar       1 <1>        0.000
      6 C4          0.9094   -1.2235   -0.2195 C.ar       1 <1>        0.000
      7 N3          1.8987   -0.4530   -0.0177 N.ar       1 <1>        0.000
      8 C5          1.8534    0.9007    0.2020 C.ar       1 <1>        0.000
      9 N4          0.7268    1.4972    0.2128 N.ar       1 <1>        0.000
     10 O1          2.8956    1.3513    0.4460 O.2        1 <1>        0.000
     11 O3          0.8059   -2.3574   -0.5131 O.2        1 <1>        0.000
     12 H          -3.6404    0.2145   -0.1999 H.spc      1 <1>        0.000
@<TRIPOS>BOND
     1    8    9 ar 
     2    8   10 2  
     3    1    2 ar 
     4    1    5 ar 
     5    2    3 ar 
     6    3    4 ar 
     7    4    5 ar 
     8    4    9 ar 
     9    5    6 ar 
    10    6    7 ar 
    11    6   11 2  
    12    7    8 ar 
    13    2   12 1  
# Name:          frag5-520-129/41815 -- energy: -0.144079
# Creation time: Sat Jun  5 12:52:51 2010


@<TRIPOS>MOLECULE
frag5-520-129/41815 -- energy: -0.144079
   12    13     1     1     1
SMALL
USER_CHARGES


@<TRIPOS>ATOM
      1 N1         -1.7276   -1.0262   -0.1222 N.ar       1 <1>        0.000
      2 C1         -2.5552    0.1710   -0.1078 C.ar       1 <1>        0.000
      3 N2         -1.7498    1.1738    0.0358 N.ar       1 <1>        0.000
      4 C2         -0.4518    0.7640    0.0915 C.ar       1 <1>        0.000
      5 C3         -0.3824   -0.5793   -0.0765 C.ar       1 <1>        0.000
      6 C4          0.9094   -1.2235   -0.2195 C.ar       1 <1>        0.000
      7 N3          1.8987   -0.4530   -0.0177 N.ar       1 <1>        0.000
      8 C5          1.8534    0.9007    0.2020 C.ar       1 <1>        0.000
      9 N4          0.7268    1.4972    0.2128 N.ar       1 <1>        0.000
     10 O1          2.8956    1.3513    0.4460 O.2        1 <1>        0.000
     11 O3          0.8059   -2.3574   -0.5131 O.2        1 <1>        0.000
     12 H          -3.6404    0.2145   -0.1999 H.spc      1 <1>        0.000
@<TRIPOS>BOND
     1    8    9 ar 
     2    8   10 2  
     3    1    2 ar 
     4    1    5 ar 
     5    2    3 ar 
     6    3    4 ar 
     7    4    5 ar 
     8    4    9 ar 
     9    5    6 ar 
    10    6    7 ar 
    11    6   11 2  
    12    7    8 ar 
    13    2   12 1  
