#      Rotatable Fragment
#      Build by yxyuan
#
# Name:          frag5-650-27/41815
# Creation time: Sat Jun  5 12:53:01 2010


@<TRIPOS>MOLECULE
frag5-650-27/41815
   30    32     1     1     1
SMALL
USER_CHARGES


@<TRIPOS>ATOM
      1 O1          0.0901   -2.1527    2.0480 O.3        1 <1>        0.000
      2 C1         -0.5685   -1.2867    1.2219 C.ar       1 <1>        0.000
      3 C2          0.1380   -0.4051    0.3846 C.ar       1 <1>        0.000
      4 C3         -0.5180    0.4958   -0.4743 C.ar       1 <1>        0.000
      5 C4         -1.9225    0.4921   -0.4755 C.ar       1 <1>        0.000
      6 C5         -2.6649   -0.3624    0.3389 C.ar       1 <1>        0.000
      7 C6         -1.9774   -1.2379    1.1739 C.ar       1 <1>        0.000
      8 C7         -4.1807   -0.3372    0.3078 C.2        1 <1>        0.000
      9 C14         2.4840    2.2724   -2.1564 C.ar       1 <1>        0.000
     10 O2         -4.7671   -0.0779   -0.7238 O.2        1 <1>        0.000
     11 O3         -4.8558   -0.6101    1.4300 O.3        1 <1>        0.000
     12 C8          0.2362    1.4406   -1.3712 C.3        1 <1>        0.000
     13 C9          1.7405    1.4077   -1.3360 C.ar       1 <1>        0.000
     14 C10         2.4522    0.5282   -0.4976 C.ar       1 <1>        0.000
     15 C11         3.8582    0.4964   -0.4655 C.ar       1 <1>        0.000
     16 C12         4.5465    1.3900   -1.3132 C.ar       1 <1>        0.000
     17 C13         3.8713    2.2684   -2.1494 C.ar       1 <1>        0.000
     18 O4          4.5251   -0.3667    0.3574 O.3        1 <1>        0.000
     19 C15         1.6557   -0.4084    0.3904 C.2        1 <1>        0.000
     20 O5          2.2548   -1.1907    1.1381 O.2        1 <1>        0.000
     21 H           1.0371   -2.0384    1.9401 H.spc      1 <1>        0.000
     22 H          -2.4502    1.1806   -1.1355 H.spc      1 <1>        0.000
     23 H          -2.5483   -1.9104    1.8141 H.spc      1 <1>        0.000
     24 H           1.9578    2.9636   -2.8148 H.spc      1 <1>        0.000
     25 H          -4.2350   -0.7900    2.1398 H.spc      1 <1>        0.000
     26 H          -0.0372    2.4394   -1.0309 H.spc      1 <1>        0.000
     27 H          -0.0337    1.1498   -2.3864 H.spc      1 <1>        0.000
     28 H           5.6365    1.3906   -1.3114 H.spc      1 <1>        0.000
     29 H           4.4263    2.9491   -2.7949 H.spc      1 <1>        0.000
     30 H           3.8904   -0.8896    0.8527 H.spc      1 <1>        0.000
@<TRIPOS>BOND
     1    5    6 ar 
     2    3    4 ar 
     3   15   16 ar 
     4    2    7 ar 
     5   19   20 2  
     6   15   18 1  
     7    4    5 ar 
     8   13    9 ar 
     9    4   12 1  
    10   17    9 ar 
    11    2    3 ar 
    12    6    7 ar 
    13    8   11 1  
    14   16   17 ar 
    15    8   10 2  
    16   12   13 1  
    17    6    8 1  
    18    3   19 1  
    19   14   15 ar 
    20   13   14 ar 
    21   14   19 1  
    22    1    2 1  
    23    1   21 1  
    24    5   22 1  
    25    7   23 1  
    26    9   24 1  
    27   11   25 1  
    28   12   26 1  
    29   12   27 1  
    30   16   28 1  
    31   17   29 1  
    32   18   30 1  
