#      Rotatable Fragment
#      Build by yxyuan
#
# Name:          frag4-428-48/48856
# Creation time: Sat Jun  5 12:52:36 2010


@<TRIPOS>MOLECULE
frag4-428-48/48856
   45    48     1     1     1
SMALL
USER_CHARGES


@<TRIPOS>ATOM
      1 C1         -3.8884    0.7960    1.0914 C.3        1 <1>        0.000
      2 C2         -2.6003   -0.0320    1.0164 C.3        1 <1>        0.000
      3 C3         -1.5195    1.0596    0.9793 C.3        1 <1>        0.000
      4 C4         -0.1084    0.4459    1.0680 C.3        1 <1>        0.000
      5 C5          0.1212   -0.5723   -0.0903 C.3        1 <1>        0.000
      6 C6          1.5427   -1.2023    0.0077 C.3        1 <1>        0.000
      7 C7          2.6337   -0.0888    0.0392 C.3        1 <1>        0.000
      8 C15        -1.0288   -1.6164   -0.1418 C.3        1 <1>        0.000
      9 C8          2.3781    0.9170    1.1779 C.3        1 <1>        0.000
     10 C9          0.9810    1.5352    1.0784 C.3        1 <1>        0.000
     11 C10         4.0572   -0.6787    0.1481 C.3        1 <1>        0.000
     12 C11         4.2815   -1.6800   -0.9463 C.3        1 <1>        0.000
     13 C12         3.1441   -1.8686   -1.9110 C.3        1 <1>        0.000
     14 C13         1.8587   -2.2036   -1.1329 C.3        1 <1>        0.000
     15 C16        -2.4318   -0.9838   -0.1734 C.3        1 <1>        0.000
     16 C17        -1.9806    1.9963    2.1075 C.3        1 <1>        0.000
     17 C18        -3.5195    2.0224    1.9545 C.3        1 <1>        0.000
     18 H          -4.7114    0.2277    1.5247 H.spc      1 <1>        0.000
     19 H          -4.2416    1.0874    0.1022 H.spc      1 <1>        0.000
     20 H          -2.5704   -0.7318    1.8516 H.spc      1 <1>        0.000
     21 H          -1.4198    1.6262    0.0535 H.spc      1 <1>        0.000
     22 H          -0.0356   -0.0925    2.0130 H.spc      1 <1>        0.000
     23 H           0.0900   -0.0489   -1.0459 H.spc      1 <1>        0.000
     24 H           1.5533   -1.7680    0.9394 H.spc      1 <1>        0.000
     25 H           2.5665    0.4438   -0.9095 H.spc      1 <1>        0.000
     26 H          -0.9081   -2.1916   -1.0598 H.spc      1 <1>        0.000
     27 H          -0.9626   -2.2214    0.7624 H.spc      1 <1>        0.000
     28 H           2.4548    0.3889    2.1283 H.spc      1 <1>        0.000
     29 H           3.1152    1.7165    1.1039 H.spc      1 <1>        0.000
     30 H           0.9160    2.1023    0.1498 H.spc      1 <1>        0.000
     31 H           0.8221    2.1790    1.9435 H.spc      1 <1>        0.000
     32 H           4.7872    0.1253    0.0542 H.spc      1 <1>        0.000
     33 H           4.1687   -1.1715    1.1139 H.spc      1 <1>        0.000
     34 H           5.1218   -1.3088   -1.5330 H.spc      1 <1>        0.000
     35 H           4.4288   -2.6419   -0.4553 H.spc      1 <1>        0.000
     36 H           2.9949   -0.9507   -2.4796 H.spc      1 <1>        0.000
     37 H           3.3787   -2.6860   -2.5928 H.spc      1 <1>        0.000
     38 H           1.9995   -3.1836   -0.6769 H.spc      1 <1>        0.000
     39 H           1.0300   -2.1648   -1.8399 H.spc      1 <1>        0.000
     40 H          -2.5541   -0.4252   -1.1014 H.spc      1 <1>        0.000
     41 H          -3.1832   -1.7712   -0.1138 H.spc      1 <1>        0.000
     42 H          -1.6659    1.6491    3.0916 H.spc      1 <1>        0.000
     43 H          -1.5378    2.9894    2.0312 H.spc      1 <1>        0.000
     44 H          -4.0115    1.9809    2.9263 H.spc      1 <1>        0.000
     45 H          -3.8517    2.9478    1.4841 H.spc      1 <1>        0.000
@<TRIPOS>BOND
     1    1    2 1  
     2    2    3 1  
     3    2   15 1  
     4    1   17 1  
     5   16   17 1  
     6    8   15 1  
     7   13   14 1  
     8   12   13 1  
     9   11   12 1  
    10    9   10 1  
    11    7   11 1  
    12    7    9 1  
    13    6   14 1  
    14    6    7 1  
    15    5    8 1  
    16    5    6 1  
    17    4   10 1  
    18    4    5 1  
    19    3   16 1  
    20    3    4 1  
    21    1   18 1  
    22    1   19 1  
    23    2   20 1  
    24    3   21 1  
    25    4   22 1  
    26    5   23 1  
    27    6   24 1  
    28    7   25 1  
    29    8   26 1  
    30    8   27 1  
    31    9   28 1  
    32    9   29 1  
    33   10   30 1  
    34   10   31 1  
    35   11   32 1  
    36   11   33 1  
    37   12   34 1  
    38   12   35 1  
    39   13   36 1  
    40   13   37 1  
    41   14   38 1  
    42   14   39 1  
    43   15   40 1  
    44   15   41 1  
    45   16   42 1  
    46   16   43 1  
    47   17   44 1  
    48   17   45 1  
# Name:          frag4-428-48/48856 -- energy: -8.209295
# Creation time: Sat Jun  5 12:52:36 2010


@<TRIPOS>MOLECULE
frag4-428-48/48856 -- energy: -8.209295
   45    48     1     1     1
SMALL
USER_CHARGES


@<TRIPOS>ATOM
      1 C1         -3.8884    0.7960    1.0914 C.3        1 <1>        0.000
      2 C2         -2.6003   -0.0320    1.0164 C.3        1 <1>        0.000
      3 C3         -1.5195    1.0596    0.9793 C.3        1 <1>        0.000
      4 C4         -0.1084    0.4459    1.0680 C.3        1 <1>        0.000
      5 C5          0.1212   -0.5723   -0.0903 C.3        1 <1>        0.000
      6 C6          1.5427   -1.2023    0.0077 C.3        1 <1>        0.000
      7 C7          2.6337   -0.0888    0.0392 C.3        1 <1>        0.000
      8 C15        -1.0288   -1.6164   -0.1418 C.3        1 <1>        0.000
      9 C8          2.3781    0.9170    1.1779 C.3        1 <1>        0.000
     10 C9          0.9810    1.5352    1.0784 C.3        1 <1>        0.000
     11 C10         4.0572   -0.6787    0.1481 C.3        1 <1>        0.000
     12 C11         4.2815   -1.6800   -0.9463 C.3        1 <1>        0.000
     13 C12         3.1441   -1.8686   -1.9110 C.3        1 <1>        0.000
     14 C13         1.8587   -2.2036   -1.1329 C.3        1 <1>        0.000
     15 C16        -2.4318   -0.9838   -0.1734 C.3        1 <1>        0.000
     16 C17        -1.9806    1.9963    2.1075 C.3        1 <1>        0.000
     17 C18        -3.5195    2.0224    1.9545 C.3        1 <1>        0.000
     18 H          -4.7114    0.2277    1.5247 H.spc      1 <1>        0.000
     19 H          -4.2416    1.0874    0.1022 H.spc      1 <1>        0.000
     20 H          -2.5704   -0.7318    1.8516 H.spc      1 <1>        0.000
     21 H          -1.4198    1.6262    0.0535 H.spc      1 <1>        0.000
     22 H          -0.0356   -0.0925    2.0130 H.spc      1 <1>        0.000
     23 H           0.0900   -0.0489   -1.0459 H.spc      1 <1>        0.000
     24 H           1.5533   -1.7680    0.9394 H.spc      1 <1>        0.000
     25 H           2.5665    0.4438   -0.9095 H.spc      1 <1>        0.000
     26 H          -0.9081   -2.1916   -1.0598 H.spc      1 <1>        0.000
     27 H          -0.9626   -2.2214    0.7624 H.spc      1 <1>        0.000
     28 H           2.4548    0.3889    2.1283 H.spc      1 <1>        0.000
     29 H           3.1152    1.7165    1.1039 H.spc      1 <1>        0.000
     30 H           0.9160    2.1023    0.1498 H.spc      1 <1>        0.000
     31 H           0.8221    2.1790    1.9435 H.spc      1 <1>        0.000
     32 H           4.7872    0.1253    0.0542 H.spc      1 <1>        0.000
     33 H           4.1687   -1.1715    1.1139 H.spc      1 <1>        0.000
     34 H           5.1218   -1.3088   -1.5330 H.spc      1 <1>        0.000
     35 H           4.4288   -2.6419   -0.4553 H.spc      1 <1>        0.000
     36 H           2.9949   -0.9507   -2.4796 H.spc      1 <1>        0.000
     37 H           3.3787   -2.6860   -2.5928 H.spc      1 <1>        0.000
     38 H           1.9995   -3.1836   -0.6769 H.spc      1 <1>        0.000
     39 H           1.0300   -2.1648   -1.8399 H.spc      1 <1>        0.000
     40 H          -2.5541   -0.4252   -1.1014 H.spc      1 <1>        0.000
     41 H          -3.1832   -1.7712   -0.1138 H.spc      1 <1>        0.000
     42 H          -1.6659    1.6491    3.0916 H.spc      1 <1>        0.000
     43 H          -1.5378    2.9894    2.0312 H.spc      1 <1>        0.000
     44 H          -4.0115    1.9809    2.9263 H.spc      1 <1>        0.000
     45 H          -3.8517    2.9478    1.4841 H.spc      1 <1>        0.000
@<TRIPOS>BOND
     1    1    2 1  
     2    2    3 1  
     3    2   15 1  
     4    1   17 1  
     5   16   17 1  
     6    8   15 1  
     7   13   14 1  
     8   12   13 1  
     9   11   12 1  
    10    9   10 1  
    11    7   11 1  
    12    7    9 1  
    13    6   14 1  
    14    6    7 1  
    15    5    8 1  
    16    5    6 1  
    17    4   10 1  
    18    4    5 1  
    19    3   16 1  
    20    3    4 1  
    21    1   18 1  
    22    1   19 1  
    23    2   20 1  
    24    3   21 1  
    25    4   22 1  
    26    5   23 1  
    27    6   24 1  
    28    7   25 1  
    29    8   26 1  
    30    8   27 1  
    31    9   28 1  
    32    9   29 1  
    33   10   30 1  
    34   10   31 1  
    35   11   32 1  
    36   11   33 1  
    37   12   34 1  
    38   12   35 1  
    39   13   36 1  
    40   13   37 1  
    41   14   38 1  
    42   14   39 1  
    43   15   40 1  
    44   15   41 1  
    45   16   42 1  
    46   16   43 1  
    47   17   44 1  
    48   17   45 1  
