#      Rotatable Fragment
#      Build by yxyuan
#
# Name:          frag3-108-96/31924
# Creation time: Sat Jun  5 12:52:00 2010


@<TRIPOS>MOLECULE
frag3-108-96/31924
    9     8     1     1     1
SMALL
USER_CHARGES


@<TRIPOS>ATOM
      1 N1          0.8697    0.2566   -0.3011 N.am       1 <1>        0.000
      2 N2          1.3778   -0.2452    0.8700 N.2        1 <1>        0.000
      3 O1          0.6748   -0.7154    1.7714 O.2        1 <1>        0.000
      4 C3         -0.4445    0.2521   -0.5724 C.2        1 <1>        0.000
      5 O2         -0.7867    0.6215   -1.6834 O.2        1 <1>        0.000
      6 N3         -1.4345   -0.1283    0.2383 N.am       1 <1>        0.000
      7 H           1.5132    0.6467   -0.9897 H.spc      1 <1>        0.000
      8 H          -2.4007   -0.0975   -0.0873 H.spc      1 <1>        0.000
      9 H          -1.2248   -0.4498    1.1833 H.spc      1 <1>        0.000
@<TRIPOS>BOND
     1    1    2 1  
     2    1    4 am 
     3    2    3 2  
     4    4    5 2  
     5    4    6 am 
     6    1    7 1  
     7    6    8 1  
     8    6    9 1  
# Name:          frag3-108-96/31924
# Creation time: Sat Jun  5 12:52:00 2010


@<TRIPOS>MOLECULE
frag3-108-96/31924
    9     8     1     1     1
SMALL
USER_CHARGES


@<TRIPOS>ATOM
      1 N1          0.7293    0.0707   -0.1387 N.am       1 <1>        0.000
      2 N2          0.8478   -0.1615    1.1747 N.2        1 <1>        0.000
      3 O1          1.6356   -0.8722    1.7739 O.2        1 <1>        0.000
      4 C3         -0.5532    0.2721   -0.6676 C.2        1 <1>        0.000
      5 O2         -0.6448    0.6411   -1.8574 O.2        1 <1>        0.000
      6 N3         -1.7579    0.0910    0.0380 N.am       1 <1>        0.000
      7 H           1.5526    0.1003   -0.7401 H.spc      1 <1>        0.000
      8 H          -2.6507    0.2604   -0.4253 H.spc      1 <1>        0.000
      9 H          -1.7379   -0.2096    1.0125 H.spc      1 <1>        0.000
@<TRIPOS>BOND
     1    1    2 1  
     2    1    4 am 
     3    2    3 2  
     4    4    5 2  
     5    4    6 am 
     6    1    7 1  
     7    6    8 1  
     8    6    9 1  
# Name:          frag3-108-96/31924 -- energy: 1.655057
# Creation time: Sat Jun  5 12:52:00 2010


@<TRIPOS>MOLECULE
frag3-108-96/31924 -- energy: 1.655057
    9     8     1     1     1
SMALL
USER_CHARGES


@<TRIPOS>ATOM
      1 N1          0.8697    0.2566   -0.3011 N.am       1 <1>        0.000
      2 N2          1.3778   -0.2452    0.8700 N.2        1 <1>        0.000
      3 O1          0.6748   -0.7154    1.7714 O.2        1 <1>        0.000
      4 C3         -0.4445    0.2521   -0.5724 C.2        1 <1>        0.000
      5 O2         -0.7867    0.6215   -1.6834 O.2        1 <1>        0.000
      6 N3         -1.4345   -0.1283    0.2383 N.am       1 <1>        0.000
      7 H           1.5132    0.6467   -0.9897 H.spc      1 <1>        0.000
      8 H          -2.4007   -0.0975   -0.0873 H.spc      1 <1>        0.000
      9 H          -1.2248   -0.4498    1.1833 H.spc      1 <1>        0.000
@<TRIPOS>BOND
     1    1    2 1  
     2    1    4 am 
     3    2    3 2  
     4    4    5 2  
     5    4    6 am 
     6    1    7 1  
     7    6    8 1  
     8    6    9 1  
# Name:          frag3-108-96/31924 -- energy: -0.442708
# Creation time: Sat Jun  5 12:52:00 2010


@<TRIPOS>MOLECULE
frag3-108-96/31924 -- energy: -0.442708
    9     8     1     1     1
SMALL
USER_CHARGES


@<TRIPOS>ATOM
      1 N1          0.7293    0.0707   -0.1387 N.am       1 <1>        0.000
      2 N2          0.8478   -0.1615    1.1747 N.2        1 <1>        0.000
      3 O1          1.6356   -0.8722    1.7739 O.2        1 <1>        0.000
      4 C3         -0.5532    0.2721   -0.6676 C.2        1 <1>        0.000
      5 O2         -0.6448    0.6411   -1.8574 O.2        1 <1>        0.000
      6 N3         -1.7579    0.0910    0.0380 N.am       1 <1>        0.000
      7 H           1.5526    0.1003   -0.7401 H.spc      1 <1>        0.000
      8 H          -2.6507    0.2604   -0.4253 H.spc      1 <1>        0.000
      9 H          -1.7379   -0.2096    1.0125 H.spc      1 <1>        0.000
@<TRIPOS>BOND
     1    1    2 1  
     2    1    4 am 
     3    2    3 2  
     4    4    5 2  
     5    4    6 am 
     6    1    7 1  
     7    6    8 1  
     8    6    9 1  
