#      Rotatable Fragment
#      Build by yxyuan
#
# Name:          frag5-666-66/138278
# Creation time: Sat Jun  5 12:51:51 2010


@<TRIPOS>MOLECULE
frag5-666-66/138278
   16    17     1     1     1
SMALL
USER_CHARGES


@<TRIPOS>ATOM
      1 C1          1.3169   -1.5469   -0.3027 C.ar       1 <1>        0.000
      2 C2          0.0868   -0.7610   -0.1265 C.ar       1 <1>        0.000
      3 N1          2.4743   -1.0041   -0.4686 N.ar       1 <1>        0.000
      4 C4          0.3068    0.6146    0.0993 C.ar       1 <1>        0.000
      5 C5         -1.1881   -1.3234   -0.2285 C.ar       1 <1>        0.000
      6 N3          2.5817    0.3214   -0.0853 N.ar       1 <1>        0.000
      7 C7          1.6666    1.1437    0.1848 C.ar       1 <1>        0.000
      8 C8         -0.8648    1.3724    0.2853 C.ar       1 <1>        0.000
      9 C9         -2.3119   -0.5214   -0.0902 C.ar       1 <1>        0.000
     10 O2          1.8347    2.2542    0.5228 O.2        1 <1>        0.000
     11 C12        -2.1518    0.8282    0.1682 C.ar       1 <1>        0.000
     12 H           1.2472   -2.6346   -0.2926 H.spc      1 <1>        0.000
     13 H          -1.2998   -2.3912   -0.4166 H.spc      1 <1>        0.000
     14 H          -0.7672    2.4298    0.5314 H.spc      1 <1>        0.000
     15 H          -3.3097   -0.9499   -0.1841 H.spc      1 <1>        0.000
     16 H          -3.0265    1.4688    0.2808 H.spc      1 <1>        0.000
@<TRIPOS>BOND
     1    8   11 ar 
     2    7   10 2  
     3    6    7 ar 
     4    9   11 ar 
     5    1    2 ar 
     6    1    3 ar 
     7    2    4 ar 
     8    2    5 ar 
     9    3    6 ar 
    10    4    7 ar 
    11    4    8 ar 
    12    5    9 ar 
    13    1   12 1  
    14    5   13 1  
    15    8   14 1  
    16    9   15 1  
    17   11   16 1  
# Name:          frag5-666-66/138278 -- energy: -0.204982
# Creation time: Sat Jun  5 12:51:51 2010


@<TRIPOS>MOLECULE
frag5-666-66/138278 -- energy: -0.204982
   16    17     1     1     1
SMALL
USER_CHARGES


@<TRIPOS>ATOM
      1 C1          1.3169   -1.5469   -0.3027 C.ar       1 <1>        0.000
      2 C2          0.0868   -0.7610   -0.1265 C.ar       1 <1>        0.000
      3 N1          2.4743   -1.0041   -0.4686 N.ar       1 <1>        0.000
      4 C4          0.3068    0.6146    0.0993 C.ar       1 <1>        0.000
      5 C5         -1.1881   -1.3234   -0.2285 C.ar       1 <1>        0.000
      6 N3          2.5817    0.3214   -0.0853 N.ar       1 <1>        0.000
      7 C7          1.6666    1.1437    0.1848 C.ar       1 <1>        0.000
      8 C8         -0.8648    1.3724    0.2853 C.ar       1 <1>        0.000
      9 C9         -2.3119   -0.5214   -0.0902 C.ar       1 <1>        0.000
     10 O2          1.8347    2.2542    0.5228 O.2        1 <1>        0.000
     11 C12        -2.1518    0.8282    0.1682 C.ar       1 <1>        0.000
     12 H           1.2472   -2.6346   -0.2926 H.spc      1 <1>        0.000
     13 H          -1.2998   -2.3912   -0.4166 H.spc      1 <1>        0.000
     14 H          -0.7672    2.4298    0.5314 H.spc      1 <1>        0.000
     15 H          -3.3097   -0.9499   -0.1841 H.spc      1 <1>        0.000
     16 H          -3.0265    1.4688    0.2808 H.spc      1 <1>        0.000
@<TRIPOS>BOND
     1    8   11 ar 
     2    7   10 2  
     3    6    7 ar 
     4    9   11 ar 
     5    1    2 ar 
     6    1    3 ar 
     7    2    4 ar 
     8    2    5 ar 
     9    3    6 ar 
    10    4    7 ar 
    11    4    8 ar 
    12    5    9 ar 
    13    1   12 1  
    14    5   13 1  
    15    8   14 1  
    16    9   15 1  
    17   11   16 1  
