#      Rotatable Fragment
#      Build by yxyuan
#
# Name:          frag2-057-28/319335
# Creation time: Sat Jun  5 12:53:45 2010


@<TRIPOS>MOLECULE
frag2-057-28/319335
   16    17     1     1     1
SMALL
USER_CHARGES


@<TRIPOS>ATOM
      1 C1          1.1964    1.6866   -0.1793 C.ar       1 <1>        0.000
      2 C2          0.0468    0.9122   -0.0881 C.ar       1 <1>        0.000
      3 N2          2.4196    1.1186   -0.1417 N.ar       1 <1>        0.000
      4 C3          0.1668   -0.4806    0.0429 C.ar       1 <1>        0.000
      5 N3         -1.1835    1.4793   -0.1241 N.ar       1 <1>        0.000
      6 C6          2.5645   -0.2188   -0.0163 C.ar       1 <1>        0.000
      7 C7          1.4488   -1.0358    0.0771 C.ar       1 <1>        0.000
      8 C8         -0.9976   -1.2507    0.1337 C.ar       1 <1>        0.000
      9 C9         -2.3121    0.7470   -0.0369 C.ar       1 <1>        0.000
     10 C12        -2.2399   -0.6339    0.0941 C.ar       1 <1>        0.000
     11 H           1.1090    2.7682   -0.2827 H.spc      1 <1>        0.000
     12 H           3.5623   -0.6568    0.0115 H.spc      1 <1>        0.000
     13 H           1.5716   -2.1142    0.1775 H.spc      1 <1>        0.000
     14 H          -0.9290   -2.3338    0.2354 H.spc      1 <1>        0.000
     15 H          -3.2838    1.2399   -0.0693 H.spc      1 <1>        0.000
     16 H          -3.1511   -1.2278    0.1652 H.spc      1 <1>        0.000
@<TRIPOS>BOND
     1    8   10 ar 
     2    9   10 ar 
     3    1    2 ar 
     4    2    4 ar 
     5    1    3 ar 
     6    2    5 ar 
     7    3    6 ar 
     8    4    7 ar 
     9    4    8 ar 
    10    5    9 ar 
    11    6    7 ar 
    12    1   11 1  
    13    6   12 1  
    14    7   13 1  
    15    8   14 1  
    16    9   15 1  
    17   10   16 1  
# Name:          frag2-057-28/319335 -- energy: 0.074856
# Creation time: Sat Jun  5 12:53:45 2010


@<TRIPOS>MOLECULE
frag2-057-28/319335 -- energy: 0.074856
   16    17     1     1     1
SMALL
USER_CHARGES


@<TRIPOS>ATOM
      1 C1          1.1964    1.6866   -0.1793 C.ar       1 <1>        0.000
      2 C2          0.0468    0.9122   -0.0881 C.ar       1 <1>        0.000
      3 N2          2.4196    1.1186   -0.1417 N.ar       1 <1>        0.000
      4 C3          0.1668   -0.4806    0.0429 C.ar       1 <1>        0.000
      5 N3         -1.1835    1.4793   -0.1241 N.ar       1 <1>        0.000
      6 C6          2.5645   -0.2188   -0.0163 C.ar       1 <1>        0.000
      7 C7          1.4488   -1.0358    0.0771 C.ar       1 <1>        0.000
      8 C8         -0.9976   -1.2507    0.1337 C.ar       1 <1>        0.000
      9 C9         -2.3121    0.7470   -0.0369 C.ar       1 <1>        0.000
     10 C12        -2.2399   -0.6339    0.0941 C.ar       1 <1>        0.000
     11 H           1.1090    2.7682   -0.2827 H.spc      1 <1>        0.000
     12 H           3.5623   -0.6568    0.0115 H.spc      1 <1>        0.000
     13 H           1.5716   -2.1142    0.1775 H.spc      1 <1>        0.000
     14 H          -0.9290   -2.3338    0.2354 H.spc      1 <1>        0.000
     15 H          -3.2838    1.2399   -0.0693 H.spc      1 <1>        0.000
     16 H          -3.1511   -1.2278    0.1652 H.spc      1 <1>        0.000
@<TRIPOS>BOND
     1    8   10 ar 
     2    9   10 ar 
     3    1    2 ar 
     4    2    4 ar 
     5    1    3 ar 
     6    2    5 ar 
     7    3    6 ar 
     8    4    7 ar 
     9    4    8 ar 
    10    5    9 ar 
    11    6    7 ar 
    12    1   11 1  
    13    6   12 1  
    14    7   13 1  
    15    8   14 1  
    16    9   15 1  
    17   10   16 1  
