#      Rotatable Fragment
#      Build by yxyuan
#
# Name:          frag5-606-34/41815
# Creation time: Sat Jun  5 12:52:58 2010


@<TRIPOS>MOLECULE
frag5-606-34/41815
   15    15     1     1     1
SMALL
USER_CHARGES


@<TRIPOS>ATOM
      1 C34         9.0411    0.9246    0.6230 C.3        1 <1>        0.000
      2 O14         9.7747   -0.1220    1.1351 O.3        1 <1>        0.000
      3 C35        10.9872   -0.0598    1.7774 C.3        1 <1>        0.000
      4 C36        11.8130    1.1196    1.2623 C.2        1 <1>        0.000
      5 C37        11.2540    1.8888    0.0918 C.3        1 <1>        0.000
      6 C38         9.8227    2.1983    0.3925 C.3        1 <1>        0.000
      7 O15        12.8762    1.4596    1.7990 O.2        1 <1>        0.000
      8 H           8.2689    1.1569    1.3564 H.spc      1 <1>        0.000
      9 H           8.6691    0.6026   -0.3496 H.spc      1 <1>        0.000
     10 H          11.5345   -0.9829    1.5863 H.spc      1 <1>        0.000
     11 H          10.8134    0.0719    2.8454 H.spc      1 <1>        0.000
     12 H          11.3305    1.2983   -0.8212 H.spc      1 <1>        0.000
     13 H          11.8171    2.8096   -0.0605 H.spc      1 <1>        0.000
     14 H           9.7749    2.8104    1.2932 H.spc      1 <1>        0.000
     15 H           9.3903    2.7301   -0.4551 H.spc      1 <1>        0.000
@<TRIPOS>BOND
     1    1    2 1  
     2    1    6 1  
     3    2    3 1  
     4    3    4 1  
     5    4    5 1  
     6    4    7 2  
     7    5    6 1  
     8    1    8 1  
     9    1    9 1  
    10    3   10 1  
    11    3   11 1  
    12    5   12 1  
    13    5   13 1  
    14    6   14 1  
    15    6   15 1  
# Name:          frag5-606-34/41815
# Creation time: Sat Jun  5 12:52:58 2010


@<TRIPOS>MOLECULE
frag5-606-34/41815
   15    15     1     1     1
SMALL
USER_CHARGES


@<TRIPOS>ATOM
      1 C34         9.2849    0.6630    0.2144 C.3        1 <1>        0.000
      2 O14         9.6856    0.0638    1.4100 O.3        1 <1>        0.000
      3 C35        10.9653   -0.0021    1.9432 C.3        1 <1>        0.000
      4 C36        11.7458    1.1819    1.3842 C.2        1 <1>        0.000
      5 C37        10.9388    2.4042    1.0533 C.3        1 <1>        0.000
      6 C38        10.0022    1.9861   -0.0604 C.3        1 <1>        0.000
      7 O15        12.9463    1.1124    1.1363 O.2        1 <1>        0.000
      8 H           8.2179    0.8729    0.2893 H.spc      1 <1>        0.000
      9 H           9.5280   -0.0217   -0.5981 H.spc      1 <1>        0.000
     10 H          11.4466   -0.9420    1.6730 H.spc      1 <1>        0.000
     11 H          10.9309    0.0394    3.0319 H.spc      1 <1>        0.000
     12 H          11.5780    3.2319    0.7461 H.spc      1 <1>        0.000
     13 H          10.3881    2.7647    1.9221 H.spc      1 <1>        0.000
     14 H           9.2401    2.7594   -0.1568 H.spc      1 <1>        0.000
     15 H          10.6011    1.8544   -0.9616 H.spc      1 <1>        0.000
@<TRIPOS>BOND
     1    1    2 1  
     2    1    6 1  
     3    2    3 1  
     4    3    4 1  
     5    4    5 1  
     6    4    7 2  
     7    5    6 1  
     8    1    8 1  
     9    1    9 1  
    10    3   10 1  
    11    3   11 1  
    12    5   12 1  
    13    5   13 1  
    14    6   14 1  
    15    6   15 1  
# Name:          frag5-606-34/41815 -- energy: -0.884835
# Creation time: Sat Jun  5 12:52:58 2010


@<TRIPOS>MOLECULE
frag5-606-34/41815 -- energy: -0.884835
   15    15     1     1     1
SMALL
USER_CHARGES


@<TRIPOS>ATOM
      1 C34         9.0411    0.9246    0.6230 C.3        1 <1>        0.000
      2 O14         9.7747   -0.1220    1.1351 O.3        1 <1>        0.000
      3 C35        10.9872   -0.0598    1.7774 C.3        1 <1>        0.000
      4 C36        11.8130    1.1196    1.2623 C.2        1 <1>        0.000
      5 C37        11.2540    1.8888    0.0918 C.3        1 <1>        0.000
      6 C38         9.8227    2.1983    0.3925 C.3        1 <1>        0.000
      7 O15        12.8762    1.4596    1.7990 O.2        1 <1>        0.000
      8 H           8.2689    1.1569    1.3564 H.spc      1 <1>        0.000
      9 H           8.6691    0.6026   -0.3496 H.spc      1 <1>        0.000
     10 H          11.5345   -0.9829    1.5863 H.spc      1 <1>        0.000
     11 H          10.8134    0.0719    2.8454 H.spc      1 <1>        0.000
     12 H          11.3305    1.2983   -0.8212 H.spc      1 <1>        0.000
     13 H          11.8171    2.8096   -0.0605 H.spc      1 <1>        0.000
     14 H           9.7749    2.8104    1.2932 H.spc      1 <1>        0.000
     15 H           9.3903    2.7301   -0.4551 H.spc      1 <1>        0.000
@<TRIPOS>BOND
     1    1    2 1  
     2    1    6 1  
     3    2    3 1  
     4    3    4 1  
     5    4    5 1  
     6    4    7 2  
     7    5    6 1  
     8    1    8 1  
     9    1    9 1  
    10    3   10 1  
    11    3   11 1  
    12    5   12 1  
    13    5   13 1  
    14    6   14 1  
    15    6   15 1  
# Name:          frag5-606-34/41815 -- energy: -0.788153
# Creation time: Sat Jun  5 12:52:58 2010


@<TRIPOS>MOLECULE
frag5-606-34/41815 -- energy: -0.788153
   15    15     1     1     1
SMALL
USER_CHARGES


@<TRIPOS>ATOM
      1 C34         9.2849    0.6630    0.2144 C.3        1 <1>        0.000
      2 O14         9.6856    0.0638    1.4100 O.3        1 <1>        0.000
      3 C35        10.9653   -0.0021    1.9432 C.3        1 <1>        0.000
      4 C36        11.7458    1.1819    1.3842 C.2        1 <1>        0.000
      5 C37        10.9388    2.4042    1.0533 C.3        1 <1>        0.000
      6 C38        10.0022    1.9861   -0.0604 C.3        1 <1>        0.000
      7 O15        12.9463    1.1124    1.1363 O.2        1 <1>        0.000
      8 H           8.2179    0.8729    0.2893 H.spc      1 <1>        0.000
      9 H           9.5280   -0.0217   -0.5981 H.spc      1 <1>        0.000
     10 H          11.4466   -0.9420    1.6730 H.spc      1 <1>        0.000
     11 H          10.9309    0.0394    3.0319 H.spc      1 <1>        0.000
     12 H          11.5780    3.2319    0.7461 H.spc      1 <1>        0.000
     13 H          10.3881    2.7647    1.9221 H.spc      1 <1>        0.000
     14 H           9.2401    2.7594   -0.1568 H.spc      1 <1>        0.000
     15 H          10.6011    1.8544   -0.9616 H.spc      1 <1>        0.000
@<TRIPOS>BOND
     1    1    2 1  
     2    1    6 1  
     3    2    3 1  
     4    3    4 1  
     5    4    5 1  
     6    4    7 2  
     7    5    6 1  
     8    1    8 1  
     9    1    9 1  
    10    3   10 1  
    11    3   11 1  
    12    5   12 1  
    13    5   13 1  
    14    6   14 1  
    15    6   15 1  
