#      Rotatable Fragment
#      Build by yxyuan
#
# Name:          frag5-658-25/41815
# Creation time: Sat Jun  5 12:53:02 2010


@<TRIPOS>MOLECULE
frag5-658-25/41815
   23    23     1     1     1
SMALL
USER_CHARGES


@<TRIPOS>ATOM
      1 Cl1         1.2264    2.9055   -2.2845 Cl         1 <1>        0.000
      2 C1          1.5304    1.5911   -1.1788 C.ar       1 <1>        0.000
      3 N1          0.4827    0.9371   -0.6466 N.ar       1 <1>        0.000
      4 C2          0.6213   -0.0588    0.2375 C.ar       1 <1>        0.000
      5 C3          1.9120   -0.4819    0.5862 C.ar       1 <1>        0.000
      6 N2          2.9719    0.1601    0.0314 N.ar       1 <1>        0.000
      7 C4          2.8277    1.1940   -0.8259 C.ar       1 <1>        0.000
      8 N3          3.9373    1.7988   -1.3029 N.pl3      1 <1>        0.000
      9 N4          2.1706   -1.4873    1.4411 N.pl3      1 <1>        0.000
     10 C5         -0.6386   -0.6761    0.8179 C.2        1 <1>        0.000
     11 O1         -0.5627   -1.2788    1.8758 O.2        1 <1>        0.000
     12 N5         -1.8020   -0.5274    0.1279 N.am       1 <1>        0.000
     13 C6         -3.0635   -0.9742    0.7050 C.2        1 <1>        0.000
     14 N6         -4.0484   -1.3159   -0.1037 N.2        1 <1>        0.000
     15 N7         -3.2661   -0.9150    2.1325 N.pl3      1 <1>        0.000
     16 H           3.8527    2.5822   -1.9506 H.spc      1 <1>        0.000
     17 H           4.8598    1.4721   -1.0154 H.spc      1 <1>        0.000
     18 H           1.4018   -1.9938    1.8802 H.spc      1 <1>        0.000
     19 H           3.1355   -1.7433    1.6504 H.spc      1 <1>        0.000
     20 H          -1.7911   -0.1008   -0.7985 H.spc      1 <1>        0.000
     21 H          -3.9196   -1.2649   -1.1142 H.spc      1 <1>        0.000
     22 H          -4.1794   -1.1388    2.5277 H.spc      1 <1>        0.000
     23 H          -2.4960   -0.6493    2.7463 H.spc      1 <1>        0.000
@<TRIPOS>BOND
     1    2    3 ar 
     2    7    8 1  
     3   10   11 2  
     4    4    5 ar 
     5   12   13 1  
     6    2    7 ar 
     7    6    7 ar 
     8    5    9 1  
     9   10   12 am 
    10   13   14 2  
    11   13   15 1  
    12    5    6 ar 
    13    4   10 1  
    14    1    2 1  
    15    3    4 ar 
    16    8   16 1  
    17    8   17 1  
    18    9   18 1  
    19    9   19 1  
    20   12   20 1  
    21   14   21 1  
    22   15   22 1  
    23   15   23 1  
# Name:          frag5-658-25/41815
# Creation time: Sat Jun  5 12:53:02 2010


@<TRIPOS>MOLECULE
frag5-658-25/41815
   23    23     1     1     1
SMALL
USER_CHARGES


@<TRIPOS>ATOM
      1 Cl1         1.0207    2.3997   -2.6531 Cl         1 <1>        0.000
      2 C1          1.4170    1.3607   -1.3127 C.ar       1 <1>        0.000
      3 N1          0.4339    0.6722   -0.7087 N.ar       1 <1>        0.000
      4 C2          0.6380   -0.1193    0.3480 C.ar       1 <1>        0.000
      5 C3          1.9452   -0.2924    0.8249 C.ar       1 <1>        0.000
      6 N2          2.9478    0.3831    0.2018 N.ar       1 <1>        0.000
      7 C4          2.7293    1.2182   -0.8386 C.ar       1 <1>        0.000
      8 N3          3.7819    1.8753   -1.3696 N.pl3      1 <1>        0.000
      9 N4          2.2784   -1.0817    1.8584 N.pl3      1 <1>        0.000
     10 C5         -0.5670   -0.7972    0.9756 C.2        1 <1>        0.000
     11 O1         -0.4538   -1.9470    1.3710 O.2        1 <1>        0.000
     12 N5         -1.7240   -0.0834    1.0779 N.am       1 <1>        0.000
     13 C6         -2.9927   -0.6880    0.6957 C.2        1 <1>        0.000
     14 N6         -4.0596    0.0824    0.6165 N.2        1 <1>        0.000
     15 N7         -3.0960   -2.1112    0.5259 N.pl3      1 <1>        0.000
     16 H           3.6426    2.5120   -2.1542 H.spc      1 <1>        0.000
     17 H           4.7167    1.7352   -0.9863 H.spc      1 <1>        0.000
     18 H           1.5567   -1.6057    2.3533 H.spc      1 <1>        0.000
     19 H           3.2533   -1.1574    2.1487 H.spc      1 <1>        0.000
     20 H          -1.7011    0.8762    1.4229 H.spc      1 <1>        0.000
     21 H          -3.9854    1.0789    0.8209 H.spc      1 <1>        0.000
     22 H          -4.0037   -2.5382    0.3413 H.spc      1 <1>        0.000
     23 H          -2.2616   -2.6944    0.5899 H.spc      1 <1>        0.000
@<TRIPOS>BOND
     1    2    3 ar 
     2    7    8 1  
     3   10   11 2  
     4    4    5 ar 
     5   12   13 1  
     6    2    7 ar 
     7    6    7 ar 
     8    5    9 1  
     9   10   12 am 
    10   13   14 2  
    11   13   15 1  
    12    5    6 ar 
    13    4   10 1  
    14    1    2 1  
    15    3    4 ar 
    16    8   16 1  
    17    8   17 1  
    18    9   18 1  
    19    9   19 1  
    20   12   20 1  
    21   14   21 1  
    22   15   22 1  
    23   15   23 1  
# Name:          frag5-658-25/41815
# Creation time: Sat Jun  5 12:53:02 2010


@<TRIPOS>MOLECULE
frag5-658-25/41815
   23    23     1     1     1
SMALL
USER_CHARGES


@<TRIPOS>ATOM
      1 Cl1         1.6469    3.1954   -2.0532 Cl         1 <1>        0.000
      2 C1          1.6844    1.7382   -1.0987 C.ar       1 <1>        0.000
      3 N1          0.5545    1.3229   -0.5003 N.ar       1 <1>        0.000
      4 C2          0.4979    0.2407    0.2800 C.ar       1 <1>        0.000
      5 C3          1.6514   -0.5413    0.4433 C.ar       1 <1>        0.000
      6 N2          2.7903   -0.1404   -0.1821 N.ar       1 <1>        0.000
      7 C4          2.8538    0.9818   -0.9325 C.ar       1 <1>        0.000
      8 N3          4.0374    1.3235   -1.4846 N.pl3      1 <1>        0.000
      9 N4          1.7089   -1.6660    1.1753 N.pl3      1 <1>        0.000
     10 C5         -0.8220   -0.0928    0.9529 C.2        1 <1>        0.000
     11 O1         -0.9057    0.0319    2.1648 O.2        1 <1>        0.000
     12 N5         -1.8608   -0.4969    0.1700 N.am       1 <1>        0.000
     13 C6         -2.8577   -1.4201    0.6970 C.2        1 <1>        0.000
     14 N6         -3.7679   -1.9037   -0.1254 N.2        1 <1>        0.000
     15 N7         -2.9126   -1.7018    2.1065 N.pl3      1 <1>        0.000
     16 H           4.1102    2.1669   -2.0536 H.spc      1 <1>        0.000
     17 H           4.8589    0.7382   -1.3328 H.spc      1 <1>        0.000
     18 H           0.8763   -2.0031    1.6585 H.spc      1 <1>        0.000
     19 H           2.5852   -2.1830    1.2480 H.spc      1 <1>        0.000
     20 H          -1.9411   -0.1527   -0.7868 H.spc      1 <1>        0.000
     21 H          -3.7643   -1.6301   -1.1080 H.spc      1 <1>        0.000
     22 H          -3.6626   -2.2825    2.4817 H.spc      1 <1>        0.000
     23 H          -2.2016   -1.3209    2.7308 H.spc      1 <1>        0.000
@<TRIPOS>BOND
     1    2    3 ar 
     2    7    8 1  
     3   10   11 2  
     4    4    5 ar 
     5   12   13 1  
     6    2    7 ar 
     7    6    7 ar 
     8    5    9 1  
     9   10   12 am 
    10   13   14 2  
    11   13   15 1  
    12    5    6 ar 
    13    4   10 1  
    14    1    2 1  
    15    3    4 ar 
    16    8   16 1  
    17    8   17 1  
    18    9   18 1  
    19    9   19 1  
    20   12   20 1  
    21   14   21 1  
    22   15   22 1  
    23   15   23 1  
# Name:          frag5-658-25/41815
# Creation time: Sat Jun  5 12:53:02 2010


@<TRIPOS>MOLECULE
frag5-658-25/41815
   23    23     1     1     1
SMALL
USER_CHARGES


@<TRIPOS>ATOM
      1 Cl1         1.2020    2.5271   -2.6275 Cl         1 <1>        0.000
      2 C1          1.4884    1.4206   -1.3121 C.ar       1 <1>        0.000
      3 N1          0.5001    0.5927   -0.9320 N.ar       1 <1>        0.000
      4 C2          0.6173   -0.2631    0.0879 C.ar       1 <1>        0.000
      5 C3          1.8421   -0.3483    0.7661 C.ar       1 <1>        0.000
      6 N2          2.8531    0.4686    0.3680 N.ar       1 <1>        0.000
      7 C4          2.7150    1.3641   -0.6345 C.ar       1 <1>        0.000
      8 N3          3.7616    2.1615   -0.9371 N.pl3      1 <1>        0.000
      9 N4          2.0887   -1.1886    1.7847 N.pl3      1 <1>        0.000
     10 C5         -0.5927   -1.0984    0.4649 C.2        1 <1>        0.000
     11 O1         -0.4343   -2.0721    1.1847 O.2        1 <1>        0.000
     12 N5         -1.8078   -0.7304   -0.0308 N.am       1 <1>        0.000
     13 C6         -2.9734   -0.6943    0.8423 C.2        1 <1>        0.000
     14 N6         -4.1263   -0.2967    0.3408 N.2        1 <1>        0.000
     15 N7         -2.8348   -0.9712    2.2475 N.pl3      1 <1>        0.000
     16 H           3.6810    2.8451   -1.6898 H.spc      1 <1>        0.000
     17 H           4.6329    2.0803   -0.4130 H.spc      1 <1>        0.000
     18 H           1.3585   -1.8209    2.1124 H.spc      1 <1>        0.000
     19 H           3.0061   -1.1943    2.2304 H.spc      1 <1>        0.000
     20 H          -1.9012   -0.4798   -1.0151 H.spc      1 <1>        0.000
     21 H          -4.1885   -0.0225   -0.6397 H.spc      1 <1>        0.000
     22 H          -3.6349   -0.8607    2.8704 H.spc      1 <1>        0.000
     23 H          -1.9365   -1.2780    2.6207 H.spc      1 <1>        0.000
@<TRIPOS>BOND
     1    2    3 ar 
     2    7    8 1  
     3   10   11 2  
     4    4    5 ar 
     5   12   13 1  
     6    2    7 ar 
     7    6    7 ar 
     8    5    9 1  
     9   10   12 am 
    10   13   14 2  
    11   13   15 1  
    12    5    6 ar 
    13    4   10 1  
    14    1    2 1  
    15    3    4 ar 
    16    8   16 1  
    17    8   17 1  
    18    9   18 1  
    19    9   19 1  
    20   12   20 1  
    21   14   21 1  
    22   15   22 1  
    23   15   23 1  
# Name:          frag5-658-25/41815
# Creation time: Sat Jun  5 12:53:02 2010


@<TRIPOS>MOLECULE
frag5-658-25/41815
   23    23     1     1     1
SMALL
USER_CHARGES


@<TRIPOS>ATOM
      1 Cl1         0.7222    2.7597   -2.1229 Cl         1 <1>        0.000
      2 C1          1.1417    1.4675   -1.0359 C.ar       1 <1>        0.000
      3 N1          0.2233    1.0221   -0.1636 N.ar       1 <1>        0.000
      4 C2          0.4652    0.0628    0.7312 C.ar       1 <1>        0.000
      5 C3          1.7204   -0.5616    0.7368 C.ar       1 <1>        0.000
      6 N2          2.6485   -0.1321   -0.1614 N.ar       1 <1>        0.000
      7 C4          2.4122    0.8710   -1.0364 C.ar       1 <1>        0.000
      8 N3          3.4071    1.2538   -1.8633 N.pl3      1 <1>        0.000
      9 N4          2.0754   -1.5550    1.5647 N.pl3      1 <1>        0.000
     10 C5         -0.6382   -0.3084    1.7003 C.2        1 <1>        0.000
     11 O1         -0.3327   -0.7127    2.8153 O.2        1 <1>        0.000
     12 N5         -1.9315   -0.1592    1.2906 N.am       1 <1>        0.000
     13 C6         -2.3972   -0.8040    0.0750 C.2        1 <1>        0.000
     14 N6         -3.5517   -0.4284   -0.4331 N.2        1 <1>        0.000
     15 N7         -1.6657   -1.9044   -0.4842 N.pl3      1 <1>        0.000
     16 H           3.2537    2.0109   -2.5294 H.spc      1 <1>        0.000
     17 H           4.3127    0.7862   -1.8223 H.spc      1 <1>        0.000
     18 H           1.4103   -1.9075    2.2530 H.spc      1 <1>        0.000
     19 H           3.0105   -1.9581    1.5061 H.spc      1 <1>        0.000
     20 H          -2.5752    0.4087    1.8415 H.spc      1 <1>        0.000
     21 H          -4.0980    0.3005    0.0260 H.spc      1 <1>        0.000
     22 H          -2.0390   -2.4090   -1.2882 H.spc      1 <1>        0.000
     23 H          -0.7723   -2.1821   -0.0778 H.spc      1 <1>        0.000
@<TRIPOS>BOND
     1    2    3 ar 
     2    7    8 1  
     3   10   11 2  
     4    4    5 ar 
     5   12   13 1  
     6    2    7 ar 
     7    6    7 ar 
     8    5    9 1  
     9   10   12 am 
    10   13   14 2  
    11   13   15 1  
    12    5    6 ar 
    13    4   10 1  
    14    1    2 1  
    15    3    4 ar 
    16    8   16 1  
    17    8   17 1  
    18    9   18 1  
    19    9   19 1  
    20   12   20 1  
    21   14   21 1  
    22   15   22 1  
    23   15   23 1  
# Name:          frag5-658-25/41815
# Creation time: Sat Jun  5 12:53:02 2010


@<TRIPOS>MOLECULE
frag5-658-25/41815
   23    23     1     1     1
SMALL
USER_CHARGES


@<TRIPOS>ATOM
      1 Cl1         1.3972    3.3842   -1.3239 Cl         1 <1>        0.000
      2 C1          1.3765    1.7557   -0.7170 C.ar       1 <1>        0.000
      3 N1          0.4473    1.4029    0.1853 N.ar       1 <1>        0.000
      4 C2          0.3772    0.1933    0.7350 C.ar       1 <1>        0.000
      5 C3          1.2738   -0.8007    0.3151 C.ar       1 <1>        0.000
      6 N2          2.2030   -0.4582   -0.6217 N.ar       1 <1>        0.000
      7 C4          2.3015    0.7881   -1.1387 C.ar       1 <1>        0.000
      8 N3          3.2773    1.0362   -2.0356 N.pl3      1 <1>        0.000
      9 N4          1.2894   -2.0622    0.7652 N.pl3      1 <1>        0.000
     10 C5         -0.6831   -0.0601    1.7851 C.2        1 <1>        0.000
     11 O1         -0.6488    0.6087    2.8143 O.2        1 <1>        0.000
     12 N5         -1.6319   -1.0134    1.5489 N.am       1 <1>        0.000
     13 C6         -2.1126   -1.2455    0.1991 C.2        1 <1>        0.000
     14 N6         -2.5197   -2.4534   -0.1193 N.2        1 <1>        0.000
     15 N7         -2.0483   -0.2043   -0.7788 N.pl3      1 <1>        0.000
     16 H           3.3702    1.9663   -2.4439 H.spc      1 <1>        0.000
     17 H           3.9225    0.2938   -2.3057 H.spc      1 <1>        0.000
     18 H           0.6131   -2.3615    1.4676 H.spc      1 <1>        0.000
     19 H           1.9776   -2.7235    0.4055 H.spc      1 <1>        0.000
     20 H          -2.0038   -1.5638    2.3230 H.spc      1 <1>        0.000
     21 H          -2.4930   -3.2001    0.5750 H.spc      1 <1>        0.000
     22 H          -2.3212   -0.3930   -1.7433 H.spc      1 <1>        0.000
     23 H          -1.7295    0.7271   -0.5119 H.spc      1 <1>        0.000
@<TRIPOS>BOND
     1    2    3 ar 
     2    7    8 1  
     3   10   11 2  
     4    4    5 ar 
     5   12   13 1  
     6    2    7 ar 
     7    6    7 ar 
     8    5    9 1  
     9   10   12 am 
    10   13   14 2  
    11   13   15 1  
    12    5    6 ar 
    13    4   10 1  
    14    1    2 1  
    15    3    4 ar 
    16    8   16 1  
    17    8   17 1  
    18    9   18 1  
    19    9   19 1  
    20   12   20 1  
    21   14   21 1  
    22   15   22 1  
    23   15   23 1  
# Name:          frag5-658-25/41815
# Creation time: Sat Jun  5 12:53:02 2010


@<TRIPOS>MOLECULE
frag5-658-25/41815
   23    23     1     1     1
SMALL
USER_CHARGES


@<TRIPOS>ATOM
      1 Cl1         0.9958    3.1712   -1.7096 Cl         1 <1>        0.000
      2 C1          1.2805    1.6549   -0.9030 C.ar       1 <1>        0.000
      3 N1          0.3685    1.1997   -0.0284 N.ar       1 <1>        0.000
      4 C2          0.5185    0.0672    0.6633 C.ar       1 <1>        0.000
      5 C3          1.6528   -0.7243    0.4348 C.ar       1 <1>        0.000
      6 N2          2.5677   -0.2811   -0.4708 N.ar       1 <1>        0.000
      7 C4          2.4327    0.8892   -1.1341 C.ar       1 <1>        0.000
      8 N3          3.4113    1.2633   -1.9850 N.pl3      1 <1>        0.000
      9 N4          1.9016   -1.8941    1.0427 N.pl3      1 <1>        0.000
     10 C5         -0.5540   -0.3099    1.6648 C.2        1 <1>        0.000
     11 O1         -0.2144   -0.7892    2.7386 O.2        1 <1>        0.000
     12 N5         -1.8582   -0.0761    1.3340 N.am       1 <1>        0.000
     13 C6         -2.5162   -0.8933    0.3283 C.2        1 <1>        0.000
     14 N6         -1.9602   -2.0057   -0.0776 N.2        1 <1>        0.000
     15 N7         -3.7274   -0.4005   -0.2850 N.pl3      1 <1>        0.000
     16 H           3.3332    2.1417   -2.4975 H.spc      1 <1>        0.000
     17 H           4.2289    0.6676   -2.1155 H.spc      1 <1>        0.000
     18 H           1.2406   -2.2648    1.7254 H.spc      1 <1>        0.000
     19 H           2.7518   -2.4128    0.8222 H.spc      1 <1>        0.000
     20 H          -2.3724    0.6749    1.7945 H.spc      1 <1>        0.000
     21 H          -1.0645   -2.2998    0.3118 H.spc      1 <1>        0.000
     22 H          -4.1620   -0.9217   -1.0465 H.spc      1 <1>        0.000
     23 H          -4.1482    0.4687    0.0434 H.spc      1 <1>        0.000
@<TRIPOS>BOND
     1    2    3 ar 
     2    7    8 1  
     3   10   11 2  
     4    4    5 ar 
     5   12   13 1  
     6    2    7 ar 
     7    6    7 ar 
     8    5    9 1  
     9   10   12 am 
    10   13   14 2  
    11   13   15 1  
    12    5    6 ar 
    13    4   10 1  
    14    1    2 1  
    15    3    4 ar 
    16    8   16 1  
    17    8   17 1  
    18    9   18 1  
    19    9   19 1  
    20   12   20 1  
    21   14   21 1  
    22   15   22 1  
    23   15   23 1  
# Name:          frag5-658-25/41815 -- energy: -0.385102
# Creation time: Sat Jun  5 12:53:02 2010


@<TRIPOS>MOLECULE
frag5-658-25/41815 -- energy: -0.385102
   23    23     1     1     1
SMALL
USER_CHARGES


@<TRIPOS>ATOM
      1 Cl1         1.2264    2.9055   -2.2845 Cl         1 <1>        0.000
      2 C1          1.5304    1.5911   -1.1788 C.ar       1 <1>        0.000
      3 N1          0.4827    0.9371   -0.6466 N.ar       1 <1>        0.000
      4 C2          0.6213   -0.0588    0.2375 C.ar       1 <1>        0.000
      5 C3          1.9120   -0.4819    0.5862 C.ar       1 <1>        0.000
      6 N2          2.9719    0.1601    0.0314 N.ar       1 <1>        0.000
      7 C4          2.8277    1.1940   -0.8259 C.ar       1 <1>        0.000
      8 N3          3.9373    1.7988   -1.3029 N.pl3      1 <1>        0.000
      9 N4          2.1706   -1.4873    1.4411 N.pl3      1 <1>        0.000
     10 C5         -0.6386   -0.6761    0.8179 C.2        1 <1>        0.000
     11 O1         -0.5627   -1.2788    1.8758 O.2        1 <1>        0.000
     12 N5         -1.8020   -0.5274    0.1279 N.am       1 <1>        0.000
     13 C6         -3.0635   -0.9742    0.7050 C.2        1 <1>        0.000
     14 N6         -4.0484   -1.3159   -0.1037 N.2        1 <1>        0.000
     15 N7         -3.2661   -0.9150    2.1325 N.pl3      1 <1>        0.000
     16 H           3.8527    2.5822   -1.9506 H.spc      1 <1>        0.000
     17 H           4.8598    1.4721   -1.0154 H.spc      1 <1>        0.000
     18 H           1.4018   -1.9938    1.8802 H.spc      1 <1>        0.000
     19 H           3.1355   -1.7433    1.6504 H.spc      1 <1>        0.000
     20 H          -1.7911   -0.1008   -0.7985 H.spc      1 <1>        0.000
     21 H          -3.9196   -1.2649   -1.1142 H.spc      1 <1>        0.000
     22 H          -4.1794   -1.1388    2.5277 H.spc      1 <1>        0.000
     23 H          -2.4960   -0.6493    2.7463 H.spc      1 <1>        0.000
@<TRIPOS>BOND
     1    2    3 ar 
     2    7    8 1  
     3   10   11 2  
     4    4    5 ar 
     5   12   13 1  
     6    2    7 ar 
     7    6    7 ar 
     8    5    9 1  
     9   10   12 am 
    10   13   14 2  
    11   13   15 1  
    12    5    6 ar 
    13    4   10 1  
    14    1    2 1  
    15    3    4 ar 
    16    8   16 1  
    17    8   17 1  
    18    9   18 1  
    19    9   19 1  
    20   12   20 1  
    21   14   21 1  
    22   15   22 1  
    23   15   23 1  
# Name:          frag5-658-25/41815 -- energy: -0.863948
# Creation time: Sat Jun  5 12:53:02 2010


@<TRIPOS>MOLECULE
frag5-658-25/41815 -- energy: -0.863948
   23    23     1     1     1
SMALL
USER_CHARGES


@<TRIPOS>ATOM
      1 Cl1         1.0207    2.3997   -2.6531 Cl         1 <1>        0.000
      2 C1          1.4170    1.3607   -1.3127 C.ar       1 <1>        0.000
      3 N1          0.4339    0.6722   -0.7087 N.ar       1 <1>        0.000
      4 C2          0.6380   -0.1193    0.3480 C.ar       1 <1>        0.000
      5 C3          1.9452   -0.2924    0.8249 C.ar       1 <1>        0.000
      6 N2          2.9478    0.3831    0.2018 N.ar       1 <1>        0.000
      7 C4          2.7293    1.2182   -0.8386 C.ar       1 <1>        0.000
      8 N3          3.7819    1.8753   -1.3696 N.pl3      1 <1>        0.000
      9 N4          2.2784   -1.0817    1.8584 N.pl3      1 <1>        0.000
     10 C5         -0.5670   -0.7972    0.9756 C.2        1 <1>        0.000
     11 O1         -0.4538   -1.9470    1.3710 O.2        1 <1>        0.000
     12 N5         -1.7240   -0.0834    1.0779 N.am       1 <1>        0.000
     13 C6         -2.9927   -0.6880    0.6957 C.2        1 <1>        0.000
     14 N6         -4.0596    0.0824    0.6165 N.2        1 <1>        0.000
     15 N7         -3.0960   -2.1112    0.5259 N.pl3      1 <1>        0.000
     16 H           3.6426    2.5120   -2.1542 H.spc      1 <1>        0.000
     17 H           4.7167    1.7352   -0.9863 H.spc      1 <1>        0.000
     18 H           1.5567   -1.6057    2.3533 H.spc      1 <1>        0.000
     19 H           3.2533   -1.1574    2.1487 H.spc      1 <1>        0.000
     20 H          -1.7011    0.8762    1.4229 H.spc      1 <1>        0.000
     21 H          -3.9854    1.0789    0.8209 H.spc      1 <1>        0.000
     22 H          -4.0037   -2.5382    0.3413 H.spc      1 <1>        0.000
     23 H          -2.2616   -2.6944    0.5899 H.spc      1 <1>        0.000
@<TRIPOS>BOND
     1    2    3 ar 
     2    7    8 1  
     3   10   11 2  
     4    4    5 ar 
     5   12   13 1  
     6    2    7 ar 
     7    6    7 ar 
     8    5    9 1  
     9   10   12 am 
    10   13   14 2  
    11   13   15 1  
    12    5    6 ar 
    13    4   10 1  
    14    1    2 1  
    15    3    4 ar 
    16    8   16 1  
    17    8   17 1  
    18    9   18 1  
    19    9   19 1  
    20   12   20 1  
    21   14   21 1  
    22   15   22 1  
    23   15   23 1  
# Name:          frag5-658-25/41815 -- energy: 0.721718
# Creation time: Sat Jun  5 12:53:02 2010


@<TRIPOS>MOLECULE
frag5-658-25/41815 -- energy: 0.721718
   23    23     1     1     1
SMALL
USER_CHARGES


@<TRIPOS>ATOM
      1 Cl1         1.6469    3.1954   -2.0532 Cl         1 <1>        0.000
      2 C1          1.6844    1.7382   -1.0987 C.ar       1 <1>        0.000
      3 N1          0.5545    1.3229   -0.5003 N.ar       1 <1>        0.000
      4 C2          0.4979    0.2407    0.2800 C.ar       1 <1>        0.000
      5 C3          1.6514   -0.5413    0.4433 C.ar       1 <1>        0.000
      6 N2          2.7903   -0.1404   -0.1821 N.ar       1 <1>        0.000
      7 C4          2.8538    0.9818   -0.9325 C.ar       1 <1>        0.000
      8 N3          4.0374    1.3235   -1.4846 N.pl3      1 <1>        0.000
      9 N4          1.7089   -1.6660    1.1753 N.pl3      1 <1>        0.000
     10 C5         -0.8220   -0.0928    0.9529 C.2        1 <1>        0.000
     11 O1         -0.9057    0.0319    2.1648 O.2        1 <1>        0.000
     12 N5         -1.8608   -0.4969    0.1700 N.am       1 <1>        0.000
     13 C6         -2.8577   -1.4201    0.6970 C.2        1 <1>        0.000
     14 N6         -3.7679   -1.9037   -0.1254 N.2        1 <1>        0.000
     15 N7         -2.9126   -1.7018    2.1065 N.pl3      1 <1>        0.000
     16 H           4.1102    2.1669   -2.0536 H.spc      1 <1>        0.000
     17 H           4.8589    0.7382   -1.3328 H.spc      1 <1>        0.000
     18 H           0.8763   -2.0031    1.6585 H.spc      1 <1>        0.000
     19 H           2.5852   -2.1830    1.2480 H.spc      1 <1>        0.000
     20 H          -1.9411   -0.1527   -0.7868 H.spc      1 <1>        0.000
     21 H          -3.7643   -1.6301   -1.1080 H.spc      1 <1>        0.000
     22 H          -3.6626   -2.2825    2.4817 H.spc      1 <1>        0.000
     23 H          -2.2016   -1.3209    2.7308 H.spc      1 <1>        0.000
@<TRIPOS>BOND
     1    2    3 ar 
     2    7    8 1  
     3   10   11 2  
     4    4    5 ar 
     5   12   13 1  
     6    2    7 ar 
     7    6    7 ar 
     8    5    9 1  
     9   10   12 am 
    10   13   14 2  
    11   13   15 1  
    12    5    6 ar 
    13    4   10 1  
    14    1    2 1  
    15    3    4 ar 
    16    8   16 1  
    17    8   17 1  
    18    9   18 1  
    19    9   19 1  
    20   12   20 1  
    21   14   21 1  
    22   15   22 1  
    23   15   23 1  
# Name:          frag5-658-25/41815 -- energy: -0.042517
# Creation time: Sat Jun  5 12:53:02 2010


@<TRIPOS>MOLECULE
frag5-658-25/41815 -- energy: -0.042517
   23    23     1     1     1
SMALL
USER_CHARGES


@<TRIPOS>ATOM
      1 Cl1         1.2020    2.5271   -2.6275 Cl         1 <1>        0.000
      2 C1          1.4884    1.4206   -1.3121 C.ar       1 <1>        0.000
      3 N1          0.5001    0.5927   -0.9320 N.ar       1 <1>        0.000
      4 C2          0.6173   -0.2631    0.0879 C.ar       1 <1>        0.000
      5 C3          1.8421   -0.3483    0.7661 C.ar       1 <1>        0.000
      6 N2          2.8531    0.4686    0.3680 N.ar       1 <1>        0.000
      7 C4          2.7150    1.3641   -0.6345 C.ar       1 <1>        0.000
      8 N3          3.7616    2.1615   -0.9371 N.pl3      1 <1>        0.000
      9 N4          2.0887   -1.1886    1.7847 N.pl3      1 <1>        0.000
     10 C5         -0.5927   -1.0984    0.4649 C.2        1 <1>        0.000
     11 O1         -0.4343   -2.0721    1.1847 O.2        1 <1>        0.000
     12 N5         -1.8078   -0.7304   -0.0308 N.am       1 <1>        0.000
     13 C6         -2.9734   -0.6943    0.8423 C.2        1 <1>        0.000
     14 N6         -4.1263   -0.2967    0.3408 N.2        1 <1>        0.000
     15 N7         -2.8348   -0.9712    2.2475 N.pl3      1 <1>        0.000
     16 H           3.6810    2.8451   -1.6898 H.spc      1 <1>        0.000
     17 H           4.6329    2.0803   -0.4130 H.spc      1 <1>        0.000
     18 H           1.3585   -1.8209    2.1124 H.spc      1 <1>        0.000
     19 H           3.0061   -1.1943    2.2304 H.spc      1 <1>        0.000
     20 H          -1.9012   -0.4798   -1.0151 H.spc      1 <1>        0.000
     21 H          -4.1885   -0.0225   -0.6397 H.spc      1 <1>        0.000
     22 H          -3.6349   -0.8607    2.8704 H.spc      1 <1>        0.000
     23 H          -1.9365   -1.2780    2.6207 H.spc      1 <1>        0.000
@<TRIPOS>BOND
     1    2    3 ar 
     2    7    8 1  
     3   10   11 2  
     4    4    5 ar 
     5   12   13 1  
     6    2    7 ar 
     7    6    7 ar 
     8    5    9 1  
     9   10   12 am 
    10   13   14 2  
    11   13   15 1  
    12    5    6 ar 
    13    4   10 1  
    14    1    2 1  
    15    3    4 ar 
    16    8   16 1  
    17    8   17 1  
    18    9   18 1  
    19    9   19 1  
    20   12   20 1  
    21   14   21 1  
    22   15   22 1  
    23   15   23 1  
# Name:          frag5-658-25/41815 -- energy: -2.155654
# Creation time: Sat Jun  5 12:53:02 2010


@<TRIPOS>MOLECULE
frag5-658-25/41815 -- energy: -2.155654
   23    23     1     1     1
SMALL
USER_CHARGES


@<TRIPOS>ATOM
      1 Cl1         0.7222    2.7597   -2.1229 Cl         1 <1>        0.000
      2 C1          1.1417    1.4675   -1.0359 C.ar       1 <1>        0.000
      3 N1          0.2233    1.0221   -0.1636 N.ar       1 <1>        0.000
      4 C2          0.4652    0.0628    0.7312 C.ar       1 <1>        0.000
      5 C3          1.7204   -0.5616    0.7368 C.ar       1 <1>        0.000
      6 N2          2.6485   -0.1321   -0.1614 N.ar       1 <1>        0.000
      7 C4          2.4122    0.8710   -1.0364 C.ar       1 <1>        0.000
      8 N3          3.4071    1.2538   -1.8633 N.pl3      1 <1>        0.000
      9 N4          2.0754   -1.5550    1.5647 N.pl3      1 <1>        0.000
     10 C5         -0.6382   -0.3084    1.7003 C.2        1 <1>        0.000
     11 O1         -0.3327   -0.7127    2.8153 O.2        1 <1>        0.000
     12 N5         -1.9315   -0.1592    1.2906 N.am       1 <1>        0.000
     13 C6         -2.3972   -0.8040    0.0750 C.2        1 <1>        0.000
     14 N6         -3.5517   -0.4284   -0.4331 N.2        1 <1>        0.000
     15 N7         -1.6657   -1.9044   -0.4842 N.pl3      1 <1>        0.000
     16 H           3.2537    2.0109   -2.5294 H.spc      1 <1>        0.000
     17 H           4.3127    0.7862   -1.8223 H.spc      1 <1>        0.000
     18 H           1.4103   -1.9075    2.2530 H.spc      1 <1>        0.000
     19 H           3.0105   -1.9581    1.5061 H.spc      1 <1>        0.000
     20 H          -2.5752    0.4087    1.8415 H.spc      1 <1>        0.000
     21 H          -4.0980    0.3005    0.0260 H.spc      1 <1>        0.000
     22 H          -2.0390   -2.4090   -1.2882 H.spc      1 <1>        0.000
     23 H          -0.7723   -2.1821   -0.0778 H.spc      1 <1>        0.000
@<TRIPOS>BOND
     1    2    3 ar 
     2    7    8 1  
     3   10   11 2  
     4    4    5 ar 
     5   12   13 1  
     6    2    7 ar 
     7    6    7 ar 
     8    5    9 1  
     9   10   12 am 
    10   13   14 2  
    11   13   15 1  
    12    5    6 ar 
    13    4   10 1  
    14    1    2 1  
    15    3    4 ar 
    16    8   16 1  
    17    8   17 1  
    18    9   18 1  
    19    9   19 1  
    20   12   20 1  
    21   14   21 1  
    22   15   22 1  
    23   15   23 1  
# Name:          frag5-658-25/41815 -- energy: -2.821928
# Creation time: Sat Jun  5 12:53:02 2010


@<TRIPOS>MOLECULE
frag5-658-25/41815 -- energy: -2.821928
   23    23     1     1     1
SMALL
USER_CHARGES


@<TRIPOS>ATOM
      1 Cl1         1.3972    3.3842   -1.3239 Cl         1 <1>        0.000
      2 C1          1.3765    1.7557   -0.7170 C.ar       1 <1>        0.000
      3 N1          0.4473    1.4029    0.1853 N.ar       1 <1>        0.000
      4 C2          0.3772    0.1933    0.7350 C.ar       1 <1>        0.000
      5 C3          1.2738   -0.8007    0.3151 C.ar       1 <1>        0.000
      6 N2          2.2030   -0.4582   -0.6217 N.ar       1 <1>        0.000
      7 C4          2.3015    0.7881   -1.1387 C.ar       1 <1>        0.000
      8 N3          3.2773    1.0362   -2.0356 N.pl3      1 <1>        0.000
      9 N4          1.2894   -2.0622    0.7652 N.pl3      1 <1>        0.000
     10 C5         -0.6831   -0.0601    1.7851 C.2        1 <1>        0.000
     11 O1         -0.6488    0.6087    2.8143 O.2        1 <1>        0.000
     12 N5         -1.6319   -1.0134    1.5489 N.am       1 <1>        0.000
     13 C6         -2.1126   -1.2455    0.1991 C.2        1 <1>        0.000
     14 N6         -2.5197   -2.4534   -0.1193 N.2        1 <1>        0.000
     15 N7         -2.0483   -0.2043   -0.7788 N.pl3      1 <1>        0.000
     16 H           3.3702    1.9663   -2.4439 H.spc      1 <1>        0.000
     17 H           3.9225    0.2938   -2.3057 H.spc      1 <1>        0.000
     18 H           0.6131   -2.3615    1.4676 H.spc      1 <1>        0.000
     19 H           1.9776   -2.7235    0.4055 H.spc      1 <1>        0.000
     20 H          -2.0038   -1.5638    2.3230 H.spc      1 <1>        0.000
     21 H          -2.4930   -3.2001    0.5750 H.spc      1 <1>        0.000
     22 H          -2.3212   -0.3930   -1.7433 H.spc      1 <1>        0.000
     23 H          -1.7295    0.7271   -0.5119 H.spc      1 <1>        0.000
@<TRIPOS>BOND
     1    2    3 ar 
     2    7    8 1  
     3   10   11 2  
     4    4    5 ar 
     5   12   13 1  
     6    2    7 ar 
     7    6    7 ar 
     8    5    9 1  
     9   10   12 am 
    10   13   14 2  
    11   13   15 1  
    12    5    6 ar 
    13    4   10 1  
    14    1    2 1  
    15    3    4 ar 
    16    8   16 1  
    17    8   17 1  
    18    9   18 1  
    19    9   19 1  
    20   12   20 1  
    21   14   21 1  
    22   15   22 1  
    23   15   23 1  
# Name:          frag5-658-25/41815 -- energy: -2.277232
# Creation time: Sat Jun  5 12:53:02 2010


@<TRIPOS>MOLECULE
frag5-658-25/41815 -- energy: -2.277232
   23    23     1     1     1
SMALL
USER_CHARGES


@<TRIPOS>ATOM
      1 Cl1         0.9958    3.1712   -1.7096 Cl         1 <1>        0.000
      2 C1          1.2805    1.6549   -0.9030 C.ar       1 <1>        0.000
      3 N1          0.3685    1.1997   -0.0284 N.ar       1 <1>        0.000
      4 C2          0.5185    0.0672    0.6633 C.ar       1 <1>        0.000
      5 C3          1.6528   -0.7243    0.4348 C.ar       1 <1>        0.000
      6 N2          2.5677   -0.2811   -0.4708 N.ar       1 <1>        0.000
      7 C4          2.4327    0.8892   -1.1341 C.ar       1 <1>        0.000
      8 N3          3.4113    1.2633   -1.9850 N.pl3      1 <1>        0.000
      9 N4          1.9016   -1.8941    1.0427 N.pl3      1 <1>        0.000
     10 C5         -0.5540   -0.3099    1.6648 C.2        1 <1>        0.000
     11 O1         -0.2144   -0.7892    2.7386 O.2        1 <1>        0.000
     12 N5         -1.8582   -0.0761    1.3340 N.am       1 <1>        0.000
     13 C6         -2.5162   -0.8933    0.3283 C.2        1 <1>        0.000
     14 N6         -1.9602   -2.0057   -0.0776 N.2        1 <1>        0.000
     15 N7         -3.7274   -0.4005   -0.2850 N.pl3      1 <1>        0.000
     16 H           3.3332    2.1417   -2.4975 H.spc      1 <1>        0.000
     17 H           4.2289    0.6676   -2.1155 H.spc      1 <1>        0.000
     18 H           1.2406   -2.2648    1.7254 H.spc      1 <1>        0.000
     19 H           2.7518   -2.4128    0.8222 H.spc      1 <1>        0.000
     20 H          -2.3724    0.6749    1.7945 H.spc      1 <1>        0.000
     21 H          -1.0645   -2.2998    0.3118 H.spc      1 <1>        0.000
     22 H          -4.1620   -0.9217   -1.0465 H.spc      1 <1>        0.000
     23 H          -4.1482    0.4687    0.0434 H.spc      1 <1>        0.000
@<TRIPOS>BOND
     1    2    3 ar 
     2    7    8 1  
     3   10   11 2  
     4    4    5 ar 
     5   12   13 1  
     6    2    7 ar 
     7    6    7 ar 
     8    5    9 1  
     9   10   12 am 
    10   13   14 2  
    11   13   15 1  
    12    5    6 ar 
    13    4   10 1  
    14    1    2 1  
    15    3    4 ar 
    16    8   16 1  
    17    8   17 1  
    18    9   18 1  
    19    9   19 1  
    20   12   20 1  
    21   14   21 1  
    22   15   22 1  
    23   15   23 1  
