#      Rotatable Fragment
#      Build by yxyuan
#
# Name:          frag3-285-2/31924
# Creation time: Sat Jun  5 12:52:45 2010


@<TRIPOS>MOLECULE
frag3-285-2/31924
    7     6     1     1     1
SMALL
USER_CHARGES


@<TRIPOS>ATOM
      1 F1          0.3693    1.5854    0.6116 F          1 <1>        0.000
      2 P1          0.1360    0.0660    0.5117 P.3        1 <1>        0.000
      3 O1          0.3707   -0.5637    1.7790 O.2        1 <1>        0.000
      4 O2         -1.3389   -0.2006    0.0269 O.3        1 <1>        0.000
      5 O3          1.0969   -0.5123   -0.5971 O.3        1 <1>        0.000
      6 H          -1.4781    0.2273   -0.8211 H.spc      1 <1>        0.000
      7 H           0.9191   -0.0748   -1.4329 H.spc      1 <1>        0.000
@<TRIPOS>BOND
     1    1    2 1  
     2    2    4 1  
     3    2    3 2  
     4    2    5 1  
     5    4    6 1  
     6    5    7 1  
# Name:          frag3-285-2/31924 -- energy: -0.214568
# Creation time: Sat Jun  5 12:52:45 2010


@<TRIPOS>MOLECULE
frag3-285-2/31924 -- energy: -0.214568
    7     6     1     1     1
SMALL
USER_CHARGES


@<TRIPOS>ATOM
      1 F1          0.3693    1.5854    0.6116 F          1 <1>        0.000
      2 P1          0.1360    0.0660    0.5117 P.3        1 <1>        0.000
      3 O1          0.3707   -0.5637    1.7790 O.2        1 <1>        0.000
      4 O2         -1.3389   -0.2006    0.0269 O.3        1 <1>        0.000
      5 O3          1.0969   -0.5123   -0.5971 O.3        1 <1>        0.000
      6 H          -1.4781    0.2273   -0.8211 H.spc      1 <1>        0.000
      7 H           0.9191   -0.0748   -1.4329 H.spc      1 <1>        0.000
@<TRIPOS>BOND
     1    1    2 1  
     2    2    4 1  
     3    2    3 2  
     4    2    5 1  
     5    4    6 1  
     6    5    7 1  
