#      Rotatable Fragment
#      Build by yxyuan
#
# Name:          frag4-439-44/48856
# Creation time: Sat Jun  5 12:52:47 2010


@<TRIPOS>MOLECULE
frag4-439-44/48856
   14    14     1     1     1
SMALL
USER_CHARGES


@<TRIPOS>ATOM
      1 N2          3.3489    0.7116    0.0589 N.3        1 <1>        0.000
      2 C11         4.5984    1.1667   -0.3612 C.3        1 <1>        0.000
      3 C12         5.2280    2.0347    0.6610 C.3        1 <1>        0.000
      4 C13         4.2054    2.0763    1.8048 C.3        1 <1>        0.000
      5 C14         3.0884    1.2283    1.3279 C.3        1 <1>        0.000
      6 H           3.3447   -0.3078    0.0923 H.spc      1 <1>        0.000
      7 H           4.4669    1.7465   -1.2748 H.spc      1 <1>        0.000
      8 H           5.2433    0.3040   -0.5281 H.spc      1 <1>        0.000
      9 H           5.4515    3.0288    0.2740 H.spc      1 <1>        0.000
     10 H           6.1939    1.6497    0.9878 H.spc      1 <1>        0.000
     11 H           3.8821    3.0927    2.0295 H.spc      1 <1>        0.000
     12 H           4.6244    1.7134    2.7433 H.spc      1 <1>        0.000
     13 H           2.9638    0.3969    2.0217 H.spc      1 <1>        0.000
     14 H           2.1875    1.8395    1.2749 H.spc      1 <1>        0.000
@<TRIPOS>BOND
     1    1    2 1  
     2    1    5 1  
     3    2    3 1  
     4    3    4 1  
     5    4    5 1  
     6    1    6 1  
     7    2    7 1  
     8    2    8 1  
     9    3    9 1  
    10    3   10 1  
    11    4   11 1  
    12    4   12 1  
    13    5   13 1  
    14    5   14 1  
# Name:          frag4-439-44/48856 -- energy: -0.782459
# Creation time: Sat Jun  5 12:52:47 2010


@<TRIPOS>MOLECULE
frag4-439-44/48856 -- energy: -0.782459
   14    14     1     1     1
SMALL
USER_CHARGES


@<TRIPOS>ATOM
      1 N2          3.3489    0.7116    0.0589 N.3        1 <1>        0.000
      2 C11         4.5984    1.1667   -0.3612 C.3        1 <1>        0.000
      3 C12         5.2280    2.0347    0.6610 C.3        1 <1>        0.000
      4 C13         4.2054    2.0763    1.8048 C.3        1 <1>        0.000
      5 C14         3.0884    1.2283    1.3279 C.3        1 <1>        0.000
      6 H           3.3447   -0.3078    0.0923 H.spc      1 <1>        0.000
      7 H           4.4669    1.7465   -1.2748 H.spc      1 <1>        0.000
      8 H           5.2433    0.3040   -0.5281 H.spc      1 <1>        0.000
      9 H           5.4515    3.0288    0.2740 H.spc      1 <1>        0.000
     10 H           6.1939    1.6497    0.9878 H.spc      1 <1>        0.000
     11 H           3.8821    3.0927    2.0295 H.spc      1 <1>        0.000
     12 H           4.6244    1.7134    2.7433 H.spc      1 <1>        0.000
     13 H           2.9638    0.3969    2.0217 H.spc      1 <1>        0.000
     14 H           2.1875    1.8395    1.2749 H.spc      1 <1>        0.000
@<TRIPOS>BOND
     1    1    2 1  
     2    1    5 1  
     3    2    3 1  
     4    3    4 1  
     5    4    5 1  
     6    1    6 1  
     7    2    7 1  
     8    2    8 1  
     9    3    9 1  
    10    3   10 1  
    11    4   11 1  
    12    4   12 1  
    13    5   13 1  
    14    5   14 1  
