#      Rotatable Fragment
#      Build by yxyuan
#
# Name:          frag3-172-9/31924
# Creation time: Sat Jun  5 12:52:06 2010


@<TRIPOS>MOLECULE
frag3-172-9/31924
    4     3     1     1     1
SMALL
USER_CHARGES


@<TRIPOS>ATOM
      1 S1         -0.8572   -0.6346   -0.0079 S.3        1 <1>        0.000
      2 N1          0.8541   -0.5562    0.0105 N.2        1 <1>        0.000
      3 O1          1.3401   -1.4770   -0.6335 O.2        1 <1>        0.000
      4 H          -1.3534    0.3770    0.6988 H.spc      1 <1>        0.000
@<TRIPOS>BOND
     1    1    2 1  
     2    2    3 2  
     3    1    4 1  
# Name:          frag3-172-9/31924 -- energy: -0.013062
# Creation time: Sat Jun  5 12:52:06 2010


@<TRIPOS>MOLECULE
frag3-172-9/31924 -- energy: -0.013062
    4     3     1     1     1
SMALL
USER_CHARGES


@<TRIPOS>ATOM
      1 S1         -0.8572   -0.6346   -0.0079 S.3        1 <1>        0.000
      2 N1          0.8541   -0.5562    0.0105 N.2        1 <1>        0.000
      3 O1          1.3401   -1.4770   -0.6335 O.2        1 <1>        0.000
      4 H          -1.3534    0.3770    0.6988 H.spc      1 <1>        0.000
@<TRIPOS>BOND
     1    1    2 1  
     2    2    3 2  
     3    1    4 1  
