#      Rotatable Fragment
#      Build by yxyuan
#
# Name:          frag5-598-111/138278
# Creation time: Sat Jun  5 12:53:46 2010


@<TRIPOS>MOLECULE
frag5-598-111/138278
   21    21     1     1     1
SMALL
USER_CHARGES


@<TRIPOS>ATOM
      1 N1         -3.0657    0.3399    0.5664 N.am       1 <1>        0.000
      2 C1         -4.1415    1.3334    0.4599 C.3        1 <1>        0.000
      3 C2         -3.3845   -0.9121    1.2620 C.3        1 <1>        0.000
      4 C3         -1.8770    0.5752   -0.0667 C.2        1 <1>        0.000
      5 C4         -5.2661    0.6782   -0.3748 C.3        1 <1>        0.000
      6 C5         -4.4765   -1.6161    0.4249 C.3        1 <1>        0.000
      7 N2         -1.6808    1.4760   -1.0592 N.am       1 <1>        0.000
      8 O1         -0.8867   -0.0606    0.2784 O.2        1 <1>        0.000
      9 C6         -5.6950   -0.6698    0.2586 C.3        1 <1>        0.000
     10 H          -3.7834    2.2457   -0.0172 H.spc      1 <1>        0.000
     11 H          -4.5055    1.6206    1.4464 H.spc      1 <1>        0.000
     12 H          -2.4996   -1.5416    1.3561 H.spc      1 <1>        0.000
     13 H          -3.7361   -0.7162    2.2750 H.spc      1 <1>        0.000
     14 H          -6.1257    1.3480   -0.3994 H.spc      1 <1>        0.000
     15 H          -4.8977    0.4946   -1.3841 H.spc      1 <1>        0.000
     16 H          -4.0753   -1.8663   -0.5572 H.spc      1 <1>        0.000
     17 H          -4.7919   -2.5271    0.9335 H.spc      1 <1>        0.000
     18 H          -0.7536    1.5898   -1.4687 H.spc      1 <1>        0.000
     19 H          -2.4603    2.0405   -1.3970 H.spc      1 <1>        0.000
     20 H          -6.1238   -0.4745    1.2415 H.spc      1 <1>        0.000
     21 H          -6.4237   -1.1484   -0.3957 H.spc      1 <1>        0.000
@<TRIPOS>BOND
     1    6    9 1  
     2    5    9 1  
     3    4    8 2  
     4    4    7 am 
     5    3    6 1  
     6    1    2 1  
     7    1    3 1  
     8    1    4 am 
     9    2    5 1  
    10    2   10 1  
    11    2   11 1  
    12    3   12 1  
    13    3   13 1  
    14    5   14 1  
    15    5   15 1  
    16    6   16 1  
    17    6   17 1  
    18    7   18 1  
    19    7   19 1  
    20    9   20 1  
    21    9   21 1  
# Name:          frag5-598-111/138278
# Creation time: Sat Jun  5 12:53:46 2010


@<TRIPOS>MOLECULE
frag5-598-111/138278
   21    21     1     1     1
SMALL
USER_CHARGES


@<TRIPOS>ATOM
      1 N1         -3.0637   -0.0043   -0.2178 N.am       1 <1>        0.000
      2 C1         -3.3338   -1.3184    0.3735 C.3        1 <1>        0.000
      3 C2         -4.1579    0.6198   -0.9746 C.3        1 <1>        0.000
      4 C3         -1.8797    0.6242    0.0446 C.2        1 <1>        0.000
      5 C4         -4.4647   -1.1068    1.4053 C.3        1 <1>        0.000
      6 C5         -5.3021    0.8761    0.0300 C.3        1 <1>        0.000
      7 N2         -1.6736    1.9610    0.0136 N.am       1 <1>        0.000
      8 O1         -0.9025   -0.0581    0.3424 O.2        1 <1>        0.000
      9 C6         -5.6958   -0.4496    0.7325 C.3        1 <1>        0.000
     10 H          -2.4411   -1.7250    0.8487 H.spc      1 <1>        0.000
     11 H          -3.6297   -2.0380   -0.3898 H.spc      1 <1>        0.000
     12 H          -3.8295    1.5514   -1.4354 H.spc      1 <1>        0.000
     13 H          -4.4901   -0.0299   -1.7843 H.spc      1 <1>        0.000
     14 H          -4.7579   -2.0741    1.8132 H.spc      1 <1>        0.000
     15 H          -4.1029   -0.4526    2.1985 H.spc      1 <1>        0.000
     16 H          -4.9684    1.5942    0.7790 H.spc      1 <1>        0.000
     17 H          -6.1669    1.2705   -0.5035 H.spc      1 <1>        0.000
     18 H          -0.7516    2.3400    0.2298 H.spc      1 <1>        0.000
     19 H          -2.4402    2.5898   -0.2259 H.spc      1 <1>        0.000
     20 H          -6.0950   -1.1363   -0.0140 H.spc      1 <1>        0.000
     21 H          -6.4394   -0.2321    1.4993 H.spc      1 <1>        0.000
@<TRIPOS>BOND
     1    6    9 1  
     2    5    9 1  
     3    4    8 2  
     4    4    7 am 
     5    3    6 1  
     6    1    2 1  
     7    1    3 1  
     8    1    4 am 
     9    2    5 1  
    10    2   10 1  
    11    2   11 1  
    12    3   12 1  
    13    3   13 1  
    14    5   14 1  
    15    5   15 1  
    16    6   16 1  
    17    6   17 1  
    18    7   18 1  
    19    7   19 1  
    20    9   20 1  
    21    9   21 1  
# Name:          frag5-598-111/138278
# Creation time: Sat Jun  5 12:53:46 2010


@<TRIPOS>MOLECULE
frag5-598-111/138278
   21    21     1     1     1
SMALL
USER_CHARGES


@<TRIPOS>ATOM
      1 N1         -3.0497    0.0852    0.0118 N.am       1 <1>        0.000
      2 C1         -4.1682    0.7282   -0.6952 C.3        1 <1>        0.000
      3 C2         -3.2881   -1.2299    0.6136 C.3        1 <1>        0.000
      4 C3         -1.8268    0.6786    0.0191 C.2        1 <1>        0.000
      5 C4         -5.3049    0.9068    0.3310 C.3        1 <1>        0.000
      6 C5         -4.7776   -1.5602    0.4073 C.3        1 <1>        0.000
      7 N2         -1.3841    1.5982   -0.8640 N.am       1 <1>        0.000
      8 O1         -1.0261    0.3717    0.9064 O.2        1 <1>        0.000
      9 C6         -5.6484   -0.4347    1.0196 C.3        1 <1>        0.000
     10 H          -4.4981    0.1156   -1.5342 H.spc      1 <1>        0.000
     11 H          -3.8634    1.6910   -1.1055 H.spc      1 <1>        0.000
     12 H          -2.6583   -1.9865    0.1457 H.spc      1 <1>        0.000
     13 H          -3.0407   -1.2174    1.6751 H.spc      1 <1>        0.000
     14 H          -4.9799    1.6165    1.0918 H.spc      1 <1>        0.000
     15 H          -6.1914    1.2689   -0.1897 H.spc      1 <1>        0.000
     16 H          -4.9867   -1.6405   -0.6594 H.spc      1 <1>        0.000
     17 H          -5.0104   -2.5057    0.8972 H.spc      1 <1>        0.000
     18 H          -0.4460    1.9870   -0.7682 H.spc      1 <1>        0.000
     19 H          -1.9876    1.9044   -1.6272 H.spc      1 <1>        0.000
     20 H          -5.4487   -0.3586    2.0884 H.spc      1 <1>        0.000
     21 H          -6.7029   -0.6644    0.8669 H.spc      1 <1>        0.000
@<TRIPOS>BOND
     1    6    9 1  
     2    5    9 1  
     3    4    8 2  
     4    4    7 am 
     5    3    6 1  
     6    1    2 1  
     7    1    3 1  
     8    1    4 am 
     9    2    5 1  
    10    2   10 1  
    11    2   11 1  
    12    3   12 1  
    13    3   13 1  
    14    5   14 1  
    15    5   15 1  
    16    6   16 1  
    17    6   17 1  
    18    7   18 1  
    19    7   19 1  
    20    9   20 1  
    21    9   21 1  
# Name:          frag5-598-111/138278 -- energy: -1.997940
# Creation time: Sat Jun  5 12:53:46 2010


@<TRIPOS>MOLECULE
frag5-598-111/138278 -- energy: -1.997940
   21    21     1     1     1
SMALL
USER_CHARGES


@<TRIPOS>ATOM
      1 N1         -3.0657    0.3399    0.5664 N.am       1 <1>        0.000
      2 C1         -4.1415    1.3334    0.4599 C.3        1 <1>        0.000
      3 C2         -3.3845   -0.9121    1.2620 C.3        1 <1>        0.000
      4 C3         -1.8770    0.5752   -0.0667 C.2        1 <1>        0.000
      5 C4         -5.2661    0.6782   -0.3748 C.3        1 <1>        0.000
      6 C5         -4.4765   -1.6161    0.4249 C.3        1 <1>        0.000
      7 N2         -1.6808    1.4760   -1.0592 N.am       1 <1>        0.000
      8 O1         -0.8867   -0.0606    0.2784 O.2        1 <1>        0.000
      9 C6         -5.6950   -0.6698    0.2586 C.3        1 <1>        0.000
     10 H          -3.7834    2.2457   -0.0172 H.spc      1 <1>        0.000
     11 H          -4.5055    1.6206    1.4464 H.spc      1 <1>        0.000
     12 H          -2.4996   -1.5416    1.3561 H.spc      1 <1>        0.000
     13 H          -3.7361   -0.7162    2.2750 H.spc      1 <1>        0.000
     14 H          -6.1257    1.3480   -0.3994 H.spc      1 <1>        0.000
     15 H          -4.8977    0.4946   -1.3841 H.spc      1 <1>        0.000
     16 H          -4.0753   -1.8663   -0.5572 H.spc      1 <1>        0.000
     17 H          -4.7919   -2.5271    0.9335 H.spc      1 <1>        0.000
     18 H          -0.7536    1.5898   -1.4687 H.spc      1 <1>        0.000
     19 H          -2.4603    2.0405   -1.3970 H.spc      1 <1>        0.000
     20 H          -6.1238   -0.4745    1.2415 H.spc      1 <1>        0.000
     21 H          -6.4237   -1.1484   -0.3957 H.spc      1 <1>        0.000
@<TRIPOS>BOND
     1    6    9 1  
     2    5    9 1  
     3    4    8 2  
     4    4    7 am 
     5    3    6 1  
     6    1    2 1  
     7    1    3 1  
     8    1    4 am 
     9    2    5 1  
    10    2   10 1  
    11    2   11 1  
    12    3   12 1  
    13    3   13 1  
    14    5   14 1  
    15    5   15 1  
    16    6   16 1  
    17    6   17 1  
    18    7   18 1  
    19    7   19 1  
    20    9   20 1  
    21    9   21 1  
# Name:          frag5-598-111/138278 -- energy: -2.204563
# Creation time: Sat Jun  5 12:53:46 2010


@<TRIPOS>MOLECULE
frag5-598-111/138278 -- energy: -2.204563
   21    21     1     1     1
SMALL
USER_CHARGES


@<TRIPOS>ATOM
      1 N1         -3.0637   -0.0043   -0.2178 N.am       1 <1>        0.000
      2 C1         -3.3338   -1.3184    0.3735 C.3        1 <1>        0.000
      3 C2         -4.1579    0.6198   -0.9746 C.3        1 <1>        0.000
      4 C3         -1.8797    0.6242    0.0446 C.2        1 <1>        0.000
      5 C4         -4.4647   -1.1068    1.4053 C.3        1 <1>        0.000
      6 C5         -5.3021    0.8761    0.0300 C.3        1 <1>        0.000
      7 N2         -1.6736    1.9610    0.0136 N.am       1 <1>        0.000
      8 O1         -0.9025   -0.0581    0.3424 O.2        1 <1>        0.000
      9 C6         -5.6958   -0.4496    0.7325 C.3        1 <1>        0.000
     10 H          -2.4411   -1.7250    0.8487 H.spc      1 <1>        0.000
     11 H          -3.6297   -2.0380   -0.3898 H.spc      1 <1>        0.000
     12 H          -3.8295    1.5514   -1.4354 H.spc      1 <1>        0.000
     13 H          -4.4901   -0.0299   -1.7843 H.spc      1 <1>        0.000
     14 H          -4.7579   -2.0741    1.8132 H.spc      1 <1>        0.000
     15 H          -4.1029   -0.4526    2.1985 H.spc      1 <1>        0.000
     16 H          -4.9684    1.5942    0.7790 H.spc      1 <1>        0.000
     17 H          -6.1669    1.2705   -0.5035 H.spc      1 <1>        0.000
     18 H          -0.7516    2.3400    0.2298 H.spc      1 <1>        0.000
     19 H          -2.4402    2.5898   -0.2259 H.spc      1 <1>        0.000
     20 H          -6.0950   -1.1363   -0.0140 H.spc      1 <1>        0.000
     21 H          -6.4394   -0.2321    1.4993 H.spc      1 <1>        0.000
@<TRIPOS>BOND
     1    6    9 1  
     2    5    9 1  
     3    4    8 2  
     4    4    7 am 
     5    3    6 1  
     6    1    2 1  
     7    1    3 1  
     8    1    4 am 
     9    2    5 1  
    10    2   10 1  
    11    2   11 1  
    12    3   12 1  
    13    3   13 1  
    14    5   14 1  
    15    5   15 1  
    16    6   16 1  
    17    6   17 1  
    18    7   18 1  
    19    7   19 1  
    20    9   20 1  
    21    9   21 1  
# Name:          frag5-598-111/138278 -- energy: -1.007341
# Creation time: Sat Jun  5 12:53:46 2010


@<TRIPOS>MOLECULE
frag5-598-111/138278 -- energy: -1.007341
   21    21     1     1     1
SMALL
USER_CHARGES


@<TRIPOS>ATOM
      1 N1         -3.0497    0.0852    0.0118 N.am       1 <1>        0.000
      2 C1         -4.1682    0.7282   -0.6952 C.3        1 <1>        0.000
      3 C2         -3.2881   -1.2299    0.6136 C.3        1 <1>        0.000
      4 C3         -1.8268    0.6786    0.0191 C.2        1 <1>        0.000
      5 C4         -5.3049    0.9068    0.3310 C.3        1 <1>        0.000
      6 C5         -4.7776   -1.5602    0.4073 C.3        1 <1>        0.000
      7 N2         -1.3841    1.5982   -0.8640 N.am       1 <1>        0.000
      8 O1         -1.0261    0.3717    0.9064 O.2        1 <1>        0.000
      9 C6         -5.6484   -0.4347    1.0196 C.3        1 <1>        0.000
     10 H          -4.4981    0.1156   -1.5342 H.spc      1 <1>        0.000
     11 H          -3.8634    1.6910   -1.1055 H.spc      1 <1>        0.000
     12 H          -2.6583   -1.9865    0.1457 H.spc      1 <1>        0.000
     13 H          -3.0407   -1.2174    1.6751 H.spc      1 <1>        0.000
     14 H          -4.9799    1.6165    1.0918 H.spc      1 <1>        0.000
     15 H          -6.1914    1.2689   -0.1897 H.spc      1 <1>        0.000
     16 H          -4.9867   -1.6405   -0.6594 H.spc      1 <1>        0.000
     17 H          -5.0104   -2.5057    0.8972 H.spc      1 <1>        0.000
     18 H          -0.4460    1.9870   -0.7682 H.spc      1 <1>        0.000
     19 H          -1.9876    1.9044   -1.6272 H.spc      1 <1>        0.000
     20 H          -5.4487   -0.3586    2.0884 H.spc      1 <1>        0.000
     21 H          -6.7029   -0.6644    0.8669 H.spc      1 <1>        0.000
@<TRIPOS>BOND
     1    6    9 1  
     2    5    9 1  
     3    4    8 2  
     4    4    7 am 
     5    3    6 1  
     6    1    2 1  
     7    1    3 1  
     8    1    4 am 
     9    2    5 1  
    10    2   10 1  
    11    2   11 1  
    12    3   12 1  
    13    3   13 1  
    14    5   14 1  
    15    5   15 1  
    16    6   16 1  
    17    6   17 1  
    18    7   18 1  
    19    7   19 1  
    20    9   20 1  
    21    9   21 1  
