#      Rotatable Fragment
#      Build by yxyuan
#
# Name:          frag5-495-891/138278
# Creation time: Sat Jun  5 12:53:39 2010


@<TRIPOS>MOLECULE
frag5-495-891/138278
   16    16     1     1     1
SMALL
USER_CHARGES


@<TRIPOS>ATOM
      1 C15         0.9579    1.0569    0.0868 C.ar       1 <1>        0.000
      2 C20         0.9577   -0.3338    0.1578 C.ar       1 <1>        0.000
      3 C21         2.1633    1.7539    0.1421 C.ar       1 <1>        0.000
      4 C24         2.1700   -1.0274    0.2556 C.ar       1 <1>        0.000
      5 C25         3.3732    1.0542    0.2613 C.ar       1 <1>        0.000
      6 C26         3.4044   -0.3534    0.2820 C.ar       1 <1>        0.000
      7 C27         4.6829   -1.1400    0.3624 C.2        1 <1>        0.000
      8 N2          5.6938   -0.8459   -0.4755 N.am       1 <1>        0.000
      9 O3          4.7243   -2.0280    1.2006 O.2        1 <1>        0.000
     10 H           0.0174    1.5990   -0.0118 H.spc      1 <1>        0.000
     11 H           0.0155   -0.8814    0.1373 H.spc      1 <1>        0.000
     12 H           2.1660    2.8428    0.0927 H.spc      1 <1>        0.000
     13 H           2.1570   -2.1158    0.3127 H.spc      1 <1>        0.000
     14 H           4.3071    1.6108    0.3394 H.spc      1 <1>        0.000
     15 H           6.5624   -1.3790   -0.4337 H.spc      1 <1>        0.000
     16 H           5.5915   -0.0898   -1.1525 H.spc      1 <1>        0.000
@<TRIPOS>BOND
     1    7    8 am 
     2    6    7 1  
     3    7    9 2  
     4    1    2 ar 
     5    2    4 ar 
     6    1    3 ar 
     7    3    5 ar 
     8    4    6 ar 
     9    5    6 ar 
    10    1   10 1  
    11    2   11 1  
    12    3   12 1  
    13    4   13 1  
    14    5   14 1  
    15    8   15 1  
    16    8   16 1  
# Name:          frag5-495-891/138278
# Creation time: Sat Jun  5 12:53:39 2010


@<TRIPOS>MOLECULE
frag5-495-891/138278
   16    16     1     1     1
SMALL
USER_CHARGES


@<TRIPOS>ATOM
      1 C15         0.9537    1.0533    0.1136 C.ar       1 <1>        0.000
      2 C20         0.9859   -0.2337    0.6432 C.ar       1 <1>        0.000
      3 C21         2.1346    1.6580   -0.3113 C.ar       1 <1>        0.000
      4 C24         2.1993   -0.9286    0.7140 C.ar       1 <1>        0.000
      5 C25         3.3525    0.9690   -0.2043 C.ar       1 <1>        0.000
      6 C26         3.4055   -0.3558    0.2750 C.ar       1 <1>        0.000
      7 C27         4.6789   -1.1529    0.3289 C.2        1 <1>        0.000
      8 N2          5.8364   -0.5259    0.6176 N.am       1 <1>        0.000
      9 O3          4.5806   -2.3469    0.0964 O.2        1 <1>        0.000
     10 H           0.0067    1.5867    0.0316 H.spc      1 <1>        0.000
     11 H           0.0682   -0.6996    1.0021 H.spc      1 <1>        0.000
     12 H           2.1126    2.6656   -0.7266 H.spc      1 <1>        0.000
     13 H           2.2088   -1.9401    1.1201 H.spc      1 <1>        0.000
     14 H           4.2760    1.4681   -0.4977 H.spc      1 <1>        0.000
     15 H           6.7079   -1.0547    0.6525 H.spc      1 <1>        0.000
     16 H           5.8409    0.4774    0.8012 H.spc      1 <1>        0.000
@<TRIPOS>BOND
     1    7    8 am 
     2    6    7 1  
     3    7    9 2  
     4    1    2 ar 
     5    2    4 ar 
     6    1    3 ar 
     7    3    5 ar 
     8    4    6 ar 
     9    5    6 ar 
    10    1   10 1  
    11    2   11 1  
    12    3   12 1  
    13    4   13 1  
    14    5   14 1  
    15    8   15 1  
    16    8   16 1  
# Name:          frag5-495-891/138278 -- energy: -0.711596
# Creation time: Sat Jun  5 12:53:39 2010


@<TRIPOS>MOLECULE
frag5-495-891/138278 -- energy: -0.711596
   16    16     1     1     1
SMALL
USER_CHARGES


@<TRIPOS>ATOM
      1 C15         0.9579    1.0569    0.0868 C.ar       1 <1>        0.000
      2 C20         0.9577   -0.3338    0.1578 C.ar       1 <1>        0.000
      3 C21         2.1633    1.7539    0.1421 C.ar       1 <1>        0.000
      4 C24         2.1700   -1.0274    0.2556 C.ar       1 <1>        0.000
      5 C25         3.3732    1.0542    0.2613 C.ar       1 <1>        0.000
      6 C26         3.4044   -0.3534    0.2820 C.ar       1 <1>        0.000
      7 C27         4.6829   -1.1400    0.3624 C.2        1 <1>        0.000
      8 N2          5.6938   -0.8459   -0.4755 N.am       1 <1>        0.000
      9 O3          4.7243   -2.0280    1.2006 O.2        1 <1>        0.000
     10 H           0.0174    1.5990   -0.0118 H.spc      1 <1>        0.000
     11 H           0.0155   -0.8814    0.1373 H.spc      1 <1>        0.000
     12 H           2.1660    2.8428    0.0927 H.spc      1 <1>        0.000
     13 H           2.1570   -2.1158    0.3127 H.spc      1 <1>        0.000
     14 H           4.3071    1.6108    0.3394 H.spc      1 <1>        0.000
     15 H           6.5624   -1.3790   -0.4337 H.spc      1 <1>        0.000
     16 H           5.5915   -0.0898   -1.1525 H.spc      1 <1>        0.000
@<TRIPOS>BOND
     1    7    8 am 
     2    6    7 1  
     3    7    9 2  
     4    1    2 ar 
     5    2    4 ar 
     6    1    3 ar 
     7    3    5 ar 
     8    4    6 ar 
     9    5    6 ar 
    10    1   10 1  
    11    2   11 1  
    12    3   12 1  
    13    4   13 1  
    14    5   14 1  
    15    8   15 1  
    16    8   16 1  
# Name:          frag5-495-891/138278 -- energy: -0.652697
# Creation time: Sat Jun  5 12:53:39 2010


@<TRIPOS>MOLECULE
frag5-495-891/138278 -- energy: -0.652697
   16    16     1     1     1
SMALL
USER_CHARGES


@<TRIPOS>ATOM
      1 C15         0.9537    1.0533    0.1136 C.ar       1 <1>        0.000
      2 C20         0.9859   -0.2337    0.6432 C.ar       1 <1>        0.000
      3 C21         2.1346    1.6580   -0.3113 C.ar       1 <1>        0.000
      4 C24         2.1993   -0.9286    0.7140 C.ar       1 <1>        0.000
      5 C25         3.3525    0.9690   -0.2043 C.ar       1 <1>        0.000
      6 C26         3.4055   -0.3558    0.2750 C.ar       1 <1>        0.000
      7 C27         4.6789   -1.1529    0.3289 C.2        1 <1>        0.000
      8 N2          5.8364   -0.5259    0.6176 N.am       1 <1>        0.000
      9 O3          4.5806   -2.3469    0.0964 O.2        1 <1>        0.000
     10 H           0.0067    1.5867    0.0316 H.spc      1 <1>        0.000
     11 H           0.0682   -0.6996    1.0021 H.spc      1 <1>        0.000
     12 H           2.1126    2.6656   -0.7266 H.spc      1 <1>        0.000
     13 H           2.2088   -1.9401    1.1201 H.spc      1 <1>        0.000
     14 H           4.2760    1.4681   -0.4977 H.spc      1 <1>        0.000
     15 H           6.7079   -1.0547    0.6525 H.spc      1 <1>        0.000
     16 H           5.8409    0.4774    0.8012 H.spc      1 <1>        0.000
@<TRIPOS>BOND
     1    7    8 am 
     2    6    7 1  
     3    7    9 2  
     4    1    2 ar 
     5    2    4 ar 
     6    1    3 ar 
     7    3    5 ar 
     8    4    6 ar 
     9    5    6 ar 
    10    1   10 1  
    11    2   11 1  
    12    3   12 1  
    13    4   13 1  
    14    5   14 1  
    15    8   15 1  
    16    8   16 1  
