#      Rotatable Fragment
#      Build by yxyuan
#
# Name:          frag5-533-87/41815
# Creation time: Sat Jun  5 12:52:51 2010


@<TRIPOS>MOLECULE
frag5-533-87/41815
   14    14     1     1     1
SMALL
USER_CHARGES


@<TRIPOS>ATOM
      1 O1         -3.0245   -1.0190   -0.0502 O.2        1 <1>        0.000
      2 C1         -2.3786    0.0160    0.0554 C.2        1 <1>        0.000
      3 C3         -0.8980    0.0147    0.0259 C.ar       1 <1>        0.000
      4 C4         -0.1926   -1.1795   -0.1659 C.ar       1 <1>        0.000
      5 C5          1.2048   -1.1978   -0.1973 C.ar       1 <1>        0.000
      6 C6          1.9184   -0.0143   -0.0445 C.ar       1 <1>        0.000
      7 C7          1.2356    1.1851    0.1410 C.ar       1 <1>        0.000
      8 C8         -0.1646    1.1976    0.1854 C.ar       1 <1>        0.000
      9 H          -2.9068    0.9621    0.1741 H.spc      1 <1>        0.000
     10 H          -0.7430   -2.1117   -0.2930 H.spc      1 <1>        0.000
     11 H           1.7347   -2.1393   -0.3415 H.spc      1 <1>        0.000
     12 H           3.0081   -0.0253   -0.0698 H.spc      1 <1>        0.000
     13 H           1.7916    2.1160    0.2519 H.spc      1 <1>        0.000
     14 H          -0.6898    2.1391    0.3460 H.spc      1 <1>        0.000
@<TRIPOS>BOND
     1    1    2 2  
     2    2    3 1  
     3    3    4 ar 
     4    3    8 ar 
     5    4    5 ar 
     6    5    6 ar 
     7    6    7 ar 
     8    7    8 ar 
     9    2    9 1  
    10    4   10 1  
    11    5   11 1  
    12    6   12 1  
    13    7   13 1  
    14    8   14 1  
# Name:          frag5-533-87/41815 -- energy: -0.246251
# Creation time: Sat Jun  5 12:52:51 2010


@<TRIPOS>MOLECULE
frag5-533-87/41815 -- energy: -0.246251
   14    14     1     1     1
SMALL
USER_CHARGES


@<TRIPOS>ATOM
      1 O1         -3.0245   -1.0190   -0.0502 O.2        1 <1>        0.000
      2 C1         -2.3786    0.0160    0.0554 C.2        1 <1>        0.000
      3 C3         -0.8980    0.0147    0.0259 C.ar       1 <1>        0.000
      4 C4         -0.1926   -1.1795   -0.1659 C.ar       1 <1>        0.000
      5 C5          1.2048   -1.1978   -0.1973 C.ar       1 <1>        0.000
      6 C6          1.9184   -0.0143   -0.0445 C.ar       1 <1>        0.000
      7 C7          1.2356    1.1851    0.1410 C.ar       1 <1>        0.000
      8 C8         -0.1646    1.1976    0.1854 C.ar       1 <1>        0.000
      9 H          -2.9068    0.9621    0.1741 H.spc      1 <1>        0.000
     10 H          -0.7430   -2.1117   -0.2930 H.spc      1 <1>        0.000
     11 H           1.7347   -2.1393   -0.3415 H.spc      1 <1>        0.000
     12 H           3.0081   -0.0253   -0.0698 H.spc      1 <1>        0.000
     13 H           1.7916    2.1160    0.2519 H.spc      1 <1>        0.000
     14 H          -0.6898    2.1391    0.3460 H.spc      1 <1>        0.000
@<TRIPOS>BOND
     1    1    2 2  
     2    2    3 1  
     3    3    4 ar 
     4    3    8 ar 
     5    4    5 ar 
     6    5    6 ar 
     7    6    7 ar 
     8    7    8 ar 
     9    2    9 1  
    10    4   10 1  
    11    5   11 1  
    12    6   12 1  
    13    7   13 1  
    14    8   14 1  
