#      Rotatable Fragment
#      Build by yxyuan
#
# Name:          frag3-090-18831/96164
# Creation time: Sat Jun  5 12:52:22 2010


@<TRIPOS>MOLECULE
frag3-090-18831/96164
    5     4     1     1     1
SMALL
USER_CHARGES


@<TRIPOS>ATOM
      1 C7          0.4416   -0.0025   -0.0035 C.2        1 <1>        0.000
      2 O2          1.4513    0.6860   -0.0259 O.2        1 <1>        0.000
      3 O3         -0.7955    0.5076   -0.0249 O.3        1 <1>        0.000
      4 H           0.5544   -1.0859    0.0359 H.spc      1 <1>        0.000
      5 H          -1.4357   -0.2074   -0.0007 H.spc      1 <1>        0.000
@<TRIPOS>BOND
     1    1    2 2  
     2    1    3 1  
     3    1    4 1  
     4    3    5 1  
# Name:          frag3-090-18831/96164 -- energy: -0.034741
# Creation time: Sat Jun  5 12:52:22 2010


@<TRIPOS>MOLECULE
frag3-090-18831/96164 -- energy: -0.034741
    5     4     1     1     1
SMALL
USER_CHARGES


@<TRIPOS>ATOM
      1 C7          0.4416   -0.0025   -0.0035 C.2        1 <1>        0.000
      2 O2          1.4513    0.6860   -0.0259 O.2        1 <1>        0.000
      3 O3         -0.7955    0.5076   -0.0249 O.3        1 <1>        0.000
      4 H           0.5544   -1.0859    0.0359 H.spc      1 <1>        0.000
      5 H          -1.4357   -0.2074   -0.0007 H.spc      1 <1>        0.000
@<TRIPOS>BOND
     1    1    2 2  
     2    1    3 1  
     3    1    4 1  
     4    3    5 1  
