#      Rotatable Fragment
#      Build by yxyuan
#
# Name:          frag3-178-12/96164
# Creation time: Sat Jun  5 12:53:08 2010


@<TRIPOS>MOLECULE
frag3-178-12/96164
   11    10     1     1     1
SMALL
USER_CHARGES


@<TRIPOS>ATOM
      1 N1          0.2152    0.3746    0.0129 N.am       1 <1>        0.000
      2 O1          0.3875   -0.8310    0.6264 O.3        1 <1>        0.000
      3 C9          1.1969    1.2448   -0.0507 C.2        1 <1>        0.000
      4 C12        -0.0105   -1.8395   -0.0852 C.2        1 <1>        0.000
      5 N2          2.4413    1.0158    0.4246 N.am       1 <1>        0.000
      6 O2          0.9637    2.3482   -0.5617 O.2        1 <1>        0.000
      7 O3         -0.8841   -1.8372   -0.9199 O.2        1 <1>        0.000
      8 H          -0.6880    0.6036   -0.4021 H.spc      1 <1>        0.000
      9 H           0.4963   -2.7889    0.0879 H.spc      1 <1>        0.000
     10 H           3.1549    1.7414    0.3562 H.spc      1 <1>        0.000
     11 H           2.6668    0.1174    0.8517 H.spc      1 <1>        0.000
@<TRIPOS>BOND
     1    1    2 1  
     2    1    3 am 
     3    2    4 1  
     4    3    5 am 
     5    3    6 2  
     6    4    7 2  
     7    1    8 1  
     8    4    9 1  
     9    5   10 1  
    10    5   11 1  
# Name:          frag3-178-12/96164
# Creation time: Sat Jun  5 12:53:08 2010


@<TRIPOS>MOLECULE
frag3-178-12/96164
   11    10     1     1     1
SMALL
USER_CHARGES


@<TRIPOS>ATOM
      1 N1          0.1791    0.6414    0.4521 N.am       1 <1>        0.000
      2 O1          0.1471   -0.7325    0.4692 O.3        1 <1>        0.000
      3 C9          1.2640    1.3067    0.0566 C.2        1 <1>        0.000
      4 C12        -0.4886   -1.3918   -0.4821 C.2        1 <1>        0.000
      5 N2          2.4921    0.8375    0.1512 N.am       1 <1>        0.000
      6 O2          1.0587    2.3933   -0.5043 O.2        1 <1>        0.000
      7 O3         -0.3424   -2.5787   -0.6962 O.2        1 <1>        0.000
      8 H          -0.6456    1.1633    0.7486 H.spc      1 <1>        0.000
      9 H          -1.1853   -0.8388   -1.1121 H.spc      1 <1>        0.000
     10 H           3.2721    1.3681   -0.2367 H.spc      1 <1>        0.000
     11 H           2.6625   -0.0562    0.6123 H.spc      1 <1>        0.000
@<TRIPOS>BOND
     1    1    2 1  
     2    1    3 am 
     3    2    4 1  
     4    3    5 am 
     5    3    6 2  
     6    4    7 2  
     7    1    8 1  
     8    4    9 1  
     9    5   10 1  
    10    5   11 1  
# Name:          frag3-178-12/96164
# Creation time: Sat Jun  5 12:53:08 2010


@<TRIPOS>MOLECULE
frag3-178-12/96164
   11    10     1     1     1
SMALL
USER_CHARGES


@<TRIPOS>ATOM
      1 N1          0.3561    0.5995   -0.5428 N.am       1 <1>        0.000
      2 O1          0.4146   -0.7688   -0.5230 O.3        1 <1>        0.000
      3 C9          1.2783    1.3502    0.0205 C.2        1 <1>        0.000
      4 C12        -0.6158   -1.4940   -0.1604 C.2        1 <1>        0.000
      5 N2          2.3626    0.8981    0.6382 N.am       1 <1>        0.000
      6 O2          1.0834    2.5707   -0.0447 O.2        1 <1>        0.000
      7 O3         -0.5690   -2.6799    0.0586 O.2        1 <1>        0.000
      8 H          -0.4294    1.0521   -1.0103 H.spc      1 <1>        0.000
      9 H          -1.5775   -0.9931   -0.0495 H.spc      1 <1>        0.000
     10 H           3.0244    1.5543    1.0527 H.spc      1 <1>        0.000
     11 H           2.5341   -0.1056    0.6984 H.spc      1 <1>        0.000
@<TRIPOS>BOND
     1    1    2 1  
     2    1    3 am 
     3    2    4 1  
     4    3    5 am 
     5    3    6 2  
     6    4    7 2  
     7    1    8 1  
     8    4    9 1  
     9    5   10 1  
    10    5   11 1  
# Name:          frag3-178-12/96164
# Creation time: Sat Jun  5 12:53:08 2010


@<TRIPOS>MOLECULE
frag3-178-12/96164
   11    10     1     1     1
SMALL
USER_CHARGES


@<TRIPOS>ATOM
      1 N1          1.1091   -0.0504   -0.7160 N.am       1 <1>        0.000
      2 O1          1.0347   -1.2255   -0.0159 O.3        1 <1>        0.000
      3 C9          1.1894    1.1209   -0.0951 C.2        1 <1>        0.000
      4 C12        -0.2190   -1.6111    0.1220 C.2        1 <1>        0.000
      5 N2          1.7746    1.2740    1.1067 N.am       1 <1>        0.000
      6 O2          0.6461    2.1009   -0.6131 O.2        1 <1>        0.000
      7 O3         -1.2249   -1.1329   -0.3422 O.2        1 <1>        0.000
      8 H           1.1027   -0.0755   -1.7357 H.spc      1 <1>        0.000
      9 H          -0.3685   -2.4913    0.7473 H.spc      1 <1>        0.000
     10 H           1.7623    2.1838    1.5678 H.spc      1 <1>        0.000
     11 H           2.2306    0.4803    1.5567 H.spc      1 <1>        0.000
@<TRIPOS>BOND
     1    1    2 1  
     2    1    3 am 
     3    2    4 1  
     4    3    5 am 
     5    3    6 2  
     6    4    7 2  
     7    1    8 1  
     8    4    9 1  
     9    5   10 1  
    10    5   11 1  
# Name:          frag3-178-12/96164
# Creation time: Sat Jun  5 12:53:08 2010


@<TRIPOS>MOLECULE
frag3-178-12/96164
   11    10     1     1     1
SMALL
USER_CHARGES


@<TRIPOS>ATOM
      1 N1          0.1079    0.5538    0.6337 N.am       1 <1>        0.000
      2 O1          0.0509   -0.7657    0.9659 O.3        1 <1>        0.000
      3 C9          1.0869    1.0845   -0.0611 C.2        1 <1>        0.000
      4 C12        -0.2720   -1.5331   -0.0613 C.2        1 <1>        0.000
      5 N2          2.2782    0.5108   -0.2538 N.am       1 <1>        0.000
      6 O2          0.8722    2.1872   -0.5854 O.2        1 <1>        0.000
      7 O3          0.1860   -1.5616   -1.1915 O.2        1 <1>        0.000
      8 H          -0.6508    1.1622    0.9413 H.spc      1 <1>        0.000
      9 H          -1.0699   -2.2503    0.1314 H.spc      1 <1>        0.000
     10 H           2.9845    0.9800   -0.8208 H.spc      1 <1>        0.000
     11 H           2.4813   -0.3963    0.1661 H.spc      1 <1>        0.000
@<TRIPOS>BOND
     1    1    2 1  
     2    1    3 am 
     3    2    4 1  
     4    3    5 am 
     5    3    6 2  
     6    4    7 2  
     7    1    8 1  
     8    4    9 1  
     9    5   10 1  
    10    5   11 1  
# Name:          frag3-178-12/96164 -- energy: -0.544334
# Creation time: Sat Jun  5 12:53:08 2010


@<TRIPOS>MOLECULE
frag3-178-12/96164 -- energy: -0.544334
   11    10     1     1     1
SMALL
USER_CHARGES


@<TRIPOS>ATOM
      1 N1          0.2152    0.3746    0.0129 N.am       1 <1>        0.000
      2 O1          0.3875   -0.8310    0.6264 O.3        1 <1>        0.000
      3 C9          1.1969    1.2448   -0.0507 C.2        1 <1>        0.000
      4 C12        -0.0105   -1.8395   -0.0852 C.2        1 <1>        0.000
      5 N2          2.4413    1.0158    0.4246 N.am       1 <1>        0.000
      6 O2          0.9637    2.3482   -0.5617 O.2        1 <1>        0.000
      7 O3         -0.8841   -1.8372   -0.9199 O.2        1 <1>        0.000
      8 H          -0.6880    0.6036   -0.4021 H.spc      1 <1>        0.000
      9 H           0.4963   -2.7889    0.0879 H.spc      1 <1>        0.000
     10 H           3.1549    1.7414    0.3562 H.spc      1 <1>        0.000
     11 H           2.6668    0.1174    0.8517 H.spc      1 <1>        0.000
@<TRIPOS>BOND
     1    1    2 1  
     2    1    3 am 
     3    2    4 1  
     4    3    5 am 
     5    3    6 2  
     6    4    7 2  
     7    1    8 1  
     8    4    9 1  
     9    5   10 1  
    10    5   11 1  
# Name:          frag3-178-12/96164 -- energy: -0.752390
# Creation time: Sat Jun  5 12:53:08 2010


@<TRIPOS>MOLECULE
frag3-178-12/96164 -- energy: -0.752390
   11    10     1     1     1
SMALL
USER_CHARGES


@<TRIPOS>ATOM
      1 N1          0.1791    0.6414    0.4521 N.am       1 <1>        0.000
      2 O1          0.1471   -0.7325    0.4692 O.3        1 <1>        0.000
      3 C9          1.2640    1.3067    0.0566 C.2        1 <1>        0.000
      4 C12        -0.4886   -1.3918   -0.4821 C.2        1 <1>        0.000
      5 N2          2.4921    0.8375    0.1512 N.am       1 <1>        0.000
      6 O2          1.0587    2.3933   -0.5043 O.2        1 <1>        0.000
      7 O3         -0.3424   -2.5787   -0.6962 O.2        1 <1>        0.000
      8 H          -0.6456    1.1633    0.7486 H.spc      1 <1>        0.000
      9 H          -1.1853   -0.8388   -1.1121 H.spc      1 <1>        0.000
     10 H           3.2721    1.3681   -0.2367 H.spc      1 <1>        0.000
     11 H           2.6625   -0.0562    0.6123 H.spc      1 <1>        0.000
@<TRIPOS>BOND
     1    1    2 1  
     2    1    3 am 
     3    2    4 1  
     4    3    5 am 
     5    3    6 2  
     6    4    7 2  
     7    1    8 1  
     8    4    9 1  
     9    5   10 1  
    10    5   11 1  
# Name:          frag3-178-12/96164 -- energy: -0.640417
# Creation time: Sat Jun  5 12:53:08 2010


@<TRIPOS>MOLECULE
frag3-178-12/96164 -- energy: -0.640417
   11    10     1     1     1
SMALL
USER_CHARGES


@<TRIPOS>ATOM
      1 N1          0.3561    0.5995   -0.5428 N.am       1 <1>        0.000
      2 O1          0.4146   -0.7688   -0.5230 O.3        1 <1>        0.000
      3 C9          1.2783    1.3502    0.0205 C.2        1 <1>        0.000
      4 C12        -0.6158   -1.4940   -0.1604 C.2        1 <1>        0.000
      5 N2          2.3626    0.8981    0.6382 N.am       1 <1>        0.000
      6 O2          1.0834    2.5707   -0.0447 O.2        1 <1>        0.000
      7 O3         -0.5690   -2.6799    0.0586 O.2        1 <1>        0.000
      8 H          -0.4294    1.0521   -1.0103 H.spc      1 <1>        0.000
      9 H          -1.5775   -0.9931   -0.0495 H.spc      1 <1>        0.000
     10 H           3.0244    1.5543    1.0527 H.spc      1 <1>        0.000
     11 H           2.5341   -0.1056    0.6984 H.spc      1 <1>        0.000
@<TRIPOS>BOND
     1    1    2 1  
     2    1    3 am 
     3    2    4 1  
     4    3    5 am 
     5    3    6 2  
     6    4    7 2  
     7    1    8 1  
     8    4    9 1  
     9    5   10 1  
    10    5   11 1  
# Name:          frag3-178-12/96164 -- energy: -0.745164
# Creation time: Sat Jun  5 12:53:08 2010


@<TRIPOS>MOLECULE
frag3-178-12/96164 -- energy: -0.745164
   11    10     1     1     1
SMALL
USER_CHARGES


@<TRIPOS>ATOM
      1 N1          1.1091   -0.0504   -0.7160 N.am       1 <1>        0.000
      2 O1          1.0347   -1.2255   -0.0159 O.3        1 <1>        0.000
      3 C9          1.1894    1.1209   -0.0951 C.2        1 <1>        0.000
      4 C12        -0.2190   -1.6111    0.1220 C.2        1 <1>        0.000
      5 N2          1.7746    1.2740    1.1067 N.am       1 <1>        0.000
      6 O2          0.6461    2.1009   -0.6131 O.2        1 <1>        0.000
      7 O3         -1.2249   -1.1329   -0.3422 O.2        1 <1>        0.000
      8 H           1.1027   -0.0755   -1.7357 H.spc      1 <1>        0.000
      9 H          -0.3685   -2.4913    0.7473 H.spc      1 <1>        0.000
     10 H           1.7623    2.1838    1.5678 H.spc      1 <1>        0.000
     11 H           2.2306    0.4803    1.5567 H.spc      1 <1>        0.000
@<TRIPOS>BOND
     1    1    2 1  
     2    1    3 am 
     3    2    4 1  
     4    3    5 am 
     5    3    6 2  
     6    4    7 2  
     7    1    8 1  
     8    4    9 1  
     9    5   10 1  
    10    5   11 1  
# Name:          frag3-178-12/96164 -- energy: -0.905459
# Creation time: Sat Jun  5 12:53:08 2010


@<TRIPOS>MOLECULE
frag3-178-12/96164 -- energy: -0.905459
   11    10     1     1     1
SMALL
USER_CHARGES


@<TRIPOS>ATOM
      1 N1          0.1079    0.5538    0.6337 N.am       1 <1>        0.000
      2 O1          0.0509   -0.7657    0.9659 O.3        1 <1>        0.000
      3 C9          1.0869    1.0845   -0.0611 C.2        1 <1>        0.000
      4 C12        -0.2720   -1.5331   -0.0613 C.2        1 <1>        0.000
      5 N2          2.2782    0.5108   -0.2538 N.am       1 <1>        0.000
      6 O2          0.8722    2.1872   -0.5854 O.2        1 <1>        0.000
      7 O3          0.1860   -1.5616   -1.1915 O.2        1 <1>        0.000
      8 H          -0.6508    1.1622    0.9413 H.spc      1 <1>        0.000
      9 H          -1.0699   -2.2503    0.1314 H.spc      1 <1>        0.000
     10 H           2.9845    0.9800   -0.8208 H.spc      1 <1>        0.000
     11 H           2.4813   -0.3963    0.1661 H.spc      1 <1>        0.000
@<TRIPOS>BOND
     1    1    2 1  
     2    1    3 am 
     3    2    4 1  
     4    3    5 am 
     5    3    6 2  
     6    4    7 2  
     7    1    8 1  
     8    4    9 1  
     9    5   10 1  
    10    5   11 1  
