#      Rotatable Fragment
#      Build by yxyuan
#
# Name:          frag3-263-2/31924
# Creation time: Sat Jun  5 12:52:41 2010


@<TRIPOS>MOLECULE
frag3-263-2/31924
    7     6     1     1     1
SMALL
USER_CHARGES


@<TRIPOS>ATOM
      1 O1          0.0143   -0.6797    0.0749 O.3        1 <1>        0.000
      2 C1          1.1700   -0.0324    0.0120 C.2        1 <1>        0.000
      3 O2          1.4162    1.0678   -0.4573 O.2        1 <1>        0.000
      4 C3         -1.1582   -0.0893   -0.0402 C.2        1 <1>        0.000
      5 O3         -2.2922   -0.5513   -0.0192 O.2        1 <1>        0.000
      6 H           2.0231   -0.5581    0.4410 H.spc      1 <1>        0.000
      7 H          -1.1108    0.9910   -0.1770 H.spc      1 <1>        0.000
@<TRIPOS>BOND
     1    1    2 1  
     2    1    4 1  
     3    2    3 2  
     4    4    5 2  
     5    2    6 1  
     6    4    7 1  
# Name:          frag3-263-2/31924
# Creation time: Sat Jun  5 12:52:41 2010


@<TRIPOS>MOLECULE
frag3-263-2/31924
    7     6     1     1     1
SMALL
USER_CHARGES


@<TRIPOS>ATOM
      1 O1         -0.0416   -0.4547   -0.1118 O.3        1 <1>        0.000
      2 C1         -1.3410   -0.1199    0.0276 C.2        1 <1>        0.000
      3 O2         -2.3242   -0.8590    0.0936 O.2        1 <1>        0.000
      4 C3          0.8126    0.5783   -0.1640 C.2        1 <1>        0.000
      5 O3          2.0443    0.5704   -0.2752 O.2        1 <1>        0.000
      6 H          -1.5488    0.9483    0.0903 H.spc      1 <1>        0.000
      7 H           0.3558    1.5658   -0.0991 H.spc      1 <1>        0.000
@<TRIPOS>BOND
     1    1    2 1  
     2    1    4 1  
     3    2    3 2  
     4    4    5 2  
     5    2    6 1  
     6    4    7 1  
# Name:          frag3-263-2/31924
# Creation time: Sat Jun  5 12:52:41 2010


@<TRIPOS>MOLECULE
frag3-263-2/31924
    7     6     1     1     1
SMALL
USER_CHARGES


@<TRIPOS>ATOM
      1 O1          0.1674   -0.9862    0.2314 O.3        1 <1>        0.000
      2 C1          1.0191    0.0160   -0.0098 C.2        1 <1>        0.000
      3 O2          0.8113    1.1264   -0.4875 O.2        1 <1>        0.000
      4 C3         -1.1315   -0.7445    0.0488 C.2        1 <1>        0.000
      5 O3         -1.7161    0.3034   -0.2126 O.2        1 <1>        0.000
      6 H           2.0562   -0.1844    0.2591 H.spc      1 <1>        0.000
      7 H          -1.7777   -1.6168    0.1474 H.spc      1 <1>        0.000
@<TRIPOS>BOND
     1    1    2 1  
     2    1    4 1  
     3    2    3 2  
     4    4    5 2  
     5    2    6 1  
     6    4    7 1  
# Name:          frag3-263-2/31924 -- energy: -0.138180
# Creation time: Sat Jun  5 12:52:41 2010


@<TRIPOS>MOLECULE
frag3-263-2/31924 -- energy: -0.138180
    7     6     1     1     1
SMALL
USER_CHARGES


@<TRIPOS>ATOM
      1 O1          0.0143   -0.6797    0.0749 O.3        1 <1>        0.000
      2 C1          1.1700   -0.0324    0.0120 C.2        1 <1>        0.000
      3 O2          1.4162    1.0678   -0.4573 O.2        1 <1>        0.000
      4 C3         -1.1582   -0.0893   -0.0402 C.2        1 <1>        0.000
      5 O3         -2.2922   -0.5513   -0.0192 O.2        1 <1>        0.000
      6 H           2.0231   -0.5581    0.4410 H.spc      1 <1>        0.000
      7 H          -1.1108    0.9910   -0.1770 H.spc      1 <1>        0.000
@<TRIPOS>BOND
     1    1    2 1  
     2    1    4 1  
     3    2    3 2  
     4    4    5 2  
     5    2    6 1  
     6    4    7 1  
# Name:          frag3-263-2/31924 -- energy: 0.180277
# Creation time: Sat Jun  5 12:52:41 2010


@<TRIPOS>MOLECULE
frag3-263-2/31924 -- energy: 0.180277
    7     6     1     1     1
SMALL
USER_CHARGES


@<TRIPOS>ATOM
      1 O1         -0.0416   -0.4547   -0.1118 O.3        1 <1>        0.000
      2 C1         -1.3410   -0.1199    0.0276 C.2        1 <1>        0.000
      3 O2         -2.3242   -0.8590    0.0936 O.2        1 <1>        0.000
      4 C3          0.8126    0.5783   -0.1640 C.2        1 <1>        0.000
      5 O3          2.0443    0.5704   -0.2752 O.2        1 <1>        0.000
      6 H          -1.5488    0.9483    0.0903 H.spc      1 <1>        0.000
      7 H           0.3558    1.5658   -0.0991 H.spc      1 <1>        0.000
@<TRIPOS>BOND
     1    1    2 1  
     2    1    4 1  
     3    2    3 2  
     4    4    5 2  
     5    2    6 1  
     6    4    7 1  
# Name:          frag3-263-2/31924 -- energy: 0.112537
# Creation time: Sat Jun  5 12:52:41 2010


@<TRIPOS>MOLECULE
frag3-263-2/31924 -- energy: 0.112537
    7     6     1     1     1
SMALL
USER_CHARGES


@<TRIPOS>ATOM
      1 O1          0.1674   -0.9862    0.2314 O.3        1 <1>        0.000
      2 C1          1.0191    0.0160   -0.0098 C.2        1 <1>        0.000
      3 O2          0.8113    1.1264   -0.4875 O.2        1 <1>        0.000
      4 C3         -1.1315   -0.7445    0.0488 C.2        1 <1>        0.000
      5 O3         -1.7161    0.3034   -0.2126 O.2        1 <1>        0.000
      6 H           2.0562   -0.1844    0.2591 H.spc      1 <1>        0.000
      7 H          -1.7777   -1.6168    0.1474 H.spc      1 <1>        0.000
@<TRIPOS>BOND
     1    1    2 1  
     2    1    4 1  
     3    2    3 2  
     4    4    5 2  
     5    2    6 1  
     6    4    7 1  
