#      Rotatable Fragment
#      Build by yxyuan
#
# Name:          frag3-267-3/96164
# Creation time: Sat Jun  5 12:53:22 2010


@<TRIPOS>MOLECULE
frag3-267-3/96164
   18    17     1     1     1
SMALL
USER_CHARGES


@<TRIPOS>ATOM
      1 C1          1.5758   -0.1376   -0.0641 C.2        1 <1>        0.000
      2 P1          3.0120   -0.8288   -0.2190 P.3        1 <1>        0.000
      3 P2          1.6871    1.4480   -0.1193 P.3        1 <1>        0.000
      4 C2          0.4899   -0.8626    0.0905 C.2        1 <1>        0.000
      5 O1          3.8430   -0.5770   -1.4988 O.3        1 <1>        0.000
      6 O2          3.9435   -0.5508    0.9815 O.3        1 <1>        0.000
      7 O3          2.8054   -2.2486   -0.1893 O.2        1 <1>        0.000
      8 O4          3.1112    2.0306    0.0434 O.3        1 <1>        0.000
      9 O5          1.1402    2.0482   -1.4249 O.3        1 <1>        0.000
     10 O6          0.9352    2.0365    0.9504 O.2        1 <1>        0.000
     11 C3         -0.8212   -0.3667    0.3723 C.2        1 <1>        0.000
     12 O7         -1.7864   -1.1090    0.3209 O.2        1 <1>        0.000
     13 H           0.5994   -1.9429   -0.0051 H.spc      1 <1>        0.000
     14 H           4.0206    0.3626   -1.5840 H.spc      1 <1>        0.000
     15 H           4.1301    0.3897    1.0292 H.spc      1 <1>        0.000
     16 H           3.6802    1.6790   -0.6452 H.spc      1 <1>        0.000
     17 H           1.6188    1.6789   -2.1707 H.spc      1 <1>        0.000
     18 H          -0.9584    0.6823    0.6349 H.spc      1 <1>        0.000
@<TRIPOS>BOND
     1   11   12 2  
     2    4   11 1  
     3    3   10 2  
     4    1    2 1  
     5    1    3 1  
     6    1    4 2  
     7    2    5 1  
     8    2    6 1  
     9    2    7 2  
    10    3    8 1  
    11    3    9 1  
    12    4   13 1  
    13    5   14 1  
    14    6   15 1  
    15    8   16 1  
    16    9   17 1  
    17   11   18 1  
# Name:          frag3-267-3/96164
# Creation time: Sat Jun  5 12:53:22 2010


@<TRIPOS>MOLECULE
frag3-267-3/96164
   18    17     1     1     1
SMALL
USER_CHARGES


@<TRIPOS>ATOM
      1 C1          1.5994   -0.1291   -0.0825 C.2        1 <1>        0.000
      2 P1          3.0495   -0.8055   -0.0183 P.3        1 <1>        0.000
      3 P2          1.6599    1.4227   -0.4137 P.3        1 <1>        0.000
      4 C2          0.5201   -0.8687    0.1154 C.2        1 <1>        0.000
      5 O1          4.2912   -0.0264    0.4639 O.3        1 <1>        0.000
      6 O2          2.9586   -2.0744    0.8498 O.3        1 <1>        0.000
      7 O3          3.3648   -1.2885   -1.3369 O.2        1 <1>        0.000
      8 O4          2.9987    1.9580   -0.9621 O.3        1 <1>        0.000
      9 O5          0.5288    1.8443   -1.3630 O.3        1 <1>        0.000
     10 O6          1.4264    2.1958    0.7747 O.2        1 <1>        0.000
     11 C3         -0.8220   -0.3818    0.2618 C.2        1 <1>        0.000
     12 O7         -1.6397   -0.9643    0.9545 O.2        1 <1>        0.000
     13 H           0.6637   -1.9477    0.1725 H.spc      1 <1>        0.000
     14 H           4.1291    0.3180    1.3452 H.spc      1 <1>        0.000
     15 H           2.7487   -1.8281    1.7536 H.spc      1 <1>        0.000
     16 H           3.2259    1.4851   -1.7661 H.spc      1 <1>        0.000
     17 H           0.6134    1.3670   -2.1916 H.spc      1 <1>        0.000
     18 H          -1.1174    0.5296   -0.2580 H.spc      1 <1>        0.000
@<TRIPOS>BOND
     1   11   12 2  
     2    4   11 1  
     3    3   10 2  
     4    1    2 1  
     5    1    3 1  
     6    1    4 2  
     7    2    5 1  
     8    2    6 1  
     9    2    7 2  
    10    3    8 1  
    11    3    9 1  
    12    4   13 1  
    13    5   14 1  
    14    6   15 1  
    15    8   16 1  
    16    9   17 1  
    17   11   18 1  
# Name:          frag3-267-3/96164
# Creation time: Sat Jun  5 12:53:22 2010


@<TRIPOS>MOLECULE
frag3-267-3/96164
   18    17     1     1     1
SMALL
USER_CHARGES


@<TRIPOS>ATOM
      1 C1          1.5642   -0.1491   -0.1262 C.2        1 <1>        0.000
      2 P1          2.9740   -0.8581   -0.4399 P.3        1 <1>        0.000
      3 P2          1.7275    1.4403   -0.0427 P.3        1 <1>        0.000
      4 C2          0.4760   -0.8568    0.0926 C.2        1 <1>        0.000
      5 O1          3.4327   -0.8721   -1.9138 O.3        1 <1>        0.000
      6 O2          4.1358   -0.1159    0.2844 O.3        1 <1>        0.000
      7 O3          2.8621   -2.2314   -0.0464 O.2        1 <1>        0.000
      8 O4          1.7297    1.8656    1.4426 O.3        1 <1>        0.000
      9 O5          2.9199    2.0770   -0.7995 O.3        1 <1>        0.000
     10 O6          0.5830    2.0765   -0.6246 O.2        1 <1>        0.000
     11 C3         -0.7827   -0.3634    0.5669 C.2        1 <1>        0.000
     12 O7         -1.6868   -1.1304    0.8503 O.2        1 <1>        0.000
     13 H           0.5389   -1.9265   -0.1073 H.spc      1 <1>        0.000
     14 H           3.5236    0.0304   -2.2281 H.spc      1 <1>        0.000
     15 H           4.1666    0.7961   -0.0139 H.spc      1 <1>        0.000
     16 H           2.4808    1.4662    1.8875 H.spc      1 <1>        0.000
     17 H           3.7415    1.7050   -0.4706 H.spc      1 <1>        0.000
     18 H          -0.9337    0.7106    0.6756 H.spc      1 <1>        0.000
@<TRIPOS>BOND
     1   11   12 2  
     2    4   11 1  
     3    3   10 2  
     4    1    2 1  
     5    1    3 1  
     6    1    4 2  
     7    2    5 1  
     8    2    6 1  
     9    2    7 2  
    10    3    8 1  
    11    3    9 1  
    12    4   13 1  
    13    5   14 1  
    14    6   15 1  
    15    8   16 1  
    16    9   17 1  
    17   11   18 1  
# Name:          frag3-267-3/96164
# Creation time: Sat Jun  5 12:53:22 2010


@<TRIPOS>MOLECULE
frag3-267-3/96164
   18    17     1     1     1
SMALL
USER_CHARGES


@<TRIPOS>ATOM
      1 C1          1.5705   -0.2018   -0.2143 C.2        1 <1>        0.000
      2 P1          3.0429   -0.8306   -0.1649 P.3        1 <1>        0.000
      3 P2          1.5953    1.3872   -0.0864 P.3        1 <1>        0.000
      4 C2          0.5154   -0.9969   -0.3343 C.2        1 <1>        0.000
      5 O1          3.8406   -0.8157    1.1573 O.3        1 <1>        0.000
      6 O2          2.9935   -2.3018   -0.6100 O.3        1 <1>        0.000
      7 O3          3.9002   -0.1871   -1.1234 O.2        1 <1>        0.000
      8 O4          0.2279    1.9297    0.3379 O.3        1 <1>        0.000
      9 O5          2.6174    1.9845    0.9096 O.3        1 <1>        0.000
     10 O6          1.9370    2.0285   -1.3264 O.2        1 <1>        0.000
     11 C3         -0.8445   -0.5545   -0.1763 C.2        1 <1>        0.000
     12 O7         -1.4606   -0.5593    0.8749 O.2        1 <1>        0.000
     13 H           0.6890   -2.0477   -0.5664 H.spc      1 <1>        0.000
     14 H           3.3214   -1.2344    1.8477 H.spc      1 <1>        0.000
     15 H           2.4327   -2.7980   -0.0093 H.spc      1 <1>        0.000
     16 H          -0.0339    1.5216    1.1665 H.spc      1 <1>        0.000
     17 H           2.4682    1.6117    1.7816 H.spc      1 <1>        0.000
     18 H          -1.3620   -0.1878   -1.0628 H.spc      1 <1>        0.000
@<TRIPOS>BOND
     1   11   12 2  
     2    4   11 1  
     3    3   10 2  
     4    1    2 1  
     5    1    3 1  
     6    1    4 2  
     7    2    5 1  
     8    2    6 1  
     9    2    7 2  
    10    3    8 1  
    11    3    9 1  
    12    4   13 1  
    13    5   14 1  
    14    6   15 1  
    15    8   16 1  
    16    9   17 1  
    17   11   18 1  
# Name:          frag3-267-3/96164
# Creation time: Sat Jun  5 12:53:22 2010


@<TRIPOS>MOLECULE
frag3-267-3/96164
   18    17     1     1     1
SMALL
USER_CHARGES


@<TRIPOS>ATOM
      1 C1          1.6113   -0.1214    0.0183 C.2        1 <1>        0.000
      2 P1          3.0439   -0.8068   -0.2584 P.3        1 <1>        0.000
      3 P2          1.6599    1.4707   -0.0808 P.3        1 <1>        0.000
      4 C2          0.5554   -0.8835    0.2372 C.2        1 <1>        0.000
      5 O1          3.6548   -1.2017    1.1117 O.3        1 <1>        0.000
      6 O2          2.8548   -2.0844   -1.0947 O.3        1 <1>        0.000
      7 O3          3.8847    0.0328   -1.0724 O.2        1 <1>        0.000
      8 O4          3.0077    2.0873    0.3515 O.3        1 <1>        0.000
      9 O5          1.5279    1.8447   -1.5823 O.3        1 <1>        0.000
     10 O6          0.6490    2.0464    0.7482 O.2        1 <1>        0.000
     11 C3         -0.7641   -0.4140    0.5572 C.2        1 <1>        0.000
     12 O7         -1.7496   -1.0878    0.3082 O.2        1 <1>        0.000
     13 H           0.6972   -1.9621    0.1692 H.spc      1 <1>        0.000
     14 H           3.0347   -1.7579    1.5889 H.spc      1 <1>        0.000
     15 H           2.2984   -2.7012   -0.6134 H.spc      1 <1>        0.000
     16 H           3.7131    1.7214   -0.1871 H.spc      1 <1>        0.000
     17 H           2.2352    1.4263   -2.0785 H.spc      1 <1>        0.000
     18 H          -0.8864    0.5604    1.0303 H.spc      1 <1>        0.000
@<TRIPOS>BOND
     1   11   12 2  
     2    4   11 1  
     3    3   10 2  
     4    1    2 1  
     5    1    3 1  
     6    1    4 2  
     7    2    5 1  
     8    2    6 1  
     9    2    7 2  
    10    3    8 1  
    11    3    9 1  
    12    4   13 1  
    13    5   14 1  
    14    6   15 1  
    15    8   16 1  
    16    9   17 1  
    17   11   18 1  
# Name:          frag3-267-3/96164 -- energy: 0.960819
# Creation time: Sat Jun  5 12:53:22 2010


@<TRIPOS>MOLECULE
frag3-267-3/96164 -- energy: 0.960819
   18    17     1     1     1
SMALL
USER_CHARGES


@<TRIPOS>ATOM
      1 C1          1.5758   -0.1376   -0.0641 C.2        1 <1>        0.000
      2 P1          3.0120   -0.8288   -0.2190 P.3        1 <1>        0.000
      3 P2          1.6871    1.4480   -0.1193 P.3        1 <1>        0.000
      4 C2          0.4899   -0.8626    0.0905 C.2        1 <1>        0.000
      5 O1          3.8430   -0.5770   -1.4988 O.3        1 <1>        0.000
      6 O2          3.9435   -0.5508    0.9815 O.3        1 <1>        0.000
      7 O3          2.8054   -2.2486   -0.1893 O.2        1 <1>        0.000
      8 O4          3.1112    2.0306    0.0434 O.3        1 <1>        0.000
      9 O5          1.1402    2.0482   -1.4249 O.3        1 <1>        0.000
     10 O6          0.9352    2.0365    0.9504 O.2        1 <1>        0.000
     11 C3         -0.8212   -0.3667    0.3723 C.2        1 <1>        0.000
     12 O7         -1.7864   -1.1090    0.3209 O.2        1 <1>        0.000
     13 H           0.5994   -1.9429   -0.0051 H.spc      1 <1>        0.000
     14 H           4.0206    0.3626   -1.5840 H.spc      1 <1>        0.000
     15 H           4.1301    0.3897    1.0292 H.spc      1 <1>        0.000
     16 H           3.6802    1.6790   -0.6452 H.spc      1 <1>        0.000
     17 H           1.6188    1.6789   -2.1707 H.spc      1 <1>        0.000
     18 H          -0.9584    0.6823    0.6349 H.spc      1 <1>        0.000
@<TRIPOS>BOND
     1   11   12 2  
     2    4   11 1  
     3    3   10 2  
     4    1    2 1  
     5    1    3 1  
     6    1    4 2  
     7    2    5 1  
     8    2    6 1  
     9    2    7 2  
    10    3    8 1  
    11    3    9 1  
    12    4   13 1  
    13    5   14 1  
    14    6   15 1  
    15    8   16 1  
    16    9   17 1  
    17   11   18 1  
# Name:          frag3-267-3/96164 -- energy: -3.116486
# Creation time: Sat Jun  5 12:53:22 2010


@<TRIPOS>MOLECULE
frag3-267-3/96164 -- energy: -3.116486
   18    17     1     1     1
SMALL
USER_CHARGES


@<TRIPOS>ATOM
      1 C1          1.5994   -0.1291   -0.0825 C.2        1 <1>        0.000
      2 P1          3.0495   -0.8055   -0.0183 P.3        1 <1>        0.000
      3 P2          1.6599    1.4227   -0.4137 P.3        1 <1>        0.000
      4 C2          0.5201   -0.8687    0.1154 C.2        1 <1>        0.000
      5 O1          4.2912   -0.0264    0.4639 O.3        1 <1>        0.000
      6 O2          2.9586   -2.0744    0.8498 O.3        1 <1>        0.000
      7 O3          3.3648   -1.2885   -1.3369 O.2        1 <1>        0.000
      8 O4          2.9987    1.9580   -0.9621 O.3        1 <1>        0.000
      9 O5          0.5288    1.8443   -1.3630 O.3        1 <1>        0.000
     10 O6          1.4264    2.1958    0.7747 O.2        1 <1>        0.000
     11 C3         -0.8220   -0.3818    0.2618 C.2        1 <1>        0.000
     12 O7         -1.6397   -0.9643    0.9545 O.2        1 <1>        0.000
     13 H           0.6637   -1.9477    0.1725 H.spc      1 <1>        0.000
     14 H           4.1291    0.3180    1.3452 H.spc      1 <1>        0.000
     15 H           2.7487   -1.8281    1.7536 H.spc      1 <1>        0.000
     16 H           3.2259    1.4851   -1.7661 H.spc      1 <1>        0.000
     17 H           0.6134    1.3670   -2.1916 H.spc      1 <1>        0.000
     18 H          -1.1174    0.5296   -0.2580 H.spc      1 <1>        0.000
@<TRIPOS>BOND
     1   11   12 2  
     2    4   11 1  
     3    3   10 2  
     4    1    2 1  
     5    1    3 1  
     6    1    4 2  
     7    2    5 1  
     8    2    6 1  
     9    2    7 2  
    10    3    8 1  
    11    3    9 1  
    12    4   13 1  
    13    5   14 1  
    14    6   15 1  
    15    8   16 1  
    16    9   17 1  
    17   11   18 1  
# Name:          frag3-267-3/96164 -- energy: -2.670881
# Creation time: Sat Jun  5 12:53:22 2010


@<TRIPOS>MOLECULE
frag3-267-3/96164 -- energy: -2.670881
   18    17     1     1     1
SMALL
USER_CHARGES


@<TRIPOS>ATOM
      1 C1          1.5705   -0.2018   -0.2143 C.2        1 <1>        0.000
      2 P1          3.0429   -0.8306   -0.1649 P.3        1 <1>        0.000
      3 P2          1.5953    1.3872   -0.0864 P.3        1 <1>        0.000
      4 C2          0.5154   -0.9969   -0.3343 C.2        1 <1>        0.000
      5 O1          3.8406   -0.8157    1.1573 O.3        1 <1>        0.000
      6 O2          2.9935   -2.3018   -0.6100 O.3        1 <1>        0.000
      7 O3          3.9002   -0.1871   -1.1234 O.2        1 <1>        0.000
      8 O4          0.2279    1.9297    0.3379 O.3        1 <1>        0.000
      9 O5          2.6174    1.9845    0.9096 O.3        1 <1>        0.000
     10 O6          1.9370    2.0285   -1.3264 O.2        1 <1>        0.000
     11 C3         -0.8445   -0.5545   -0.1763 C.2        1 <1>        0.000
     12 O7         -1.4606   -0.5593    0.8749 O.2        1 <1>        0.000
     13 H           0.6890   -2.0477   -0.5664 H.spc      1 <1>        0.000
     14 H           3.3214   -1.2344    1.8477 H.spc      1 <1>        0.000
     15 H           2.4327   -2.7980   -0.0093 H.spc      1 <1>        0.000
     16 H          -0.0339    1.5216    1.1665 H.spc      1 <1>        0.000
     17 H           2.4682    1.6117    1.7816 H.spc      1 <1>        0.000
     18 H          -1.3620   -0.1878   -1.0628 H.spc      1 <1>        0.000
@<TRIPOS>BOND
     1   11   12 2  
     2    4   11 1  
     3    3   10 2  
     4    1    2 1  
     5    1    3 1  
     6    1    4 2  
     7    2    5 1  
     8    2    6 1  
     9    2    7 2  
    10    3    8 1  
    11    3    9 1  
    12    4   13 1  
    13    5   14 1  
    14    6   15 1  
    15    8   16 1  
    16    9   17 1  
    17   11   18 1  
# Name:          frag3-267-3/96164 -- energy: 2.070645
# Creation time: Sat Jun  5 12:53:22 2010


@<TRIPOS>MOLECULE
frag3-267-3/96164 -- energy: 2.070645
   18    17     1     1     1
SMALL
USER_CHARGES


@<TRIPOS>ATOM
      1 C1          1.6113   -0.1214    0.0183 C.2        1 <1>        0.000
      2 P1          3.0439   -0.8068   -0.2584 P.3        1 <1>        0.000
      3 P2          1.6599    1.4707   -0.0808 P.3        1 <1>        0.000
      4 C2          0.5554   -0.8835    0.2372 C.2        1 <1>        0.000
      5 O1          3.6548   -1.2017    1.1117 O.3        1 <1>        0.000
      6 O2          2.8548   -2.0844   -1.0947 O.3        1 <1>        0.000
      7 O3          3.8847    0.0328   -1.0724 O.2        1 <1>        0.000
      8 O4          3.0077    2.0873    0.3515 O.3        1 <1>        0.000
      9 O5          1.5279    1.8447   -1.5823 O.3        1 <1>        0.000
     10 O6          0.6490    2.0464    0.7482 O.2        1 <1>        0.000
     11 C3         -0.7641   -0.4140    0.5572 C.2        1 <1>        0.000
     12 O7         -1.7496   -1.0878    0.3082 O.2        1 <1>        0.000
     13 H           0.6972   -1.9621    0.1692 H.spc      1 <1>        0.000
     14 H           3.0347   -1.7579    1.5889 H.spc      1 <1>        0.000
     15 H           2.2984   -2.7012   -0.6134 H.spc      1 <1>        0.000
     16 H           3.7131    1.7214   -0.1871 H.spc      1 <1>        0.000
     17 H           2.2352    1.4263   -2.0785 H.spc      1 <1>        0.000
     18 H          -0.8864    0.5604    1.0303 H.spc      1 <1>        0.000
@<TRIPOS>BOND
     1   11   12 2  
     2    4   11 1  
     3    3   10 2  
     4    1    2 1  
     5    1    3 1  
     6    1    4 2  
     7    2    5 1  
     8    2    6 1  
     9    2    7 2  
    10    3    8 1  
    11    3    9 1  
    12    4   13 1  
    13    5   14 1  
    14    6   15 1  
    15    8   16 1  
    16    9   17 1  
    17   11   18 1  
