#      Rotatable Fragment
#      Build by yxyuan
#
# Name:          frag4-474-95/150395
# Creation time: Sat Jun  5 12:53:37 2010


@<TRIPOS>MOLECULE
frag4-474-95/150395
   20    21     1     1     1
SMALL
USER_CHARGES


@<TRIPOS>ATOM
      1 C1         -3.0775   -0.3308    0.3035 C.ar       1 <1>        0.000
      2 C2         -2.9483   -1.7123    0.5286 C.ar       1 <1>        0.000
      3 C3         -2.0334    0.3731   -0.3022 C.ar       1 <1>        0.000
      4 C4         -4.3808    0.3292    0.7492 C.3        1 <1>        0.000
      5 C5         -1.7594   -2.3638    0.1918 C.ar       1 <1>        0.000
      6 S1         -4.3068   -2.5974    1.2246 S.3        1 <1>        0.000
      7 C6         -0.8512   -0.2855   -0.6433 C.ar       1 <1>        0.000
      8 C7         -5.6119   -0.3684    0.1113 C.3        1 <1>        0.000
      9 C10        -0.7116   -1.6535   -0.3904 C.ar       1 <1>        0.000
     10 C11        -5.4972   -1.9204    0.0307 C.3        1 <1>        0.000
     11 H          -2.1424    1.4378   -0.5085 H.spc      1 <1>        0.000
     12 H          -4.4584    0.2476    1.8334 H.spc      1 <1>        0.000
     13 H          -4.3687    1.3717    0.4311 H.spc      1 <1>        0.000
     14 H          -1.6511   -3.4311    0.3850 H.spc      1 <1>        0.000
     15 H          -0.0350    0.2678   -1.1078 H.spc      1 <1>        0.000
     16 H          -5.6967    0.0010   -0.9107 H.spc      1 <1>        0.000
     17 H          -6.4718   -0.1421    0.7417 H.spc      1 <1>        0.000
     18 H           0.2163   -2.1639   -0.6485 H.spc      1 <1>        0.000
     19 H          -6.4765   -2.3410    0.2589 H.spc      1 <1>        0.000
     20 H          -5.1518   -2.1792   -0.9702 H.spc      1 <1>        0.000
@<TRIPOS>BOND
     1    6   10 1  
     2    5    9 ar 
     3    4    8 1  
     4    7    9 ar 
     5    8   10 1  
     6    3    7 ar 
     7    1    2 ar 
     8    1    3 ar 
     9    1    4 1  
    10    2    5 ar 
    11    2    6 1  
    12    3   11 1  
    13    4   12 1  
    14    4   13 1  
    15    5   14 1  
    16    7   15 1  
    17    8   16 1  
    18    8   17 1  
    19    9   18 1  
    20   10   19 1  
    21   10   20 1  
# Name:          frag4-474-95/150395 -- energy: -1.254274
# Creation time: Sat Jun  5 12:53:37 2010


@<TRIPOS>MOLECULE
frag4-474-95/150395 -- energy: -1.254274
   20    21     1     1     1
SMALL
USER_CHARGES


@<TRIPOS>ATOM
      1 C1         -3.0775   -0.3308    0.3035 C.ar       1 <1>        0.000
      2 C2         -2.9483   -1.7123    0.5286 C.ar       1 <1>        0.000
      3 C3         -2.0334    0.3731   -0.3022 C.ar       1 <1>        0.000
      4 C4         -4.3808    0.3292    0.7492 C.3        1 <1>        0.000
      5 C5         -1.7594   -2.3638    0.1918 C.ar       1 <1>        0.000
      6 S1         -4.3068   -2.5974    1.2246 S.3        1 <1>        0.000
      7 C6         -0.8512   -0.2855   -0.6433 C.ar       1 <1>        0.000
      8 C7         -5.6119   -0.3684    0.1113 C.3        1 <1>        0.000
      9 C10        -0.7116   -1.6535   -0.3904 C.ar       1 <1>        0.000
     10 C11        -5.4972   -1.9204    0.0307 C.3        1 <1>        0.000
     11 H          -2.1424    1.4378   -0.5085 H.spc      1 <1>        0.000
     12 H          -4.4584    0.2476    1.8334 H.spc      1 <1>        0.000
     13 H          -4.3687    1.3717    0.4311 H.spc      1 <1>        0.000
     14 H          -1.6511   -3.4311    0.3850 H.spc      1 <1>        0.000
     15 H          -0.0350    0.2678   -1.1078 H.spc      1 <1>        0.000
     16 H          -5.6967    0.0010   -0.9107 H.spc      1 <1>        0.000
     17 H          -6.4718   -0.1421    0.7417 H.spc      1 <1>        0.000
     18 H           0.2163   -2.1639   -0.6485 H.spc      1 <1>        0.000
     19 H          -6.4765   -2.3410    0.2589 H.spc      1 <1>        0.000
     20 H          -5.1518   -2.1792   -0.9702 H.spc      1 <1>        0.000
@<TRIPOS>BOND
     1    6   10 1  
     2    5    9 ar 
     3    4    8 1  
     4    7    9 ar 
     5    8   10 1  
     6    3    7 ar 
     7    1    2 ar 
     8    1    3 ar 
     9    1    4 1  
    10    2    5 ar 
    11    2    6 1  
    12    3   11 1  
    13    4   12 1  
    14    4   13 1  
    15    5   14 1  
    16    7   15 1  
    17    8   16 1  
    18    8   17 1  
    19    9   18 1  
    20   10   19 1  
    21   10   20 1  
