#      Rotatable Fragment
#      Build by yxyuan
#
# Name:          frag4-394-229/150395
# Creation time: Sat Jun  5 12:53:34 2010


@<TRIPOS>MOLECULE
frag4-394-229/150395
   21    22     1     1     1
SMALL
USER_CHARGES


@<TRIPOS>ATOM
      1 C1          2.3793    0.7029    0.0913 C.ar       1 <1>        0.000
      2 C2          2.4466   -0.7326    0.2105 C.ar       1 <1>        0.000
      3 C3          1.1306    1.2888   -0.0783 C.ar       1 <1>        0.000
      4 C4          3.6498    1.4709    0.1681 C.3        1 <1>        0.000
      5 C5          1.2577   -1.4129    0.0987 C.ar       1 <1>        0.000
      6 N1          3.6587   -1.3453    0.3277 N.pl3      1 <1>        0.000
      7 C6         -0.0244    0.5522   -0.1193 C.ar       1 <1>        0.000
      8 C7          4.7728    0.7251   -0.4976 C.3        1 <1>        0.000
      9 C8          0.0260   -0.8121    0.0028 C.ar       1 <1>        0.000
     10 C9          4.7563   -0.6740    0.0249 C.3        1 <1>        0.000
     11 H           1.0676    2.3720   -0.1823 H.spc      1 <1>        0.000
     12 H           3.5129    2.4243   -0.3422 H.spc      1 <1>        0.000
     13 H           3.9041    1.6213    1.2173 H.spc      1 <1>        0.000
     14 H           1.2945   -2.5022    0.0852 H.spc      1 <1>        0.000
     15 H           3.7181   -2.3125    0.6460 H.spc      1 <1>        0.000
     16 H          -0.9843    1.0519   -0.2492 H.spc      1 <1>        0.000
     17 H           5.7284    1.2017   -0.2793 H.spc      1 <1>        0.000
     18 H           4.6434    0.7288   -1.5799 H.spc      1 <1>        0.000
     19 H          -0.8882   -1.4054    0.0233 H.spc      1 <1>        0.000
     20 H           5.1597   -1.2443   -0.8118 H.spc      1 <1>        0.000
     21 H           5.2460   -0.5712    0.9933 H.spc      1 <1>        0.000
@<TRIPOS>BOND
     1    6   10 1  
     2    5    9 ar 
     3    4    8 1  
     4    7    9 ar 
     5    8   10 1  
     6    3    7 ar 
     7    1    2 ar 
     8    1    3 ar 
     9    1    4 1  
    10    2    5 ar 
    11    2    6 1  
    12    3   11 1  
    13    4   12 1  
    14    4   13 1  
    15    5   14 1  
    16    6   15 1  
    17    7   16 1  
    18    8   17 1  
    19    8   18 1  
    20    9   19 1  
    21   10   20 1  
    22   10   21 1  
# Name:          frag4-394-229/150395 -- energy: -0.959332
# Creation time: Sat Jun  5 12:53:34 2010


@<TRIPOS>MOLECULE
frag4-394-229/150395 -- energy: -0.959332
   21    22     1     1     1
SMALL
USER_CHARGES


@<TRIPOS>ATOM
      1 C1          2.3793    0.7029    0.0913 C.ar       1 <1>        0.000
      2 C2          2.4466   -0.7326    0.2105 C.ar       1 <1>        0.000
      3 C3          1.1306    1.2888   -0.0783 C.ar       1 <1>        0.000
      4 C4          3.6498    1.4709    0.1681 C.3        1 <1>        0.000
      5 C5          1.2577   -1.4129    0.0987 C.ar       1 <1>        0.000
      6 N1          3.6587   -1.3453    0.3277 N.pl3      1 <1>        0.000
      7 C6         -0.0244    0.5522   -0.1193 C.ar       1 <1>        0.000
      8 C7          4.7728    0.7251   -0.4976 C.3        1 <1>        0.000
      9 C8          0.0260   -0.8121    0.0028 C.ar       1 <1>        0.000
     10 C9          4.7563   -0.6740    0.0249 C.3        1 <1>        0.000
     11 H           1.0676    2.3720   -0.1823 H.spc      1 <1>        0.000
     12 H           3.5129    2.4243   -0.3422 H.spc      1 <1>        0.000
     13 H           3.9041    1.6213    1.2173 H.spc      1 <1>        0.000
     14 H           1.2945   -2.5022    0.0852 H.spc      1 <1>        0.000
     15 H           3.7181   -2.3125    0.6460 H.spc      1 <1>        0.000
     16 H          -0.9843    1.0519   -0.2492 H.spc      1 <1>        0.000
     17 H           5.7284    1.2017   -0.2793 H.spc      1 <1>        0.000
     18 H           4.6434    0.7288   -1.5799 H.spc      1 <1>        0.000
     19 H          -0.8882   -1.4054    0.0233 H.spc      1 <1>        0.000
     20 H           5.1597   -1.2443   -0.8118 H.spc      1 <1>        0.000
     21 H           5.2460   -0.5712    0.9933 H.spc      1 <1>        0.000
@<TRIPOS>BOND
     1    6   10 1  
     2    5    9 ar 
     3    4    8 1  
     4    7    9 ar 
     5    8   10 1  
     6    3    7 ar 
     7    1    2 ar 
     8    1    3 ar 
     9    1    4 1  
    10    2    5 ar 
    11    2    6 1  
    12    3   11 1  
    13    4   12 1  
    14    4   13 1  
    15    5   14 1  
    16    6   15 1  
    17    7   16 1  
    18    8   17 1  
    19    8   18 1  
    20    9   19 1  
    21   10   20 1  
    22   10   21 1  
