#      Rotatable Fragment
#      Build by yxyuan
#
# Name:          frag5-605-34/41815
# Creation time: Sat Jun  5 12:52:58 2010


@<TRIPOS>MOLECULE
frag5-605-34/41815
   17    17     1     1     1
SMALL
USER_CHARGES


@<TRIPOS>ATOM
      1 C8         -0.4398    0.8609    0.6493 C.3        1 <1>        0.000
      2 C9         -1.5344    1.8727    0.2961 C.3        1 <1>        0.000
      3 C10        -2.8040    1.2056   -0.2570 C.3        1 <1>        0.000
      4 C11        -3.3206    0.1314    0.7115 C.3        1 <1>        0.000
      5 C12        -2.4754    0.0583    1.9867 C.3        1 <1>        0.000
      6 C13        -1.0273   -0.1377    1.6121 C.2        1 <1>        0.000
      7 O3         -0.3675   -1.0675    2.0679 O.2        1 <1>        0.000
      8 H           0.4114    1.3681    1.1034 H.spc      1 <1>        0.000
      9 H          -0.0871    0.3563   -0.2502 H.spc      1 <1>        0.000
     10 H          -1.1414    2.5348   -0.4754 H.spc      1 <1>        0.000
     11 H          -1.8060    2.4036    1.2085 H.spc      1 <1>        0.000
     12 H          -2.5669    0.7345   -1.2109 H.spc      1 <1>        0.000
     13 H          -3.5748    1.9660   -0.3826 H.spc      1 <1>        0.000
     14 H          -4.3421    0.3874    0.9927 H.spc      1 <1>        0.000
     15 H          -3.2672   -0.8350    0.2102 H.spc      1 <1>        0.000
     16 H          -2.5849    0.9841    2.5514 H.spc      1 <1>        0.000
     17 H          -2.8108   -0.7780    2.6001 H.spc      1 <1>        0.000
@<TRIPOS>BOND
     1    5    6 1  
     2    4    5 1  
     3    6    7 2  
     4    1    2 1  
     5    1    6 1  
     6    2    3 1  
     7    3    4 1  
     8    1    8 1  
     9    1    9 1  
    10    2   10 1  
    11    2   11 1  
    12    3   12 1  
    13    3   13 1  
    14    4   14 1  
    15    4   15 1  
    16    5   16 1  
    17    5   17 1  
# Name:          frag5-605-34/41815 -- energy: -0.795279
# Creation time: Sat Jun  5 12:52:58 2010


@<TRIPOS>MOLECULE
frag5-605-34/41815 -- energy: -0.795279
   17    17     1     1     1
SMALL
USER_CHARGES


@<TRIPOS>ATOM
      1 C8         -0.4398    0.8609    0.6493 C.3        1 <1>        0.000
      2 C9         -1.5344    1.8727    0.2961 C.3        1 <1>        0.000
      3 C10        -2.8040    1.2056   -0.2570 C.3        1 <1>        0.000
      4 C11        -3.3206    0.1314    0.7115 C.3        1 <1>        0.000
      5 C12        -2.4754    0.0583    1.9867 C.3        1 <1>        0.000
      6 C13        -1.0273   -0.1377    1.6121 C.2        1 <1>        0.000
      7 O3         -0.3675   -1.0675    2.0679 O.2        1 <1>        0.000
      8 H           0.4114    1.3681    1.1034 H.spc      1 <1>        0.000
      9 H          -0.0871    0.3563   -0.2502 H.spc      1 <1>        0.000
     10 H          -1.1414    2.5348   -0.4754 H.spc      1 <1>        0.000
     11 H          -1.8060    2.4036    1.2085 H.spc      1 <1>        0.000
     12 H          -2.5669    0.7345   -1.2109 H.spc      1 <1>        0.000
     13 H          -3.5748    1.9660   -0.3826 H.spc      1 <1>        0.000
     14 H          -4.3421    0.3874    0.9927 H.spc      1 <1>        0.000
     15 H          -3.2672   -0.8350    0.2102 H.spc      1 <1>        0.000
     16 H          -2.5849    0.9841    2.5514 H.spc      1 <1>        0.000
     17 H          -2.8108   -0.7780    2.6001 H.spc      1 <1>        0.000
@<TRIPOS>BOND
     1    5    6 1  
     2    4    5 1  
     3    6    7 2  
     4    1    2 1  
     5    1    6 1  
     6    2    3 1  
     7    3    4 1  
     8    1    8 1  
     9    1    9 1  
    10    2   10 1  
    11    2   11 1  
    12    3   12 1  
    13    3   13 1  
    14    4   14 1  
    15    4   15 1  
    16    5   16 1  
    17    5   17 1  
