#      Rotatable Fragment
#      Build by yxyuan
#
# Name:          frag4-450-114/150395
# Creation time: Sat Jun  5 12:53:36 2010


@<TRIPOS>MOLECULE
frag4-450-114/150395
   14    14     1     1     1
SMALL
USER_CHARGES


@<TRIPOS>ATOM
      1 C1          1.3093   -0.7146    0.0119 C.2        1 <1>        0.000
      2 C2          1.1639    0.7140   -0.0917 C.3        1 <1>        0.000
      3 C4          0.1348   -1.3389    0.1248 C.2        1 <1>        0.000
      4 C5         -0.1301    1.3661   -0.1156 C.3        1 <1>        0.000
      5 C6         -1.1641   -0.7127    0.1050 C.2        1 <1>        0.000
      6 C7         -1.3505    0.6120   -0.0286 C.2        1 <1>        0.000
      7 H           2.2704   -1.2286   -0.0005 H.spc      1 <1>        0.000
      8 H           1.5773    0.9386   -1.0749 H.spc      1 <1>        0.000
      9 H           1.6136    1.0805    0.8311 H.spc      1 <1>        0.000
     10 H           0.1598   -2.4222    0.2429 H.spc      1 <1>        0.000
     11 H          -0.1746    1.8215   -1.1049 H.spc      1 <1>        0.000
     12 H          -0.1332    1.9731    0.7898 H.spc      1 <1>        0.000
     13 H          -2.0437   -1.3488    0.2039 H.spc      1 <1>        0.000
     14 H          -2.3377    1.0724   -0.0674 H.spc      1 <1>        0.000
@<TRIPOS>BOND
     1    1    2 1  
     2    1    3 2  
     3    2    4 1  
     4    3    5 1  
     5    4    6 1  
     6    5    6 2  
     7    1    7 1  
     8    2    8 1  
     9    2    9 1  
    10    3   10 1  
    11    4   11 1  
    12    4   12 1  
    13    5   13 1  
    14    6   14 1  
# Name:          frag4-450-114/150395 -- energy: 0.024404
# Creation time: Sat Jun  5 12:53:36 2010


@<TRIPOS>MOLECULE
frag4-450-114/150395 -- energy: 0.024404
   14    14     1     1     1
SMALL
USER_CHARGES


@<TRIPOS>ATOM
      1 C1          1.3093   -0.7146    0.0119 C.2        1 <1>        0.000
      2 C2          1.1639    0.7140   -0.0917 C.3        1 <1>        0.000
      3 C4          0.1348   -1.3389    0.1248 C.2        1 <1>        0.000
      4 C5         -0.1301    1.3661   -0.1156 C.3        1 <1>        0.000
      5 C6         -1.1641   -0.7127    0.1050 C.2        1 <1>        0.000
      6 C7         -1.3505    0.6120   -0.0286 C.2        1 <1>        0.000
      7 H           2.2704   -1.2286   -0.0005 H.spc      1 <1>        0.000
      8 H           1.5773    0.9386   -1.0749 H.spc      1 <1>        0.000
      9 H           1.6136    1.0805    0.8311 H.spc      1 <1>        0.000
     10 H           0.1598   -2.4222    0.2429 H.spc      1 <1>        0.000
     11 H          -0.1746    1.8215   -1.1049 H.spc      1 <1>        0.000
     12 H          -0.1332    1.9731    0.7898 H.spc      1 <1>        0.000
     13 H          -2.0437   -1.3488    0.2039 H.spc      1 <1>        0.000
     14 H          -2.3377    1.0724   -0.0674 H.spc      1 <1>        0.000
@<TRIPOS>BOND
     1    1    2 1  
     2    1    3 2  
     3    2    4 1  
     4    3    5 1  
     5    4    6 1  
     6    5    6 2  
     7    1    7 1  
     8    2    8 1  
     9    2    9 1  
    10    3   10 1  
    11    4   11 1  
    12    4   12 1  
    13    5   13 1  
    14    6   14 1  
