#      Rotatable Fragment
#      Build by yxyuan
#
# Name:          frag5-668-24/41815
# Creation time: Sat Jun  5 12:53:03 2010


@<TRIPOS>MOLECULE
frag5-668-24/41815
   23    24     1     1     1
SMALL
USER_CHARGES


@<TRIPOS>ATOM
      1 C17        10.2819    0.4597    3.0199 C.2        1 <1>        0.000
      2 O6         10.2528    0.3459    1.8047 O.2        1 <1>        0.000
      3 N5         10.8767   -0.4169    3.8524 N.am       1 <1>        0.000
      4 C18        10.9923   -0.1412    5.2776 C.3        1 <1>        0.000
      5 C19        10.3348   -1.2876    6.0568 C.3        1 <1>        0.000
      6 C20        10.8484   -2.6442    5.5964 C.ar       1 <1>        0.000
      7 C21        11.4034   -2.8061    4.3021 C.ar       1 <1>        0.000
      8 C22        11.9175   -4.0517    3.9304 C.ar       1 <1>        0.000
      9 C23        11.8667   -5.1397    4.7968 C.ar       1 <1>        0.000
     10 C24        11.2833   -4.9933    6.0561 C.ar       1 <1>        0.000
     11 C25        10.7748   -3.7562    6.4435 C.ar       1 <1>        0.000
     12 C26        11.4489   -1.6541    3.3201 C.3        1 <1>        0.000
     13 H           9.7939    1.3289    3.4610 H.spc      1 <1>        0.000
     14 H          12.0435   -0.0610    5.5546 H.spc      1 <1>        0.000
     15 H          10.4948    0.7995    5.5138 H.spc      1 <1>        0.000
     16 H           9.2593   -1.2495    5.8837 H.spc      1 <1>        0.000
     17 H          10.5753   -1.1686    7.1133 H.spc      1 <1>        0.000
     18 H          12.3662   -4.1730    2.9445 H.spc      1 <1>        0.000
     19 H          12.2805   -6.1013    4.4933 H.spc      1 <1>        0.000
     20 H          11.2259   -5.8447    6.7343 H.spc      1 <1>        0.000
     21 H          10.3109   -3.6518    7.4243 H.spc      1 <1>        0.000
     22 H          12.4961   -1.4598    3.0885 H.spc      1 <1>        0.000
     23 H          10.8606   -1.9408    2.4484 H.spc      1 <1>        0.000
@<TRIPOS>BOND
     1    8    9 ar 
     2    4    5 1  
     3    6    7 ar 
     4    3   12 1  
     5    3    4 1  
     6   10   11 ar 
     7    7   12 1  
     8    9   10 ar 
     9    5    6 1  
    10    1    2 2  
    11    1    3 am 
    12    7    8 ar 
    13    6   11 ar 
    14    1   13 1  
    15    4   14 1  
    16    4   15 1  
    17    5   16 1  
    18    5   17 1  
    19    8   18 1  
    20    9   19 1  
    21   10   20 1  
    22   11   21 1  
    23   12   22 1  
    24   12   23 1  
# Name:          frag5-668-24/41815
# Creation time: Sat Jun  5 12:53:03 2010


@<TRIPOS>MOLECULE
frag5-668-24/41815
   23    24     1     1     1
SMALL
USER_CHARGES


@<TRIPOS>ATOM
      1 C17        10.8293    0.5962    3.1305 C.2        1 <1>        0.000
      2 O6         11.0207    0.6845    1.9287 O.2        1 <1>        0.000
      3 N5         10.4935   -0.5436    3.7667 N.am       1 <1>        0.000
      4 C18         9.8182   -0.4834    5.0546 C.3        1 <1>        0.000
      5 C19        10.6842   -1.1919    6.1013 C.3        1 <1>        0.000
      6 C20        11.0579   -2.5896    5.6358 C.ar       1 <1>        0.000
      7 C21        11.1775   -2.8845    4.2530 C.ar       1 <1>        0.000
      8 C22        11.5686   -4.1681    3.8612 C.ar       1 <1>        0.000
      9 C23        11.8130   -5.1660    4.7992 C.ar       1 <1>        0.000
     10 C24        11.6557   -4.8899    6.1580 C.ar       1 <1>        0.000
     11 C25        11.2757   -3.6142    6.5648 C.ar       1 <1>        0.000
     12 C26        10.8872   -1.8349    3.2029 C.3        1 <1>        0.000
     13 H          10.9372    1.5001    3.7301 H.spc      1 <1>        0.000
     14 H           9.6671    0.5567    5.3436 H.spc      1 <1>        0.000
     15 H           8.8475   -0.9743    4.9854 H.spc      1 <1>        0.000
     16 H          10.1194   -1.2701    7.0303 H.spc      1 <1>        0.000
     17 H          11.5971   -0.6154    6.2508 H.spc      1 <1>        0.000
     18 H          11.6843   -4.3914    2.8006 H.spc      1 <1>        0.000
     19 H          12.1257   -6.1584    4.4744 H.spc      1 <1>        0.000
     20 H          11.8298   -5.6707    6.8984 H.spc      1 <1>        0.000
     21 H          11.1451   -3.4088    7.6273 H.spc      1 <1>        0.000
     22 H          11.8024   -1.6791    2.6318 H.spc      1 <1>        0.000
     23 H          10.0561   -2.1965    2.5974 H.spc      1 <1>        0.000
@<TRIPOS>BOND
     1    8    9 ar 
     2    4    5 1  
     3    6    7 ar 
     4    3   12 1  
     5    3    4 1  
     6   10   11 ar 
     7    7   12 1  
     8    9   10 ar 
     9    5    6 1  
    10    1    2 2  
    11    1    3 am 
    12    7    8 ar 
    13    6   11 ar 
    14    1   13 1  
    15    4   14 1  
    16    4   15 1  
    17    5   16 1  
    18    5   17 1  
    19    8   18 1  
    20    9   19 1  
    21   10   20 1  
    22   11   21 1  
    23   12   22 1  
    24   12   23 1  
# Name:          frag5-668-24/41815 -- energy: -1.795918
# Creation time: Sat Jun  5 12:53:03 2010


@<TRIPOS>MOLECULE
frag5-668-24/41815 -- energy: -1.795918
   23    24     1     1     1
SMALL
USER_CHARGES


@<TRIPOS>ATOM
      1 C17        10.2819    0.4597    3.0199 C.2        1 <1>        0.000
      2 O6         10.2528    0.3459    1.8047 O.2        1 <1>        0.000
      3 N5         10.8767   -0.4169    3.8524 N.am       1 <1>        0.000
      4 C18        10.9923   -0.1412    5.2776 C.3        1 <1>        0.000
      5 C19        10.3348   -1.2876    6.0568 C.3        1 <1>        0.000
      6 C20        10.8484   -2.6442    5.5964 C.ar       1 <1>        0.000
      7 C21        11.4034   -2.8061    4.3021 C.ar       1 <1>        0.000
      8 C22        11.9175   -4.0517    3.9304 C.ar       1 <1>        0.000
      9 C23        11.8667   -5.1397    4.7968 C.ar       1 <1>        0.000
     10 C24        11.2833   -4.9933    6.0561 C.ar       1 <1>        0.000
     11 C25        10.7748   -3.7562    6.4435 C.ar       1 <1>        0.000
     12 C26        11.4489   -1.6541    3.3201 C.3        1 <1>        0.000
     13 H           9.7939    1.3289    3.4610 H.spc      1 <1>        0.000
     14 H          12.0435   -0.0610    5.5546 H.spc      1 <1>        0.000
     15 H          10.4948    0.7995    5.5138 H.spc      1 <1>        0.000
     16 H           9.2593   -1.2495    5.8837 H.spc      1 <1>        0.000
     17 H          10.5753   -1.1686    7.1133 H.spc      1 <1>        0.000
     18 H          12.3662   -4.1730    2.9445 H.spc      1 <1>        0.000
     19 H          12.2805   -6.1013    4.4933 H.spc      1 <1>        0.000
     20 H          11.2259   -5.8447    6.7343 H.spc      1 <1>        0.000
     21 H          10.3109   -3.6518    7.4243 H.spc      1 <1>        0.000
     22 H          12.4961   -1.4598    3.0885 H.spc      1 <1>        0.000
     23 H          10.8606   -1.9408    2.4484 H.spc      1 <1>        0.000
@<TRIPOS>BOND
     1    8    9 ar 
     2    4    5 1  
     3    6    7 ar 
     4    3   12 1  
     5    3    4 1  
     6   10   11 ar 
     7    7   12 1  
     8    9   10 ar 
     9    5    6 1  
    10    1    2 2  
    11    1    3 am 
    12    7    8 ar 
    13    6   11 ar 
    14    1   13 1  
    15    4   14 1  
    16    4   15 1  
    17    5   16 1  
    18    5   17 1  
    19    8   18 1  
    20    9   19 1  
    21   10   20 1  
    22   11   21 1  
    23   12   22 1  
    24   12   23 1  
# Name:          frag5-668-24/41815 -- energy: -1.879024
# Creation time: Sat Jun  5 12:53:03 2010


@<TRIPOS>MOLECULE
frag5-668-24/41815 -- energy: -1.879024
   23    24     1     1     1
SMALL
USER_CHARGES


@<TRIPOS>ATOM
      1 C17        10.8293    0.5962    3.1305 C.2        1 <1>        0.000
      2 O6         11.0207    0.6845    1.9287 O.2        1 <1>        0.000
      3 N5         10.4935   -0.5436    3.7667 N.am       1 <1>        0.000
      4 C18         9.8182   -0.4834    5.0546 C.3        1 <1>        0.000
      5 C19        10.6842   -1.1919    6.1013 C.3        1 <1>        0.000
      6 C20        11.0579   -2.5896    5.6358 C.ar       1 <1>        0.000
      7 C21        11.1775   -2.8845    4.2530 C.ar       1 <1>        0.000
      8 C22        11.5686   -4.1681    3.8612 C.ar       1 <1>        0.000
      9 C23        11.8130   -5.1660    4.7992 C.ar       1 <1>        0.000
     10 C24        11.6557   -4.8899    6.1580 C.ar       1 <1>        0.000
     11 C25        11.2757   -3.6142    6.5648 C.ar       1 <1>        0.000
     12 C26        10.8872   -1.8349    3.2029 C.3        1 <1>        0.000
     13 H          10.9372    1.5001    3.7301 H.spc      1 <1>        0.000
     14 H           9.6671    0.5567    5.3436 H.spc      1 <1>        0.000
     15 H           8.8475   -0.9743    4.9854 H.spc      1 <1>        0.000
     16 H          10.1194   -1.2701    7.0303 H.spc      1 <1>        0.000
     17 H          11.5971   -0.6154    6.2508 H.spc      1 <1>        0.000
     18 H          11.6843   -4.3914    2.8006 H.spc      1 <1>        0.000
     19 H          12.1257   -6.1584    4.4744 H.spc      1 <1>        0.000
     20 H          11.8298   -5.6707    6.8984 H.spc      1 <1>        0.000
     21 H          11.1451   -3.4088    7.6273 H.spc      1 <1>        0.000
     22 H          11.8024   -1.6791    2.6318 H.spc      1 <1>        0.000
     23 H          10.0561   -2.1965    2.5974 H.spc      1 <1>        0.000
@<TRIPOS>BOND
     1    8    9 ar 
     2    4    5 1  
     3    6    7 ar 
     4    3   12 1  
     5    3    4 1  
     6   10   11 ar 
     7    7   12 1  
     8    9   10 ar 
     9    5    6 1  
    10    1    2 2  
    11    1    3 am 
    12    7    8 ar 
    13    6   11 ar 
    14    1   13 1  
    15    4   14 1  
    16    4   15 1  
    17    5   16 1  
    18    5   17 1  
    19    8   18 1  
    20    9   19 1  
    21   10   20 1  
    22   11   21 1  
    23   12   22 1  
    24   12   23 1  
