#      Rotatable Fragment
#      Build by yxyuan
#
# Name:          frag3-272-3/96164
# Creation time: Sat Jun  5 12:53:23 2010


@<TRIPOS>MOLECULE
frag3-272-3/96164
    8     7     1     1     1
SMALL
USER_CHARGES


@<TRIPOS>ATOM
      1 S2          1.6064    0.5908   -0.6813 S.3        1 <1>        0.000
      2 C11         0.5439   -0.0023    0.4805 C.2        1 <1>        0.000
      3 C13        -0.7687   -0.2215    0.3914 C.2        1 <1>        0.000
      4 C18        -1.5336    0.0761   -0.7623 C.1        1 <1>        0.000
      5 N7         -2.2092    0.2802   -1.6787 N.1        1 <1>        0.000
      6 H           2.8323    0.6510   -0.1691 H.spc      1 <1>        0.000
      7 H           0.9927   -0.2418    1.4445 H.spc      1 <1>        0.000
      8 H          -1.2796   -0.6526    1.2524 H.spc      1 <1>        0.000
@<TRIPOS>BOND
     1    1    2 1  
     2    2    3 2  
     3    3    4 1  
     4    4    5 3  
     5    1    6 1  
     6    2    7 1  
     7    3    8 1  
# Name:          frag3-272-3/96164 -- energy: -0.326243
# Creation time: Sat Jun  5 12:53:23 2010


@<TRIPOS>MOLECULE
frag3-272-3/96164 -- energy: -0.326243
    8     7     1     1     1
SMALL
USER_CHARGES


@<TRIPOS>ATOM
      1 S2          1.6064    0.5908   -0.6813 S.3        1 <1>        0.000
      2 C11         0.5439   -0.0023    0.4805 C.2        1 <1>        0.000
      3 C13        -0.7687   -0.2215    0.3914 C.2        1 <1>        0.000
      4 C18        -1.5336    0.0761   -0.7623 C.1        1 <1>        0.000
      5 N7         -2.2092    0.2802   -1.6787 N.1        1 <1>        0.000
      6 H           2.8323    0.6510   -0.1691 H.spc      1 <1>        0.000
      7 H           0.9927   -0.2418    1.4445 H.spc      1 <1>        0.000
      8 H          -1.2796   -0.6526    1.2524 H.spc      1 <1>        0.000
@<TRIPOS>BOND
     1    1    2 1  
     2    2    3 2  
     3    3    4 1  
     4    4    5 3  
     5    1    6 1  
     6    2    7 1  
     7    3    8 1  
