#      Rotatable Fragment
#      Build by yxyuan
#
# Name:          frag4-404-57/48856
# Creation time: Sat Jun  5 12:51:56 2010


@<TRIPOS>MOLECULE
frag4-404-57/48856
   16    16     1     1     1
SMALL
USER_CHARGES


@<TRIPOS>ATOM
      1 C1          1.4372    1.0928    0.4487 C.3        1 <1>        0.000
      2 C2          2.1720    1.5901    1.6692 C.3        1 <1>        0.000
      3 C3          1.2521    2.0765    2.7604 C.3        1 <1>        0.000
      4 C4          0.2402    3.0475    2.2013 C.3        1 <1>        0.000
      5 C5         -0.0992    3.0391    0.7616 C.2        1 <1>        0.000
      6 C6          0.4634    2.1170   -0.0335 C.2        1 <1>        0.000
      7 H           2.1607    0.8941   -0.3420 H.spc      1 <1>        0.000
      8 H           0.8938    0.1847    0.7097 H.spc      1 <1>        0.000
      9 H           2.7921    2.4318    1.3608 H.spc      1 <1>        0.000
     10 H           2.7477    0.7560    2.0704 H.spc      1 <1>        0.000
     11 H           1.8433    2.5806    3.5248 H.spc      1 <1>        0.000
     12 H           0.7264    1.2230    3.1884 H.spc      1 <1>        0.000
     13 H           0.6919    4.0262    2.3632 H.spc      1 <1>        0.000
     14 H          -0.6920    2.7760    2.6967 H.spc      1 <1>        0.000
     15 H          -0.7959    3.7711    0.3531 H.spc      1 <1>        0.000
     16 H           0.1950    2.1152   -1.0899 H.spc      1 <1>        0.000
@<TRIPOS>BOND
     1    1    6 1  
     2    1    2 1  
     3    2    3 1  
     4    3    4 1  
     5    4    5 1  
     6    5    6 2  
     7    1    7 1  
     8    1    8 1  
     9    2    9 1  
    10    2   10 1  
    11    3   11 1  
    12    3   12 1  
    13    4   13 1  
    14    4   14 1  
    15    5   15 1  
    16    6   16 1  
# Name:          frag4-404-57/48856 -- energy: -0.924673
# Creation time: Sat Jun  5 12:51:56 2010


@<TRIPOS>MOLECULE
frag4-404-57/48856 -- energy: -0.924673
   16    16     1     1     1
SMALL
USER_CHARGES


@<TRIPOS>ATOM
      1 C1          1.4372    1.0928    0.4487 C.3        1 <1>        0.000
      2 C2          2.1720    1.5901    1.6692 C.3        1 <1>        0.000
      3 C3          1.2521    2.0765    2.7604 C.3        1 <1>        0.000
      4 C4          0.2402    3.0475    2.2013 C.3        1 <1>        0.000
      5 C5         -0.0992    3.0391    0.7616 C.2        1 <1>        0.000
      6 C6          0.4634    2.1170   -0.0335 C.2        1 <1>        0.000
      7 H           2.1607    0.8941   -0.3420 H.spc      1 <1>        0.000
      8 H           0.8938    0.1847    0.7097 H.spc      1 <1>        0.000
      9 H           2.7921    2.4318    1.3608 H.spc      1 <1>        0.000
     10 H           2.7477    0.7560    2.0704 H.spc      1 <1>        0.000
     11 H           1.8433    2.5806    3.5248 H.spc      1 <1>        0.000
     12 H           0.7264    1.2230    3.1884 H.spc      1 <1>        0.000
     13 H           0.6919    4.0262    2.3632 H.spc      1 <1>        0.000
     14 H          -0.6920    2.7760    2.6967 H.spc      1 <1>        0.000
     15 H          -0.7959    3.7711    0.3531 H.spc      1 <1>        0.000
     16 H           0.1950    2.1152   -1.0899 H.spc      1 <1>        0.000
@<TRIPOS>BOND
     1    1    6 1  
     2    1    2 1  
     3    2    3 1  
     4    3    4 1  
     5    4    5 1  
     6    5    6 2  
     7    1    7 1  
     8    1    8 1  
     9    2    9 1  
    10    2   10 1  
    11    3   11 1  
    12    3   12 1  
    13    4   13 1  
    14    4   14 1  
    15    5   15 1  
    16    6   16 1  
