#      Rotatable Fragment
#      Build by yxyuan
#
# Name:          frag4-490-31/48856
# Creation time: Sat Jun  5 12:52:49 2010


@<TRIPOS>MOLECULE
frag4-490-31/48856
   49    50     1     1     1
SMALL
USER_CHARGES


@<TRIPOS>ATOM
      1 N1          0.5298   -1.5195   -3.2230 N.3        1 <1>        0.000
      2 C1          0.0957   -2.8539   -3.1615 C.3        1 <1>        0.000
      3 C2          1.1621   -3.8712   -3.1453 C.3        1 <1>        0.000
      4 N2          0.9257   -5.2342   -3.1393 N.3        1 <1>        0.000
      5 C3         -0.3707   -5.8162   -3.1867 C.3        1 <1>        0.000
      6 C4         -0.1236   -7.0842   -2.4127 C.3        1 <1>        0.000
      7 C5          1.2663   -7.4886   -2.8245 C.3        1 <1>        0.000
      8 C6          1.9788   -6.1721   -3.0253 C.3        1 <1>        0.000
      9 O1         -3.5823   -1.9184   -3.3743 O.3        1 <1>        0.000
     10 C8         -0.7494   -6.1072   -4.6139 C.3        1 <1>        0.000
     11 N3         -1.9790   -5.8724   -5.2048 N.3        1 <1>        0.000
     12 C9         -3.0659   -5.3188   -4.5229 C.3        1 <1>        0.000
     13 C10        -4.3313   -5.2815   -5.3028 C.3        1 <1>        0.000
     14 N4         -5.3937   -4.4219   -5.0311 N.3        1 <1>        0.000
     15 C11        -5.3457   -3.4513   -4.0175 C.3        1 <1>        0.000
     16 C12        -4.4222   -2.3150   -4.2945 C.3        1 <1>        0.000
     17 C13        -2.6380   -0.9589   -3.7287 C.3        1 <1>        0.000
     18 C14        -1.7265   -0.5589   -2.5944 C.3        1 <1>        0.000
     19 C15        -0.2822   -0.4220   -2.9520 C.3        1 <1>        0.000
     20 H           0.7462   -1.3995   -4.2125 H.spc      1 <1>        0.000
     21 H          -0.4468   -2.9596   -2.2220 H.spc      1 <1>        0.000
     22 H          -0.4873   -3.0314   -4.0652 H.spc      1 <1>        0.000
     23 H           1.6405   -3.7046   -2.1802 H.spc      1 <1>        0.000
     24 H           1.6586   -3.7162   -4.1032 H.spc      1 <1>        0.000
     25 H          -1.1801   -5.2015   -2.7929 H.spc      1 <1>        0.000
     26 H          -0.2123   -6.9382   -1.3362 H.spc      1 <1>        0.000
     27 H          -0.8627   -7.8551   -2.6308 H.spc      1 <1>        0.000
     28 H           1.7546   -8.1157   -2.0786 H.spc      1 <1>        0.000
     29 H           1.2704   -8.1045   -3.7238 H.spc      1 <1>        0.000
     30 H           2.6258   -6.1792   -3.9025 H.spc      1 <1>        0.000
     31 H           2.6574   -5.9374   -2.2052 H.spc      1 <1>        0.000
     32 H          -0.1075   -5.4144   -5.1580 H.spc      1 <1>        0.000
     33 H          -0.6974   -7.1957   -4.6382 H.spc      1 <1>        0.000
     34 H          -1.7646   -5.1651   -5.9078 H.spc      1 <1>        0.000
     35 H          -3.2479   -5.9468   -3.6508 H.spc      1 <1>        0.000
     36 H          -2.8041   -4.2863   -4.2914 H.spc      1 <1>        0.000
     37 H          -3.9970   -4.9450   -6.2842 H.spc      1 <1>        0.000
     38 H          -4.7621   -6.2631   -5.1057 H.spc      1 <1>        0.000
     39 H          -5.4694   -3.8667   -5.8834 H.spc      1 <1>        0.000
     40 H          -6.3484   -3.0333   -3.9279 H.spc      1 <1>        0.000
     41 H          -4.9812   -3.9470   -3.1177 H.spc      1 <1>        0.000
     42 H          -3.7891   -2.6694   -5.1079 H.spc      1 <1>        0.000
     43 H          -5.0800   -1.4601   -4.4508 H.spc      1 <1>        0.000
     44 H          -2.0144   -1.3886   -4.5126 H.spc      1 <1>        0.000
     45 H          -3.1806   -0.0668   -4.0415 H.spc      1 <1>        0.000
     46 H          -2.0590    0.4235   -2.2591 H.spc      1 <1>        0.000
     47 H          -1.7893   -1.3523   -1.8496 H.spc      1 <1>        0.000
     48 H          -0.3076    0.1128   -3.9015 H.spc      1 <1>        0.000
     49 H           0.1609    0.0026   -2.0512 H.spc      1 <1>        0.000
@<TRIPOS>BOND
     1    2    3 1  
     2    1    2 1  
     3    1   19 1  
     4    3    4 1  
     5   18   19 1  
     6   17   18 1  
     7   16    9 1  
     8    9   17 1  
     9   15   16 1  
    10   14   15 1  
    11   13   14 1  
    12   12   13 1  
    13   11   12 1  
    14   10   11 1  
    15    7    8 1  
    16    6    7 1  
    17    5   10 1  
    18    5    6 1  
    19    4    8 1  
    20    4    5 1  
    21    1   20 1  
    22    2   21 1  
    23    2   22 1  
    24    3   23 1  
    25    3   24 1  
    26    5   25 1  
    27    6   26 1  
    28    6   27 1  
    29    7   28 1  
    30    7   29 1  
    31    8   30 1  
    32    8   31 1  
    33   10   32 1  
    34   10   33 1  
    35   11   34 1  
    36   12   35 1  
    37   12   36 1  
    38   13   37 1  
    39   13   38 1  
    40   14   39 1  
    41   15   40 1  
    42   15   41 1  
    43   16   42 1  
    44   16   43 1  
    45   17   44 1  
    46   17   45 1  
    47   18   46 1  
    48   18   47 1  
    49   19   48 1  
    50   19   49 1  
# Name:          frag4-490-31/48856 -- energy: -8.473250
# Creation time: Sat Jun  5 12:52:49 2010


@<TRIPOS>MOLECULE
frag4-490-31/48856 -- energy: -8.473250
   49    50     1     1     1
SMALL
USER_CHARGES


@<TRIPOS>ATOM
      1 N1          0.5298   -1.5195   -3.2230 N.3        1 <1>        0.000
      2 C1          0.0957   -2.8539   -3.1615 C.3        1 <1>        0.000
      3 C2          1.1621   -3.8712   -3.1453 C.3        1 <1>        0.000
      4 N2          0.9257   -5.2342   -3.1393 N.3        1 <1>        0.000
      5 C3         -0.3707   -5.8162   -3.1867 C.3        1 <1>        0.000
      6 C4         -0.1236   -7.0842   -2.4127 C.3        1 <1>        0.000
      7 C5          1.2663   -7.4886   -2.8245 C.3        1 <1>        0.000
      8 C6          1.9788   -6.1721   -3.0253 C.3        1 <1>        0.000
      9 O1         -3.5823   -1.9184   -3.3743 O.3        1 <1>        0.000
     10 C8         -0.7494   -6.1072   -4.6139 C.3        1 <1>        0.000
     11 N3         -1.9790   -5.8724   -5.2048 N.3        1 <1>        0.000
     12 C9         -3.0659   -5.3188   -4.5229 C.3        1 <1>        0.000
     13 C10        -4.3313   -5.2815   -5.3028 C.3        1 <1>        0.000
     14 N4         -5.3937   -4.4219   -5.0311 N.3        1 <1>        0.000
     15 C11        -5.3457   -3.4513   -4.0175 C.3        1 <1>        0.000
     16 C12        -4.4222   -2.3150   -4.2945 C.3        1 <1>        0.000
     17 C13        -2.6380   -0.9589   -3.7287 C.3        1 <1>        0.000
     18 C14        -1.7265   -0.5589   -2.5944 C.3        1 <1>        0.000
     19 C15        -0.2822   -0.4220   -2.9520 C.3        1 <1>        0.000
     20 H           0.7462   -1.3995   -4.2125 H.spc      1 <1>        0.000
     21 H          -0.4468   -2.9596   -2.2220 H.spc      1 <1>        0.000
     22 H          -0.4873   -3.0314   -4.0652 H.spc      1 <1>        0.000
     23 H           1.6405   -3.7046   -2.1802 H.spc      1 <1>        0.000
     24 H           1.6586   -3.7162   -4.1032 H.spc      1 <1>        0.000
     25 H          -1.1801   -5.2015   -2.7929 H.spc      1 <1>        0.000
     26 H          -0.2123   -6.9382   -1.3362 H.spc      1 <1>        0.000
     27 H          -0.8627   -7.8551   -2.6308 H.spc      1 <1>        0.000
     28 H           1.7546   -8.1157   -2.0786 H.spc      1 <1>        0.000
     29 H           1.2704   -8.1045   -3.7238 H.spc      1 <1>        0.000
     30 H           2.6258   -6.1792   -3.9025 H.spc      1 <1>        0.000
     31 H           2.6574   -5.9374   -2.2052 H.spc      1 <1>        0.000
     32 H          -0.1075   -5.4144   -5.1580 H.spc      1 <1>        0.000
     33 H          -0.6974   -7.1957   -4.6382 H.spc      1 <1>        0.000
     34 H          -1.7646   -5.1651   -5.9078 H.spc      1 <1>        0.000
     35 H          -3.2479   -5.9468   -3.6508 H.spc      1 <1>        0.000
     36 H          -2.8041   -4.2863   -4.2914 H.spc      1 <1>        0.000
     37 H          -3.9970   -4.9450   -6.2842 H.spc      1 <1>        0.000
     38 H          -4.7621   -6.2631   -5.1057 H.spc      1 <1>        0.000
     39 H          -5.4694   -3.8667   -5.8834 H.spc      1 <1>        0.000
     40 H          -6.3484   -3.0333   -3.9279 H.spc      1 <1>        0.000
     41 H          -4.9812   -3.9470   -3.1177 H.spc      1 <1>        0.000
     42 H          -3.7891   -2.6694   -5.1079 H.spc      1 <1>        0.000
     43 H          -5.0800   -1.4601   -4.4508 H.spc      1 <1>        0.000
     44 H          -2.0144   -1.3886   -4.5126 H.spc      1 <1>        0.000
     45 H          -3.1806   -0.0668   -4.0415 H.spc      1 <1>        0.000
     46 H          -2.0590    0.4235   -2.2591 H.spc      1 <1>        0.000
     47 H          -1.7893   -1.3523   -1.8496 H.spc      1 <1>        0.000
     48 H          -0.3076    0.1128   -3.9015 H.spc      1 <1>        0.000
     49 H           0.1609    0.0026   -2.0512 H.spc      1 <1>        0.000
@<TRIPOS>BOND
     1    2    3 1  
     2    1    2 1  
     3    1   19 1  
     4    3    4 1  
     5   18   19 1  
     6   17   18 1  
     7   16    9 1  
     8    9   17 1  
     9   15   16 1  
    10   14   15 1  
    11   13   14 1  
    12   12   13 1  
    13   11   12 1  
    14   10   11 1  
    15    7    8 1  
    16    6    7 1  
    17    5   10 1  
    18    5    6 1  
    19    4    8 1  
    20    4    5 1  
    21    1   20 1  
    22    2   21 1  
    23    2   22 1  
    24    3   23 1  
    25    3   24 1  
    26    5   25 1  
    27    6   26 1  
    28    6   27 1  
    29    7   28 1  
    30    7   29 1  
    31    8   30 1  
    32    8   31 1  
    33   10   32 1  
    34   10   33 1  
    35   11   34 1  
    36   12   35 1  
    37   12   36 1  
    38   13   37 1  
    39   13   38 1  
    40   14   39 1  
    41   15   40 1  
    42   15   41 1  
    43   16   42 1  
    44   16   43 1  
    45   17   44 1  
    46   17   45 1  
    47   18   46 1  
    48   18   47 1  
    49   19   48 1  
    50   19   49 1  
