#      Rotatable Fragment
#      Build by yxyuan
#
# Name:          frag3-231-6/96164
# Creation time: Sat Jun  5 12:53:14 2010


@<TRIPOS>MOLECULE
frag3-231-6/96164
   14    13     1     1     1
SMALL
USER_CHARGES


@<TRIPOS>ATOM
      1 N1         -0.2625    0.1517    0.0573 N.am       1 <1>        0.000
      2 C11         0.7554   -0.2504    0.8263 C.2        1 <1>        0.000
      3 C15         2.1080   -0.6703    0.3258 C.2        1 <1>        0.000
      4 O3          0.6129   -0.2699    2.0533 O.2        1 <1>        0.000
      5 C20         2.3406   -0.7471   -0.9966 C.2        1 <1>        0.000
      6 O5          3.1002   -0.9058    1.2495 O.3        1 <1>        0.000
      7 C23         1.4636   -0.5893   -2.1583 C.2        1 <1>        0.000
      8 O7          2.0582   -0.1945   -3.2873 O.3        1 <1>        0.000
      9 O8          0.2711   -0.7956   -2.1696 O.2        1 <1>        0.000
     10 H          -1.1431    0.4375    0.4853 H.spc      1 <1>        0.000
     11 H          -0.1581    0.1725   -0.9571 H.spc      1 <1>        0.000
     12 H           3.3770   -0.9685   -1.2514 H.spc      1 <1>        0.000
     13 H           2.7426   -0.8038    2.1346 H.spc      1 <1>        0.000
     14 H           2.9967   -0.0711   -3.1271 H.spc      1 <1>        0.000
@<TRIPOS>BOND
     1    1    2 am 
     2    2    3 1  
     3    2    4 2  
     4    3    6 1  
     5    3    5 2  
     6    5    7 1  
     7    7    8 1  
     8    7    9 2  
     9    1   10 1  
    10    1   11 1  
    11    5   12 1  
    12    6   13 1  
    13    8   14 1  
# Name:          frag3-231-6/96164
# Creation time: Sat Jun  5 12:53:14 2010


@<TRIPOS>MOLECULE
frag3-231-6/96164
   14    13     1     1     1
SMALL
USER_CHARGES


@<TRIPOS>ATOM
      1 N1         -0.2632   -1.1403    0.4433 N.am       1 <1>        0.000
      2 C11         0.7564   -0.3142    0.7502 C.2        1 <1>        0.000
      3 C15         2.1231   -0.7560    0.3313 C.2        1 <1>        0.000
      4 O3          0.6113    0.6738    1.4622 O.2        1 <1>        0.000
      5 C20         2.3508   -0.7903   -0.9994 C.2        1 <1>        0.000
      6 O5          3.0123   -1.1479    1.2945 O.3        1 <1>        0.000
      7 C23         1.4837   -0.3639   -2.0976 C.2        1 <1>        0.000
      8 O7          2.0657   -0.3615   -3.3002 O.3        1 <1>        0.000
      9 O8          0.3072   -0.0709   -1.9839 O.2        1 <1>        0.000
     10 H          -1.1978   -0.9539    0.8070 H.spc      1 <1>        0.000
     11 H          -0.1003   -1.9519   -0.1526 H.spc      1 <1>        0.000
     12 H           3.3187   -1.1932   -1.2976 H.spc      1 <1>        0.000
     13 H           2.6171   -1.0279    2.1611 H.spc      1 <1>        0.000
     14 H           2.9873   -0.6142   -3.2089 H.spc      1 <1>        0.000
@<TRIPOS>BOND
     1    1    2 am 
     2    2    3 1  
     3    2    4 2  
     4    3    6 1  
     5    3    5 2  
     6    5    7 1  
     7    7    8 1  
     8    7    9 2  
     9    1   10 1  
    10    1   11 1  
    11    5   12 1  
    12    6   13 1  
    13    8   14 1  
# Name:          frag3-231-6/96164
# Creation time: Sat Jun  5 12:53:14 2010


@<TRIPOS>MOLECULE
frag3-231-6/96164
   14    13     1     1     1
SMALL
USER_CHARGES


@<TRIPOS>ATOM
      1 N1          0.2922   -1.2243    1.7122 N.am       1 <1>        0.000
      2 C11         0.7003   -0.4302    0.6922 C.2        1 <1>        0.000
      3 C15         2.1432   -0.6332    0.3199 C.2        1 <1>        0.000
      4 O3         -0.0064    0.4200    0.1725 O.2        1 <1>        0.000
      5 C20         2.4229   -0.5686   -0.9948 C.2        1 <1>        0.000
      6 O5          3.0750   -0.9109    1.2910 O.3        1 <1>        0.000
      7 C23         1.5184   -0.3131   -2.1008 C.2        1 <1>        0.000
      8 O7          0.8933   -1.3939   -2.5780 O.3        1 <1>        0.000
      9 O8          1.4086    0.7830   -2.6137 O.2        1 <1>        0.000
     10 H          -0.6518   -1.1289    2.0866 H.spc      1 <1>        0.000
     11 H           0.9291   -1.9173    2.1053 H.spc      1 <1>        0.000
     12 H           3.4666   -0.7294   -1.2648 H.spc      1 <1>        0.000
     13 H           2.6501   -0.9044    2.1518 H.spc      1 <1>        0.000
     14 H           1.1103   -2.1542   -2.0335 H.spc      1 <1>        0.000
@<TRIPOS>BOND
     1    1    2 am 
     2    2    3 1  
     3    2    4 2  
     4    3    6 1  
     5    3    5 2  
     6    5    7 1  
     7    7    8 1  
     8    7    9 2  
     9    1   10 1  
    10    1   11 1  
    11    5   12 1  
    12    6   13 1  
    13    8   14 1  
# Name:          frag3-231-6/96164
# Creation time: Sat Jun  5 12:53:14 2010


@<TRIPOS>MOLECULE
frag3-231-6/96164
   14    13     1     1     1
SMALL
USER_CHARGES


@<TRIPOS>ATOM
      1 N1          0.9917    0.9259    1.6498 N.am       1 <1>        0.000
      2 C11         0.7804   -0.0617    0.7257 C.2        1 <1>        0.000
      3 C15         2.1046   -0.6254    0.2978 C.2        1 <1>        0.000
      4 O3         -0.3179   -0.4812    0.4069 O.2        1 <1>        0.000
      5 C20         2.2910   -0.9119   -0.9905 C.2        1 <1>        0.000
      6 O5          3.0598   -0.8403    1.2713 O.3        1 <1>        0.000
      7 C23         1.4367   -0.8058   -2.1627 C.2        1 <1>        0.000
      8 O7          0.4344    0.0616   -2.1734 O.3        1 <1>        0.000
      9 O8          1.6666   -1.5324   -3.1244 O.2        1 <1>        0.000
     10 H           0.1989    1.3609    2.1216 H.spc      1 <1>        0.000
     11 H           1.9419    1.2267    1.8665 H.spc      1 <1>        0.000
     12 H           3.2838   -1.3049   -1.2097 H.spc      1 <1>        0.000
     13 H           2.7147   -0.5635    2.1233 H.spc      1 <1>        0.000
     14 H           0.4142    0.5359   -1.3390 H.spc      1 <1>        0.000
@<TRIPOS>BOND
     1    1    2 am 
     2    2    3 1  
     3    2    4 2  
     4    3    6 1  
     5    3    5 2  
     6    5    7 1  
     7    7    8 1  
     8    7    9 2  
     9    1   10 1  
    10    1   11 1  
    11    5   12 1  
    12    6   13 1  
    13    8   14 1  
# Name:          frag3-231-6/96164
# Creation time: Sat Jun  5 12:53:14 2010


@<TRIPOS>MOLECULE
frag3-231-6/96164
   14    13     1     1     1
SMALL
USER_CHARGES


@<TRIPOS>ATOM
      1 N1          0.2278    0.6547    1.1152 N.am       1 <1>        0.000
      2 C11         0.7624   -0.4958    0.6310 C.2        1 <1>        0.000
      3 C15         2.2120   -0.3612    0.3052 C.2        1 <1>        0.000
      4 O3          0.1552   -1.5481    0.5330 O.2        1 <1>        0.000
      5 C20         2.4541   -0.3750   -1.0154 C.2        1 <1>        0.000
      6 O5          3.1088   -0.1522    1.3080 O.3        1 <1>        0.000
      7 C23         1.4361   -0.5645   -2.0354 C.2        1 <1>        0.000
      8 O7          1.3792   -1.7858   -2.5577 O.3        1 <1>        0.000
      9 O8          0.7119    0.3568   -2.3834 O.2        1 <1>        0.000
     10 H          -0.7434    0.6745    1.4262 H.spc      1 <1>        0.000
     11 H           0.7975    1.4992    1.1679 H.spc      1 <1>        0.000
     12 H           3.4836   -0.2346   -1.3448 H.spc      1 <1>        0.000
     13 H           2.6575   -0.1978    2.1541 H.spc      1 <1>        0.000
     14 H           2.0363   -2.3440   -2.1357 H.spc      1 <1>        0.000
@<TRIPOS>BOND
     1    1    2 am 
     2    2    3 1  
     3    2    4 2  
     4    3    6 1  
     5    3    5 2  
     6    5    7 1  
     7    7    8 1  
     8    7    9 2  
     9    1   10 1  
    10    1   11 1  
    11    5   12 1  
    12    6   13 1  
    13    8   14 1  
# Name:          frag3-231-6/96164
# Creation time: Sat Jun  5 12:53:14 2010


@<TRIPOS>MOLECULE
frag3-231-6/96164
   14    13     1     1     1
SMALL
USER_CHARGES


@<TRIPOS>ATOM
      1 N1          0.1596   -0.7798    1.7142 N.am       1 <1>        0.000
      2 C11         0.7768   -0.1751    0.6611 C.2        1 <1>        0.000
      3 C15         2.0960   -0.7923    0.3244 C.2        1 <1>        0.000
      4 O3          0.3430    0.8119    0.0798 O.2        1 <1>        0.000
      5 C20         2.3417   -0.9440   -0.9802 C.2        1 <1>        0.000
      6 O5          2.9373   -1.2067    1.3095 O.3        1 <1>        0.000
      7 C23         1.4415   -0.5335   -2.0651 C.2        1 <1>        0.000
      8 O7          2.0702    0.2542   -2.9562 O.3        1 <1>        0.000
      9 O8          0.2813   -0.9058   -2.1870 O.2        1 <1>        0.000
     10 H          -0.7238   -0.4120    2.0673 H.spc      1 <1>        0.000
     11 H           0.5809   -1.6004    2.1496 H.spc      1 <1>        0.000
     12 H           3.2861   -1.4098   -1.2616 H.spc      1 <1>        0.000
     13 H           2.5563   -0.9940    2.1646 H.spc      1 <1>        0.000
     14 H           2.9682    0.4182   -2.6591 H.spc      1 <1>        0.000
@<TRIPOS>BOND
     1    1    2 am 
     2    2    3 1  
     3    2    4 2  
     4    3    6 1  
     5    3    5 2  
     6    5    7 1  
     7    7    8 1  
     8    7    9 2  
     9    1   10 1  
    10    1   11 1  
    11    5   12 1  
    12    6   13 1  
    13    8   14 1  
# Name:          frag3-231-6/96164
# Creation time: Sat Jun  5 12:53:14 2010


@<TRIPOS>MOLECULE
frag3-231-6/96164
   14    13     1     1     1
SMALL
USER_CHARGES


@<TRIPOS>ATOM
      1 N1          0.2320    0.7925   -0.1106 N.am       1 <1>        0.000
      2 C11         0.8575   -0.0918    0.6920 C.2        1 <1>        0.000
      3 C15         2.1697   -0.7006    0.3258 C.2        1 <1>        0.000
      4 O3          0.3950   -0.3744    1.7951 O.2        1 <1>        0.000
      5 C20         2.3088   -1.0225   -0.9694 C.2        1 <1>        0.000
      6 O5          3.1444   -0.9544    1.2676 O.3        1 <1>        0.000
      7 C23         1.3546   -0.7707   -2.0558 C.2        1 <1>        0.000
      8 O7          1.3289    0.4939   -2.5023 O.3        1 <1>        0.000
      9 O8          0.6565   -1.6431   -2.5418 O.2        1 <1>        0.000
     10 H          -0.6346    1.2349    0.1955 H.spc      1 <1>        0.000
     11 H           0.6253    1.0192   -1.0240 H.spc      1 <1>        0.000
     12 H           3.2343   -1.5277   -1.2457 H.spc      1 <1>        0.000
     13 H           2.8455   -0.6472    2.1266 H.spc      1 <1>        0.000
     14 H           1.9460    1.0245   -1.9931 H.spc      1 <1>        0.000
@<TRIPOS>BOND
     1    1    2 am 
     2    2    3 1  
     3    2    4 2  
     4    3    6 1  
     5    3    5 2  
     6    5    7 1  
     7    7    8 1  
     8    7    9 2  
     9    1   10 1  
    10    1   11 1  
    11    5   12 1  
    12    6   13 1  
    13    8   14 1  
# Name:          frag3-231-6/96164
# Creation time: Sat Jun  5 12:53:14 2010


@<TRIPOS>MOLECULE
frag3-231-6/96164
   14    13     1     1     1
SMALL
USER_CHARGES


@<TRIPOS>ATOM
      1 N1         -0.1086   -1.3868    0.1903 N.am       1 <1>        0.000
      2 C11         0.7502   -0.4434    0.6446 C.2        1 <1>        0.000
      3 C15         2.1868   -0.7001    0.3381 C.2        1 <1>        0.000
      4 O3          0.4521    0.4989    1.3530 O.2        1 <1>        0.000
      5 C20         2.4444   -0.6444   -0.9860 C.2        1 <1>        0.000
      6 O5          3.0667   -1.0209    1.3372 O.3        1 <1>        0.000
      7 C23         1.4986   -0.2520   -2.0278 C.2        1 <1>        0.000
      8 O7          0.8331   -1.2447   -2.6314 O.3        1 <1>        0.000
      9 O8          1.3241    0.9223   -2.3175 O.2        1 <1>        0.000
     10 H          -1.0965   -1.3398    0.4399 H.spc      1 <1>        0.000
     11 H           0.2324   -2.1443   -0.4015 H.spc      1 <1>        0.000
     12 H           3.4498   -0.9171   -1.3069 H.spc      1 <1>        0.000
     13 H           2.6158   -0.9822    2.1838 H.spc      1 <1>        0.000
     14 H           1.1123   -2.0860   -2.2629 H.spc      1 <1>        0.000
@<TRIPOS>BOND
     1    1    2 am 
     2    2    3 1  
     3    2    4 2  
     4    3    6 1  
     5    3    5 2  
     6    5    7 1  
     7    7    8 1  
     8    7    9 2  
     9    1   10 1  
    10    1   11 1  
    11    5   12 1  
    12    6   13 1  
    13    8   14 1  
# Name:          frag3-231-6/96164
# Creation time: Sat Jun  5 12:53:14 2010


@<TRIPOS>MOLECULE
frag3-231-6/96164
   14    13     1     1     1
SMALL
USER_CHARGES


@<TRIPOS>ATOM
      1 N1         -0.3332   -0.6659    0.8375 N.am       1 <1>        0.000
      2 C11         0.8706   -0.0469    0.6801 C.2        1 <1>        0.000
      3 C15         2.0600   -0.9065    0.3671 C.2        1 <1>        0.000
      4 O3          1.0097    1.1583    0.8704 O.2        1 <1>        0.000
      5 C20         2.1727   -1.1501   -0.9490 C.2        1 <1>        0.000
      6 O5          2.8374   -1.4994    1.3424 O.3        1 <1>        0.000
      7 C23         1.4648   -0.5793   -2.1069 C.2        1 <1>        0.000
      8 O7          0.8753    0.6004   -1.9651 O.3        1 <1>        0.000
      9 O8          1.4902   -1.1818   -3.1762 O.2        1 <1>        0.000
     10 H          -1.1510   -0.1262    1.1210 H.spc      1 <1>        0.000
     11 H          -0.4165   -1.6689    0.6718 H.spc      1 <1>        0.000
     12 H           2.9191   -1.9022   -1.2046 H.spc      1 <1>        0.000
     13 H           2.5739   -1.1694    2.2045 H.spc      1 <1>        0.000
     14 H           0.9687    0.8964   -1.0567 H.spc      1 <1>        0.000
@<TRIPOS>BOND
     1    1    2 am 
     2    2    3 1  
     3    2    4 2  
     4    3    6 1  
     5    3    5 2  
     6    5    7 1  
     7    7    8 1  
     8    7    9 2  
     9    1   10 1  
    10    1   11 1  
    11    5   12 1  
    12    6   13 1  
    13    8   14 1  
# Name:          frag3-231-6/96164 -- energy: -0.796653
# Creation time: Sat Jun  5 12:53:14 2010


@<TRIPOS>MOLECULE
frag3-231-6/96164 -- energy: -0.796653
   14    13     1     1     1
SMALL
USER_CHARGES


@<TRIPOS>ATOM
      1 N1         -0.2632   -1.1403    0.4433 N.am       1 <1>        0.000
      2 C11         0.7564   -0.3142    0.7502 C.2        1 <1>        0.000
      3 C15         2.1231   -0.7560    0.3313 C.2        1 <1>        0.000
      4 O3          0.6113    0.6738    1.4622 O.2        1 <1>        0.000
      5 C20         2.3508   -0.7903   -0.9994 C.2        1 <1>        0.000
      6 O5          3.0123   -1.1479    1.2945 O.3        1 <1>        0.000
      7 C23         1.4837   -0.3639   -2.0976 C.2        1 <1>        0.000
      8 O7          2.0657   -0.3615   -3.3002 O.3        1 <1>        0.000
      9 O8          0.3072   -0.0709   -1.9839 O.2        1 <1>        0.000
     10 H          -1.1978   -0.9539    0.8070 H.spc      1 <1>        0.000
     11 H          -0.1003   -1.9519   -0.1526 H.spc      1 <1>        0.000
     12 H           3.3187   -1.1932   -1.2976 H.spc      1 <1>        0.000
     13 H           2.6171   -1.0279    2.1611 H.spc      1 <1>        0.000
     14 H           2.9873   -0.6142   -3.2089 H.spc      1 <1>        0.000
@<TRIPOS>BOND
     1    1    2 am 
     2    2    3 1  
     3    2    4 2  
     4    3    6 1  
     5    3    5 2  
     6    5    7 1  
     7    7    8 1  
     8    7    9 2  
     9    1   10 1  
    10    1   11 1  
    11    5   12 1  
    12    6   13 1  
    13    8   14 1  
# Name:          frag3-231-6/96164 -- energy: -0.819239
# Creation time: Sat Jun  5 12:53:15 2010


@<TRIPOS>MOLECULE
frag3-231-6/96164 -- energy: -0.819239
   14    13     1     1     1
SMALL
USER_CHARGES


@<TRIPOS>ATOM
      1 N1          0.2922   -1.2243    1.7122 N.am       1 <1>        0.000
      2 C11         0.7003   -0.4302    0.6922 C.2        1 <1>        0.000
      3 C15         2.1432   -0.6332    0.3199 C.2        1 <1>        0.000
      4 O3         -0.0064    0.4200    0.1725 O.2        1 <1>        0.000
      5 C20         2.4229   -0.5686   -0.9948 C.2        1 <1>        0.000
      6 O5          3.0750   -0.9109    1.2910 O.3        1 <1>        0.000
      7 C23         1.5184   -0.3131   -2.1008 C.2        1 <1>        0.000
      8 O7          0.8933   -1.3939   -2.5780 O.3        1 <1>        0.000
      9 O8          1.4086    0.7830   -2.6137 O.2        1 <1>        0.000
     10 H          -0.6518   -1.1289    2.0866 H.spc      1 <1>        0.000
     11 H           0.9291   -1.9173    2.1053 H.spc      1 <1>        0.000
     12 H           3.4666   -0.7294   -1.2648 H.spc      1 <1>        0.000
     13 H           2.6501   -0.9044    2.1518 H.spc      1 <1>        0.000
     14 H           1.1103   -2.1542   -2.0335 H.spc      1 <1>        0.000
@<TRIPOS>BOND
     1    1    2 am 
     2    2    3 1  
     3    2    4 2  
     4    3    6 1  
     5    3    5 2  
     6    5    7 1  
     7    7    8 1  
     8    7    9 2  
     9    1   10 1  
    10    1   11 1  
    11    5   12 1  
    12    6   13 1  
    13    8   14 1  
# Name:          frag3-231-6/96164 -- energy: 1.352978
# Creation time: Sat Jun  5 12:53:15 2010


@<TRIPOS>MOLECULE
frag3-231-6/96164 -- energy: 1.352978
   14    13     1     1     1
SMALL
USER_CHARGES


@<TRIPOS>ATOM
      1 N1          0.9917    0.9259    1.6498 N.am       1 <1>        0.000
      2 C11         0.7804   -0.0617    0.7257 C.2        1 <1>        0.000
      3 C15         2.1046   -0.6254    0.2978 C.2        1 <1>        0.000
      4 O3         -0.3179   -0.4812    0.4069 O.2        1 <1>        0.000
      5 C20         2.2910   -0.9119   -0.9905 C.2        1 <1>        0.000
      6 O5          3.0598   -0.8403    1.2713 O.3        1 <1>        0.000
      7 C23         1.4367   -0.8058   -2.1627 C.2        1 <1>        0.000
      8 O7          0.4344    0.0616   -2.1734 O.3        1 <1>        0.000
      9 O8          1.6666   -1.5324   -3.1244 O.2        1 <1>        0.000
     10 H           0.1989    1.3609    2.1216 H.spc      1 <1>        0.000
     11 H           1.9419    1.2267    1.8665 H.spc      1 <1>        0.000
     12 H           3.2838   -1.3049   -1.2097 H.spc      1 <1>        0.000
     13 H           2.7147   -0.5635    2.1233 H.spc      1 <1>        0.000
     14 H           0.4142    0.5359   -1.3390 H.spc      1 <1>        0.000
@<TRIPOS>BOND
     1    1    2 am 
     2    2    3 1  
     3    2    4 2  
     4    3    6 1  
     5    3    5 2  
     6    5    7 1  
     7    7    8 1  
     8    7    9 2  
     9    1   10 1  
    10    1   11 1  
    11    5   12 1  
    12    6   13 1  
    13    8   14 1  
# Name:          frag3-231-6/96164 -- energy: -1.158180
# Creation time: Sat Jun  5 12:53:15 2010


@<TRIPOS>MOLECULE
frag3-231-6/96164 -- energy: -1.158180
   14    13     1     1     1
SMALL
USER_CHARGES


@<TRIPOS>ATOM
      1 N1          0.2278    0.6547    1.1152 N.am       1 <1>        0.000
      2 C11         0.7624   -0.4958    0.6310 C.2        1 <1>        0.000
      3 C15         2.2120   -0.3612    0.3052 C.2        1 <1>        0.000
      4 O3          0.1552   -1.5481    0.5330 O.2        1 <1>        0.000
      5 C20         2.4541   -0.3750   -1.0154 C.2        1 <1>        0.000
      6 O5          3.1088   -0.1522    1.3080 O.3        1 <1>        0.000
      7 C23         1.4361   -0.5645   -2.0354 C.2        1 <1>        0.000
      8 O7          1.3792   -1.7858   -2.5577 O.3        1 <1>        0.000
      9 O8          0.7119    0.3568   -2.3834 O.2        1 <1>        0.000
     10 H          -0.7434    0.6745    1.4262 H.spc      1 <1>        0.000
     11 H           0.7975    1.4992    1.1679 H.spc      1 <1>        0.000
     12 H           3.4836   -0.2346   -1.3448 H.spc      1 <1>        0.000
     13 H           2.6575   -0.1978    2.1541 H.spc      1 <1>        0.000
     14 H           2.0363   -2.3440   -2.1357 H.spc      1 <1>        0.000
@<TRIPOS>BOND
     1    1    2 am 
     2    2    3 1  
     3    2    4 2  
     4    3    6 1  
     5    3    5 2  
     6    5    7 1  
     7    7    8 1  
     8    7    9 2  
     9    1   10 1  
    10    1   11 1  
    11    5   12 1  
    12    6   13 1  
    13    8   14 1  
# Name:          frag3-231-6/96164 -- energy: -0.456809
# Creation time: Sat Jun  5 12:53:15 2010


@<TRIPOS>MOLECULE
frag3-231-6/96164 -- energy: -0.456809
   14    13     1     1     1
SMALL
USER_CHARGES


@<TRIPOS>ATOM
      1 N1          0.1596   -0.7798    1.7142 N.am       1 <1>        0.000
      2 C11         0.7768   -0.1751    0.6611 C.2        1 <1>        0.000
      3 C15         2.0960   -0.7923    0.3244 C.2        1 <1>        0.000
      4 O3          0.3430    0.8119    0.0798 O.2        1 <1>        0.000
      5 C20         2.3417   -0.9440   -0.9802 C.2        1 <1>        0.000
      6 O5          2.9373   -1.2067    1.3095 O.3        1 <1>        0.000
      7 C23         1.4415   -0.5335   -2.0651 C.2        1 <1>        0.000
      8 O7          2.0702    0.2542   -2.9562 O.3        1 <1>        0.000
      9 O8          0.2813   -0.9058   -2.1870 O.2        1 <1>        0.000
     10 H          -0.7238   -0.4120    2.0673 H.spc      1 <1>        0.000
     11 H           0.5809   -1.6004    2.1496 H.spc      1 <1>        0.000
     12 H           3.2861   -1.4098   -1.2616 H.spc      1 <1>        0.000
     13 H           2.5563   -0.9940    2.1646 H.spc      1 <1>        0.000
     14 H           2.9682    0.4182   -2.6591 H.spc      1 <1>        0.000
@<TRIPOS>BOND
     1    1    2 am 
     2    2    3 1  
     3    2    4 2  
     4    3    6 1  
     5    3    5 2  
     6    5    7 1  
     7    7    8 1  
     8    7    9 2  
     9    1   10 1  
    10    1   11 1  
    11    5   12 1  
    12    6   13 1  
    13    8   14 1  
# Name:          frag3-231-6/96164 -- energy: -1.279279
# Creation time: Sat Jun  5 12:53:15 2010


@<TRIPOS>MOLECULE
frag3-231-6/96164 -- energy: -1.279279
   14    13     1     1     1
SMALL
USER_CHARGES


@<TRIPOS>ATOM
      1 N1         -0.1086   -1.3868    0.1903 N.am       1 <1>        0.000
      2 C11         0.7502   -0.4434    0.6446 C.2        1 <1>        0.000
      3 C15         2.1868   -0.7001    0.3381 C.2        1 <1>        0.000
      4 O3          0.4521    0.4989    1.3530 O.2        1 <1>        0.000
      5 C20         2.4444   -0.6444   -0.9860 C.2        1 <1>        0.000
      6 O5          3.0667   -1.0209    1.3372 O.3        1 <1>        0.000
      7 C23         1.4986   -0.2520   -2.0278 C.2        1 <1>        0.000
      8 O7          0.8331   -1.2447   -2.6314 O.3        1 <1>        0.000
      9 O8          1.3241    0.9223   -2.3175 O.2        1 <1>        0.000
     10 H          -1.0965   -1.3398    0.4399 H.spc      1 <1>        0.000
     11 H           0.2324   -2.1443   -0.4015 H.spc      1 <1>        0.000
     12 H           3.4498   -0.9171   -1.3069 H.spc      1 <1>        0.000
     13 H           2.6158   -0.9822    2.1838 H.spc      1 <1>        0.000
     14 H           1.1123   -2.0860   -2.2629 H.spc      1 <1>        0.000
@<TRIPOS>BOND
     1    1    2 am 
     2    2    3 1  
     3    2    4 2  
     4    3    6 1  
     5    3    5 2  
     6    5    7 1  
     7    7    8 1  
     8    7    9 2  
     9    1   10 1  
    10    1   11 1  
    11    5   12 1  
    12    6   13 1  
    13    8   14 1  
