#      Rotatable Fragment
#      Build by yxyuan
#
# Name:          frag4-442-121/150395
# Creation time: Sat Jun  5 12:53:35 2010


@<TRIPOS>MOLECULE
frag4-442-121/150395
   22    24     1     1     1
SMALL
USER_CHARGES


@<TRIPOS>ATOM
      1 C1          0.7584   -0.5167    0.1668 C.ar       1 <1>        0.000
      2 C2          1.1160    0.8298   -0.2004 C.ar       1 <1>        0.000
      3 C3         -0.6825   -0.4823    0.1982 C.2        1 <1>        0.000
      4 C4          1.7491   -1.4532    0.3841 C.ar       1 <1>        0.000
      5 N1         -0.0348    1.5974   -0.3801 N.2        1 <1>        0.000
      6 C5          2.4437    1.1859   -0.3320 C.ar       1 <1>        0.000
      7 C6         -1.1138    0.9001   -0.1924 C.2        1 <1>        0.000
      8 C7         -1.6555   -1.3916    0.4394 C.2        1 <1>        0.000
      9 C8          3.0854   -1.0878    0.2623 C.ar       1 <1>        0.000
     10 C10         3.4341    0.2215   -0.0936 C.ar       1 <1>        0.000
     11 C11        -2.5064    1.2861   -0.3388 C.2        1 <1>        0.000
     12 C12        -3.0765   -1.0436    0.2752 C.3        1 <1>        0.000
     13 C15        -3.4304    0.3239   -0.1327 C.2        1 <1>        0.000
     14 H           1.4846   -2.4765    0.6505 H.spc      1 <1>        0.000
     15 H           2.7181    2.2016   -0.6170 H.spc      1 <1>        0.000
     16 H          -1.3828   -2.3970    0.7602 H.spc      1 <1>        0.000
     17 H           3.8669   -1.8253    0.4450 H.spc      1 <1>        0.000
     18 H           4.4855    0.4936   -0.1862 H.spc      1 <1>        0.000
     19 H          -2.7918    2.3045   -0.6026 H.spc      1 <1>        0.000
     20 H          -3.5123   -1.1634    1.2671 H.spc      1 <1>        0.000
     21 H          -3.4305   -1.6800   -0.5359 H.spc      1 <1>        0.000
     22 H          -4.4825    0.5710   -0.2746 H.spc      1 <1>        0.000
@<TRIPOS>BOND
     1    6   10 ar 
     2    2    5 1  
     3   11   13 2  
     4    8   12 1  
     5    3    8 2  
     6    9   10 ar 
     7   12   13 1  
     8    5    7 2  
     9    3    7 1  
    10    1    4 ar 
    11    4    9 ar 
    12    7   11 1  
    13    2    6 ar 
    14    1    2 ar 
    15    1    3 1  
    16    4   14 1  
    17    6   15 1  
    18    8   16 1  
    19    9   17 1  
    20   10   18 1  
    21   11   19 1  
    22   12   20 1  
    23   12   21 1  
    24   13   22 1  
# Name:          frag4-442-121/150395 -- energy: -1.311925
# Creation time: Sat Jun  5 12:53:35 2010


@<TRIPOS>MOLECULE
frag4-442-121/150395 -- energy: -1.311925
   22    24     1     1     1
SMALL
USER_CHARGES


@<TRIPOS>ATOM
      1 C1          0.7584   -0.5167    0.1668 C.ar       1 <1>        0.000
      2 C2          1.1160    0.8298   -0.2004 C.ar       1 <1>        0.000
      3 C3         -0.6825   -0.4823    0.1982 C.2        1 <1>        0.000
      4 C4          1.7491   -1.4532    0.3841 C.ar       1 <1>        0.000
      5 N1         -0.0348    1.5974   -0.3801 N.2        1 <1>        0.000
      6 C5          2.4437    1.1859   -0.3320 C.ar       1 <1>        0.000
      7 C6         -1.1138    0.9001   -0.1924 C.2        1 <1>        0.000
      8 C7         -1.6555   -1.3916    0.4394 C.2        1 <1>        0.000
      9 C8          3.0854   -1.0878    0.2623 C.ar       1 <1>        0.000
     10 C10         3.4341    0.2215   -0.0936 C.ar       1 <1>        0.000
     11 C11        -2.5064    1.2861   -0.3388 C.2        1 <1>        0.000
     12 C12        -3.0765   -1.0436    0.2752 C.3        1 <1>        0.000
     13 C15        -3.4304    0.3239   -0.1327 C.2        1 <1>        0.000
     14 H           1.4846   -2.4765    0.6505 H.spc      1 <1>        0.000
     15 H           2.7181    2.2016   -0.6170 H.spc      1 <1>        0.000
     16 H          -1.3828   -2.3970    0.7602 H.spc      1 <1>        0.000
     17 H           3.8669   -1.8253    0.4450 H.spc      1 <1>        0.000
     18 H           4.4855    0.4936   -0.1862 H.spc      1 <1>        0.000
     19 H          -2.7918    2.3045   -0.6026 H.spc      1 <1>        0.000
     20 H          -3.5123   -1.1634    1.2671 H.spc      1 <1>        0.000
     21 H          -3.4305   -1.6800   -0.5359 H.spc      1 <1>        0.000
     22 H          -4.4825    0.5710   -0.2746 H.spc      1 <1>        0.000
@<TRIPOS>BOND
     1    6   10 ar 
     2    2    5 1  
     3   11   13 2  
     4    8   12 1  
     5    3    8 2  
     6    9   10 ar 
     7   12   13 1  
     8    5    7 2  
     9    3    7 1  
    10    1    4 ar 
    11    4    9 ar 
    12    7   11 1  
    13    2    6 ar 
    14    1    2 ar 
    15    1    3 1  
    16    4   14 1  
    17    6   15 1  
    18    8   16 1  
    19    9   17 1  
    20   10   18 1  
    21   11   19 1  
    22   12   20 1  
    23   12   21 1  
    24   13   22 1  
