#      Rotatable Fragment
#      Build by yxyuan
#
# Name:          frag3-194-9/96164
# Creation time: Sat Jun  5 12:53:09 2010


@<TRIPOS>MOLECULE
frag3-194-9/96164
    8     7     1     1     1
SMALL
USER_CHARGES


@<TRIPOS>ATOM
      1 P1          3.1147   -0.4748   -0.1542 P.3        1 <1>        0.000
      2 S1          1.6196    0.1636    0.9607 S.3        1 <1>        0.000
      3 O1          4.3291   -0.9553    0.6647 O.3        1 <1>        0.000
      4 O2          3.6172    0.7783   -0.9674 O.3        1 <1>        0.000
      5 O3          2.8171   -1.5704   -1.0419 O.2        1 <1>        0.000
      6 H           2.0362    1.1696    1.7244 H.spc      1 <1>        0.000
      7 H           4.5871   -0.2694    1.2848 H.spc      1 <1>        0.000
      8 H           3.8099    1.4963   -0.3600 H.spc      1 <1>        0.000
@<TRIPOS>BOND
     1    1    2 1  
     2    1    3 1  
     3    1    4 1  
     4    1    5 2  
     5    2    6 1  
     6    3    7 1  
     7    4    8 1  
# Name:          frag3-194-9/96164 -- energy: -0.355953
# Creation time: Sat Jun  5 12:53:09 2010


@<TRIPOS>MOLECULE
frag3-194-9/96164 -- energy: -0.355953
    8     7     1     1     1
SMALL
USER_CHARGES


@<TRIPOS>ATOM
      1 P1          3.1147   -0.4748   -0.1542 P.3        1 <1>        0.000
      2 S1          1.6196    0.1636    0.9607 S.3        1 <1>        0.000
      3 O1          4.3291   -0.9553    0.6647 O.3        1 <1>        0.000
      4 O2          3.6172    0.7783   -0.9674 O.3        1 <1>        0.000
      5 O3          2.8171   -1.5704   -1.0419 O.2        1 <1>        0.000
      6 H           2.0362    1.1696    1.7244 H.spc      1 <1>        0.000
      7 H           4.5871   -0.2694    1.2848 H.spc      1 <1>        0.000
      8 H           3.8099    1.4963   -0.3600 H.spc      1 <1>        0.000
@<TRIPOS>BOND
     1    1    2 1  
     2    1    3 1  
     3    1    4 1  
     4    1    5 2  
     5    2    6 1  
     6    3    7 1  
     7    4    8 1  
