#      Rotatable Fragment
#      Build by yxyuan
#
# Name:          frag4-332-595/150395
# Creation time: Sat Jun  5 12:53:31 2010


@<TRIPOS>MOLECULE
frag4-332-595/150395
   16    17     1     1     1
SMALL
USER_CHARGES


@<TRIPOS>ATOM
      1 N1         -1.7007   -1.3076   -0.2198 N.pl3      1 <1>        0.000
      2 C1         -1.7314    0.1606   -0.3437 C.3        1 <1>        0.000
      3 C2         -0.6322   -2.0150   -0.4174 C.2        1 <1>        0.000
      4 C3         -2.8626   -1.7519    0.0866 C.3        1 <1>        0.000
      5 C4         -3.1241   -0.3009    0.2878 C.3        1 <1>        0.000
      6 C5         -0.2106    0.1740    0.0431 C.3        1 <1>        0.000
      7 C6          0.3650   -1.1444   -0.3834 C.2        1 <1>        0.000
      8 H          -1.8187    1.1051   -0.8807 H.spc      1 <1>        0.000
      9 H          -0.5687   -3.0914   -0.5767 H.spc      1 <1>        0.000
     10 H          -3.0595   -2.5304    0.8237 H.spc      1 <1>        0.000
     11 H          -3.4627   -2.4143   -0.5372 H.spc      1 <1>        0.000
     12 H          -4.0353    0.1119   -0.1451 H.spc      1 <1>        0.000
     13 H          -3.3548    0.0343    1.2990 H.spc      1 <1>        0.000
     14 H           0.3050    0.9970   -0.4519 H.spc      1 <1>        0.000
     15 H          -0.0880    0.3181    1.1166 H.spc      1 <1>        0.000
     16 H           1.4092   -1.3476   -0.6209 H.spc      1 <1>        0.000
@<TRIPOS>BOND
     1    6    7 1  
     2    1    2 1  
     3    1    3 1  
     4    1    4 1  
     5    2    5 1  
     6    2    6 1  
     7    3    7 2  
     8    4    5 1  
     9    2    8 1  
    10    3    9 1  
    11    4   10 1  
    12    4   11 1  
    13    5   12 1  
    14    5   13 1  
    15    6   14 1  
    16    6   15 1  
    17    7   16 1  
# Name:          frag4-332-595/150395 -- energy: -1.192953
# Creation time: Sat Jun  5 12:53:31 2010


@<TRIPOS>MOLECULE
frag4-332-595/150395 -- energy: -1.192953
   16    17     1     1     1
SMALL
USER_CHARGES


@<TRIPOS>ATOM
      1 N1         -1.7007   -1.3076   -0.2198 N.pl3      1 <1>        0.000
      2 C1         -1.7314    0.1606   -0.3437 C.3        1 <1>        0.000
      3 C2         -0.6322   -2.0150   -0.4174 C.2        1 <1>        0.000
      4 C3         -2.8626   -1.7519    0.0866 C.3        1 <1>        0.000
      5 C4         -3.1241   -0.3009    0.2878 C.3        1 <1>        0.000
      6 C5         -0.2106    0.1740    0.0431 C.3        1 <1>        0.000
      7 C6          0.3650   -1.1444   -0.3834 C.2        1 <1>        0.000
      8 H          -1.8187    1.1051   -0.8807 H.spc      1 <1>        0.000
      9 H          -0.5687   -3.0914   -0.5767 H.spc      1 <1>        0.000
     10 H          -3.0595   -2.5304    0.8237 H.spc      1 <1>        0.000
     11 H          -3.4627   -2.4143   -0.5372 H.spc      1 <1>        0.000
     12 H          -4.0353    0.1119   -0.1451 H.spc      1 <1>        0.000
     13 H          -3.3548    0.0343    1.2990 H.spc      1 <1>        0.000
     14 H           0.3050    0.9970   -0.4519 H.spc      1 <1>        0.000
     15 H          -0.0880    0.3181    1.1166 H.spc      1 <1>        0.000
     16 H           1.4092   -1.3476   -0.6209 H.spc      1 <1>        0.000
@<TRIPOS>BOND
     1    6    7 1  
     2    1    2 1  
     3    1    3 1  
     4    1    4 1  
     5    2    5 1  
     6    2    6 1  
     7    3    7 2  
     8    4    5 1  
     9    2    8 1  
    10    3    9 1  
    11    4   10 1  
    12    4   11 1  
    13    5   12 1  
    14    5   13 1  
    15    6   14 1  
    16    6   15 1  
    17    7   16 1  
