#      Rotatable Fragment
#      Build by yxyuan
#
# Name:          frag5-590-120/138278
# Creation time: Sat Jun  5 12:53:45 2010


@<TRIPOS>MOLECULE
frag5-590-120/138278
   17    17     1     1     1
SMALL
USER_CHARGES


@<TRIPOS>ATOM
      1 C12        -1.3105   -0.3916   -0.1517 C.ar       1 <1>        0.000
      2 C14        -2.3705   -1.2375    0.2188 C.ar       1 <1>        0.000
      3 C15        -1.5438    0.9489   -0.4566 C.ar       1 <1>        0.000
      4 C16        -3.6553   -0.6928    0.3153 C.ar       1 <1>        0.000
      5 N3         -2.1502   -2.5934    0.5171 N.am       1 <1>        0.000
      6 C17        -2.8349    1.4731   -0.3722 C.ar       1 <1>        0.000
      7 C19        -3.8924    0.6517    0.0202 C.ar       1 <1>        0.000
      8 C20        -1.0081   -3.0697    1.0866 C.2        1 <1>        0.000
      9 O2         -0.4637   -2.1824    1.9412 O.3        1 <1>        0.000
     10 O3         -0.4975   -4.1512    0.8793 O.2        1 <1>        0.000
     11 H          -0.2962   -0.7876   -0.2011 H.spc      1 <1>        0.000
     12 H          -0.7160    1.5891   -0.7616 H.spc      1 <1>        0.000
     13 H          -4.4849   -1.3279    0.6258 H.spc      1 <1>        0.000
     14 H          -2.8892   -3.2600    0.2939 H.spc      1 <1>        0.000
     15 H          -3.0163    2.5208   -0.6121 H.spc      1 <1>        0.000
     16 H          -4.9009    1.0582    0.0962 H.spc      1 <1>        0.000
     17 H          -1.0084   -1.3924    1.9706 H.spc      1 <1>        0.000
@<TRIPOS>BOND
     1    6    7 ar 
     2    8    9 1  
     3    8   10 2  
     4    1    2 ar 
     5    1    3 ar 
     6    2    4 ar 
     7    2    5 1  
     8    3    6 ar 
     9    4    7 ar 
    10    5    8 am 
    11    1   11 1  
    12    3   12 1  
    13    4   13 1  
    14    5   14 1  
    15    6   15 1  
    16    7   16 1  
    17    9   17 1  
# Name:          frag5-590-120/138278
# Creation time: Sat Jun  5 12:53:45 2010


@<TRIPOS>MOLECULE
frag5-590-120/138278
   17    17     1     1     1
SMALL
USER_CHARGES


@<TRIPOS>ATOM
      1 C12        -2.9809   -0.8689    0.6777 C.ar       1 <1>        0.000
      2 C14        -1.7460   -1.0366    0.0242 C.ar       1 <1>        0.000
      3 C15        -3.7068    0.3124    0.5402 C.ar       1 <1>        0.000
      4 C16        -1.2893   -0.0039   -0.8014 C.ar       1 <1>        0.000
      5 N3         -0.9997   -2.2111    0.1749 N.am       1 <1>        0.000
      6 C17        -3.2248    1.3398   -0.2720 C.ar       1 <1>        0.000
      7 C19        -2.0153    1.1798   -0.9481 C.ar       1 <1>        0.000
      8 C20        -1.1918   -3.1181    1.1747 C.2        1 <1>        0.000
      9 O2         -1.3025   -2.5160    2.3748 O.3        1 <1>        0.000
     10 O3         -1.2699   -4.3221    1.0529 O.2        1 <1>        0.000
     11 H          -3.3745   -1.6732    1.2992 H.spc      1 <1>        0.000
     12 H          -4.6527    0.4343    1.0679 H.spc      1 <1>        0.000
     13 H          -0.3495   -0.1254   -1.3401 H.spc      1 <1>        0.000
     14 H          -0.2651   -2.4006   -0.5069 H.spc      1 <1>        0.000
     15 H          -3.7919    2.2647   -0.3777 H.spc      1 <1>        0.000
     16 H          -1.6379    1.9765   -1.5891 H.spc      1 <1>        0.000
     17 H          -1.2138   -1.5665    2.2646 H.spc      1 <1>        0.000
@<TRIPOS>BOND
     1    6    7 ar 
     2    8    9 1  
     3    8   10 2  
     4    1    2 ar 
     5    1    3 ar 
     6    2    4 ar 
     7    2    5 1  
     8    3    6 ar 
     9    4    7 ar 
    10    5    8 am 
    11    1   11 1  
    12    3   12 1  
    13    4   13 1  
    14    5   14 1  
    15    6   15 1  
    16    7   16 1  
    17    9   17 1  
# Name:          frag5-590-120/138278
# Creation time: Sat Jun  5 12:53:45 2010


@<TRIPOS>MOLECULE
frag5-590-120/138278
   17    17     1     1     1
SMALL
USER_CHARGES


@<TRIPOS>ATOM
      1 C12        -3.6390   -0.6139    0.4401 C.ar       1 <1>        0.000
      2 C14        -2.3109   -0.9994    0.6660 C.ar       1 <1>        0.000
      3 C15        -3.9319    0.5069   -0.3389 C.ar       1 <1>        0.000
      4 C16        -1.2858   -0.2585    0.0593 C.ar       1 <1>        0.000
      5 N3         -1.9903   -2.1218    1.4639 N.am       1 <1>        0.000
      6 C17        -2.9005    1.2466   -0.9208 C.ar       1 <1>        0.000
      7 C19        -1.5741    0.8598   -0.7247 C.ar       1 <1>        0.000
      8 C20        -0.9924   -2.9962    1.1430 C.2        1 <1>        0.000
      9 O2         -0.6859   -3.8333    2.1408 O.3        1 <1>        0.000
     10 O3         -0.4160   -3.0350    0.0693 O.2        1 <1>        0.000
     11 H          -4.4513   -1.1948    0.8769 H.spc      1 <1>        0.000
     12 H          -4.9688    0.8054   -0.4933 H.spc      1 <1>        0.000
     13 H          -0.2483   -0.5607    0.2023 H.spc      1 <1>        0.000
     14 H          -2.5275   -2.2851    2.3155 H.spc      1 <1>        0.000
     15 H          -3.1306    2.1233   -1.5262 H.spc      1 <1>        0.000
     16 H          -0.7654    1.4294   -1.1825 H.spc      1 <1>        0.000
     17 H          -1.2462   -3.6462    2.8975 H.spc      1 <1>        0.000
@<TRIPOS>BOND
     1    6    7 ar 
     2    8    9 1  
     3    8   10 2  
     4    1    2 ar 
     5    1    3 ar 
     6    2    4 ar 
     7    2    5 1  
     8    3    6 ar 
     9    4    7 ar 
    10    5    8 am 
    11    1   11 1  
    12    3   12 1  
    13    4   13 1  
    14    5   14 1  
    15    6   15 1  
    16    7   16 1  
    17    9   17 1  
# Name:          frag5-590-120/138278
# Creation time: Sat Jun  5 12:53:45 2010


@<TRIPOS>MOLECULE
frag5-590-120/138278
   17    17     1     1     1
SMALL
USER_CHARGES


@<TRIPOS>ATOM
      1 C12        -3.2344   -0.8165    0.5158 C.ar       1 <1>        0.000
      2 C14        -1.8419   -0.7876    0.6370 C.ar       1 <1>        0.000
      3 C15        -3.9453    0.1598   -0.1831 C.ar       1 <1>        0.000
      4 C16        -1.1753    0.2032   -0.0811 C.ar       1 <1>        0.000
      5 N3         -1.1924   -1.7575    1.3688 N.am       1 <1>        0.000
      6 C17        -3.2521    1.1122   -0.9173 C.ar       1 <1>        0.000
      7 C19        -1.8604    1.1046   -0.9043 C.ar       1 <1>        0.000
      8 C20        -1.1229   -3.0898    1.1401 C.2        1 <1>        0.000
      9 O2         -0.8005   -3.6590    2.3041 O.3        1 <1>        0.000
     10 O3         -1.3016   -3.7142    0.1181 O.2        1 <1>        0.000
     11 H          -3.7852   -1.6319    0.9847 H.spc      1 <1>        0.000
     12 H          -5.0348    0.1744   -0.1528 H.spc      1 <1>        0.000
     13 H          -0.0910    0.2784    0.0004 H.spc      1 <1>        0.000
     14 H          -0.6960   -1.4263    2.1961 H.spc      1 <1>        0.000
     15 H          -3.7927    1.8591   -1.4987 H.spc      1 <1>        0.000
     16 H          -1.3048    1.7994   -1.5341 H.spc      1 <1>        0.000
     17 H          -0.7079   -2.9799    2.9763 H.spc      1 <1>        0.000
@<TRIPOS>BOND
     1    6    7 ar 
     2    8    9 1  
     3    8   10 2  
     4    1    2 ar 
     5    1    3 ar 
     6    2    4 ar 
     7    2    5 1  
     8    3    6 ar 
     9    4    7 ar 
    10    5    8 am 
    11    1   11 1  
    12    3   12 1  
    13    4   13 1  
    14    5   14 1  
    15    6   15 1  
    16    7   16 1  
    17    9   17 1  
# Name:          frag5-590-120/138278
# Creation time: Sat Jun  5 12:53:45 2010


@<TRIPOS>MOLECULE
frag5-590-120/138278
   17    17     1     1     1
SMALL
USER_CHARGES


@<TRIPOS>ATOM
      1 C12        -1.4114   -0.4451   -0.4618 C.ar       1 <1>        0.000
      2 C14        -2.3361   -1.1454    0.3009 C.ar       1 <1>        0.000
      3 C15        -1.6745    0.8356   -0.9526 C.ar       1 <1>        0.000
      4 C16        -3.5745   -0.5389    0.4867 C.ar       1 <1>        0.000
      5 N3         -2.0946   -2.3906    0.8556 N.am       1 <1>        0.000
      6 C17        -2.8373    1.4848   -0.5671 C.ar       1 <1>        0.000
      7 C19        -3.7545    0.8232    0.2349 C.ar       1 <1>        0.000
      8 C20        -0.9554   -3.0353    1.1829 C.2        1 <1>        0.000
      9 O2         -1.3002   -4.0242    2.0288 O.3        1 <1>        0.000
     10 O3          0.2118   -2.8089    0.8899 O.2        1 <1>        0.000
     11 H          -0.4505   -0.9091   -0.6844 H.spc      1 <1>        0.000
     12 H          -0.9729    1.3198   -1.6318 H.spc      1 <1>        0.000
     13 H          -4.4175   -1.1361    0.8342 H.spc      1 <1>        0.000
     14 H          -2.9411   -2.9234    1.0554 H.spc      1 <1>        0.000
     15 H          -3.0289    2.5074   -0.8920 H.spc      1 <1>        0.000
     16 H          -4.6029    1.3577    0.6623 H.spc      1 <1>        0.000
     17 H          -2.2548   -4.0399    2.1288 H.spc      1 <1>        0.000
@<TRIPOS>BOND
     1    6    7 ar 
     2    8    9 1  
     3    8   10 2  
     4    1    2 ar 
     5    1    3 ar 
     6    2    4 ar 
     7    2    5 1  
     8    3    6 ar 
     9    4    7 ar 
    10    5    8 am 
    11    1   11 1  
    12    3   12 1  
    13    4   13 1  
    14    5   14 1  
    15    6   15 1  
    16    7   16 1  
    17    9   17 1  
# Name:          frag5-590-120/138278
# Creation time: Sat Jun  5 12:53:45 2010


@<TRIPOS>MOLECULE
frag5-590-120/138278
   17    17     1     1     1
SMALL
USER_CHARGES


@<TRIPOS>ATOM
      1 C12        -1.3869   -0.0998    0.5744 C.ar       1 <1>        0.000
      2 C14        -2.3685   -1.1040    0.6148 C.ar       1 <1>        0.000
      3 C15        -1.6298    1.1153   -0.0609 C.ar       1 <1>        0.000
      4 C16        -3.6118   -0.8354    0.0270 C.ar       1 <1>        0.000
      5 N3         -2.1232   -2.3342    1.2300 N.am       1 <1>        0.000
      6 C17        -2.8685    1.3582   -0.6552 C.ar       1 <1>        0.000
      7 C19        -3.8637    0.3823   -0.6082 C.ar       1 <1>        0.000
      8 C20        -1.0093   -3.0919    1.0195 C.2        1 <1>        0.000
      9 O2          0.1104   -2.3478    1.0459 O.3        1 <1>        0.000
     10 O3         -0.9754   -4.2876    0.8107 O.2        1 <1>        0.000
     11 H          -0.4206   -0.2744    1.0475 H.spc      1 <1>        0.000
     12 H          -0.8513    1.8775   -0.0939 H.spc      1 <1>        0.000
     13 H          -4.3966   -1.5908    0.0663 H.spc      1 <1>        0.000
     14 H          -2.8244   -2.6893    1.8801 H.spc      1 <1>        0.000
     15 H          -3.0579    2.3082   -1.1549 H.spc      1 <1>        0.000
     16 H          -4.8351    0.5695   -1.0659 H.spc      1 <1>        0.000
     17 H          -0.1189   -1.4328    1.2241 H.spc      1 <1>        0.000
@<TRIPOS>BOND
     1    6    7 ar 
     2    8    9 1  
     3    8   10 2  
     4    1    2 ar 
     5    1    3 ar 
     6    2    4 ar 
     7    2    5 1  
     8    3    6 ar 
     9    4    7 ar 
    10    5    8 am 
    11    1   11 1  
    12    3   12 1  
    13    4   13 1  
    14    5   14 1  
    15    6   15 1  
    16    7   16 1  
    17    9   17 1  
# Name:          frag5-590-120/138278 -- energy: 0.650136
# Creation time: Sat Jun  5 12:53:45 2010


@<TRIPOS>MOLECULE
frag5-590-120/138278 -- energy: 0.650136
   17    17     1     1     1
SMALL
USER_CHARGES


@<TRIPOS>ATOM
      1 C12        -1.3105   -0.3916   -0.1517 C.ar       1 <1>        0.000
      2 C14        -2.3705   -1.2375    0.2188 C.ar       1 <1>        0.000
      3 C15        -1.5438    0.9489   -0.4566 C.ar       1 <1>        0.000
      4 C16        -3.6553   -0.6928    0.3153 C.ar       1 <1>        0.000
      5 N3         -2.1502   -2.5934    0.5171 N.am       1 <1>        0.000
      6 C17        -2.8349    1.4731   -0.3722 C.ar       1 <1>        0.000
      7 C19        -3.8924    0.6517    0.0202 C.ar       1 <1>        0.000
      8 C20        -1.0081   -3.0697    1.0866 C.2        1 <1>        0.000
      9 O2         -0.4637   -2.1824    1.9412 O.3        1 <1>        0.000
     10 O3         -0.4975   -4.1512    0.8793 O.2        1 <1>        0.000
     11 H          -0.2962   -0.7876   -0.2011 H.spc      1 <1>        0.000
     12 H          -0.7160    1.5891   -0.7616 H.spc      1 <1>        0.000
     13 H          -4.4849   -1.3279    0.6258 H.spc      1 <1>        0.000
     14 H          -2.8892   -3.2600    0.2939 H.spc      1 <1>        0.000
     15 H          -3.0163    2.5208   -0.6121 H.spc      1 <1>        0.000
     16 H          -4.9009    1.0582    0.0962 H.spc      1 <1>        0.000
     17 H          -1.0084   -1.3924    1.9706 H.spc      1 <1>        0.000
@<TRIPOS>BOND
     1    6    7 ar 
     2    8    9 1  
     3    8   10 2  
     4    1    2 ar 
     5    1    3 ar 
     6    2    4 ar 
     7    2    5 1  
     8    3    6 ar 
     9    4    7 ar 
    10    5    8 am 
    11    1   11 1  
    12    3   12 1  
    13    4   13 1  
    14    5   14 1  
    15    6   15 1  
    16    7   16 1  
    17    9   17 1  
# Name:          frag5-590-120/138278 -- energy: -0.128398
# Creation time: Sat Jun  5 12:53:45 2010


@<TRIPOS>MOLECULE
frag5-590-120/138278 -- energy: -0.128398
   17    17     1     1     1
SMALL
USER_CHARGES


@<TRIPOS>ATOM
      1 C12        -2.9809   -0.8689    0.6777 C.ar       1 <1>        0.000
      2 C14        -1.7460   -1.0366    0.0242 C.ar       1 <1>        0.000
      3 C15        -3.7068    0.3124    0.5402 C.ar       1 <1>        0.000
      4 C16        -1.2893   -0.0039   -0.8014 C.ar       1 <1>        0.000
      5 N3         -0.9997   -2.2111    0.1749 N.am       1 <1>        0.000
      6 C17        -3.2248    1.3398   -0.2720 C.ar       1 <1>        0.000
      7 C19        -2.0153    1.1798   -0.9481 C.ar       1 <1>        0.000
      8 C20        -1.1918   -3.1181    1.1747 C.2        1 <1>        0.000
      9 O2         -1.3025   -2.5160    2.3748 O.3        1 <1>        0.000
     10 O3         -1.2699   -4.3221    1.0529 O.2        1 <1>        0.000
     11 H          -3.3745   -1.6732    1.2992 H.spc      1 <1>        0.000
     12 H          -4.6527    0.4343    1.0679 H.spc      1 <1>        0.000
     13 H          -0.3495   -0.1254   -1.3401 H.spc      1 <1>        0.000
     14 H          -0.2651   -2.4006   -0.5069 H.spc      1 <1>        0.000
     15 H          -3.7919    2.2647   -0.3777 H.spc      1 <1>        0.000
     16 H          -1.6379    1.9765   -1.5891 H.spc      1 <1>        0.000
     17 H          -1.2138   -1.5665    2.2646 H.spc      1 <1>        0.000
@<TRIPOS>BOND
     1    6    7 ar 
     2    8    9 1  
     3    8   10 2  
     4    1    2 ar 
     5    1    3 ar 
     6    2    4 ar 
     7    2    5 1  
     8    3    6 ar 
     9    4    7 ar 
    10    5    8 am 
    11    1   11 1  
    12    3   12 1  
    13    4   13 1  
    14    5   14 1  
    15    6   15 1  
    16    7   16 1  
    17    9   17 1  
# Name:          frag5-590-120/138278 -- energy: -0.315047
# Creation time: Sat Jun  5 12:53:45 2010


@<TRIPOS>MOLECULE
frag5-590-120/138278 -- energy: -0.315047
   17    17     1     1     1
SMALL
USER_CHARGES


@<TRIPOS>ATOM
      1 C12        -3.6390   -0.6139    0.4401 C.ar       1 <1>        0.000
      2 C14        -2.3109   -0.9994    0.6660 C.ar       1 <1>        0.000
      3 C15        -3.9319    0.5069   -0.3389 C.ar       1 <1>        0.000
      4 C16        -1.2858   -0.2585    0.0593 C.ar       1 <1>        0.000
      5 N3         -1.9903   -2.1218    1.4639 N.am       1 <1>        0.000
      6 C17        -2.9005    1.2466   -0.9208 C.ar       1 <1>        0.000
      7 C19        -1.5741    0.8598   -0.7247 C.ar       1 <1>        0.000
      8 C20        -0.9924   -2.9962    1.1430 C.2        1 <1>        0.000
      9 O2         -0.6859   -3.8333    2.1408 O.3        1 <1>        0.000
     10 O3         -0.4160   -3.0350    0.0693 O.2        1 <1>        0.000
     11 H          -4.4513   -1.1948    0.8769 H.spc      1 <1>        0.000
     12 H          -4.9688    0.8054   -0.4933 H.spc      1 <1>        0.000
     13 H          -0.2483   -0.5607    0.2023 H.spc      1 <1>        0.000
     14 H          -2.5275   -2.2851    2.3155 H.spc      1 <1>        0.000
     15 H          -3.1306    2.1233   -1.5262 H.spc      1 <1>        0.000
     16 H          -0.7654    1.4294   -1.1825 H.spc      1 <1>        0.000
     17 H          -1.2462   -3.6462    2.8975 H.spc      1 <1>        0.000
@<TRIPOS>BOND
     1    6    7 ar 
     2    8    9 1  
     3    8   10 2  
     4    1    2 ar 
     5    1    3 ar 
     6    2    4 ar 
     7    2    5 1  
     8    3    6 ar 
     9    4    7 ar 
    10    5    8 am 
    11    1   11 1  
    12    3   12 1  
    13    4   13 1  
    14    5   14 1  
    15    6   15 1  
    16    7   16 1  
    17    9   17 1  
# Name:          frag5-590-120/138278 -- energy: 1.268651
# Creation time: Sat Jun  5 12:53:45 2010


@<TRIPOS>MOLECULE
frag5-590-120/138278 -- energy: 1.268651
   17    17     1     1     1
SMALL
USER_CHARGES


@<TRIPOS>ATOM
      1 C12        -3.2344   -0.8165    0.5158 C.ar       1 <1>        0.000
      2 C14        -1.8419   -0.7876    0.6370 C.ar       1 <1>        0.000
      3 C15        -3.9453    0.1598   -0.1831 C.ar       1 <1>        0.000
      4 C16        -1.1753    0.2032   -0.0811 C.ar       1 <1>        0.000
      5 N3         -1.1924   -1.7575    1.3688 N.am       1 <1>        0.000
      6 C17        -3.2521    1.1122   -0.9173 C.ar       1 <1>        0.000
      7 C19        -1.8604    1.1046   -0.9043 C.ar       1 <1>        0.000
      8 C20        -1.1229   -3.0898    1.1401 C.2        1 <1>        0.000
      9 O2         -0.8005   -3.6590    2.3041 O.3        1 <1>        0.000
     10 O3         -1.3016   -3.7142    0.1181 O.2        1 <1>        0.000
     11 H          -3.7852   -1.6319    0.9847 H.spc      1 <1>        0.000
     12 H          -5.0348    0.1744   -0.1528 H.spc      1 <1>        0.000
     13 H          -0.0910    0.2784    0.0004 H.spc      1 <1>        0.000
     14 H          -0.6960   -1.4263    2.1961 H.spc      1 <1>        0.000
     15 H          -3.7927    1.8591   -1.4987 H.spc      1 <1>        0.000
     16 H          -1.3048    1.7994   -1.5341 H.spc      1 <1>        0.000
     17 H          -0.7079   -2.9799    2.9763 H.spc      1 <1>        0.000
@<TRIPOS>BOND
     1    6    7 ar 
     2    8    9 1  
     3    8   10 2  
     4    1    2 ar 
     5    1    3 ar 
     6    2    4 ar 
     7    2    5 1  
     8    3    6 ar 
     9    4    7 ar 
    10    5    8 am 
    11    1   11 1  
    12    3   12 1  
    13    4   13 1  
    14    5   14 1  
    15    6   15 1  
    16    7   16 1  
    17    9   17 1  
# Name:          frag5-590-120/138278 -- energy: 2.039372
# Creation time: Sat Jun  5 12:53:45 2010


@<TRIPOS>MOLECULE
frag5-590-120/138278 -- energy: 2.039372
   17    17     1     1     1
SMALL
USER_CHARGES


@<TRIPOS>ATOM
      1 C12        -1.4114   -0.4451   -0.4618 C.ar       1 <1>        0.000
      2 C14        -2.3361   -1.1454    0.3009 C.ar       1 <1>        0.000
      3 C15        -1.6745    0.8356   -0.9526 C.ar       1 <1>        0.000
      4 C16        -3.5745   -0.5389    0.4867 C.ar       1 <1>        0.000
      5 N3         -2.0946   -2.3906    0.8556 N.am       1 <1>        0.000
      6 C17        -2.8373    1.4848   -0.5671 C.ar       1 <1>        0.000
      7 C19        -3.7545    0.8232    0.2349 C.ar       1 <1>        0.000
      8 C20        -0.9554   -3.0353    1.1829 C.2        1 <1>        0.000
      9 O2         -1.3002   -4.0242    2.0288 O.3        1 <1>        0.000
     10 O3          0.2118   -2.8089    0.8899 O.2        1 <1>        0.000
     11 H          -0.4505   -0.9091   -0.6844 H.spc      1 <1>        0.000
     12 H          -0.9729    1.3198   -1.6318 H.spc      1 <1>        0.000
     13 H          -4.4175   -1.1361    0.8342 H.spc      1 <1>        0.000
     14 H          -2.9411   -2.9234    1.0554 H.spc      1 <1>        0.000
     15 H          -3.0289    2.5074   -0.8920 H.spc      1 <1>        0.000
     16 H          -4.6029    1.3577    0.6623 H.spc      1 <1>        0.000
     17 H          -2.2548   -4.0399    2.1288 H.spc      1 <1>        0.000
@<TRIPOS>BOND
     1    6    7 ar 
     2    8    9 1  
     3    8   10 2  
     4    1    2 ar 
     5    1    3 ar 
     6    2    4 ar 
     7    2    5 1  
     8    3    6 ar 
     9    4    7 ar 
    10    5    8 am 
    11    1   11 1  
    12    3   12 1  
    13    4   13 1  
    14    5   14 1  
    15    6   15 1  
    16    7   16 1  
    17    9   17 1  
