#      Rotatable Fragment
#      Build by yxyuan
#
# Name:          frag2-081-1/319335
# Creation time: Sat Jun  5 12:52:03 2010


@<TRIPOS>MOLECULE
frag2-081-1/319335
   23    25     1     1     1
SMALL
USER_CHARGES


@<TRIPOS>ATOM
      1 C1         -1.3501   -0.9062    0.0010 C.ar       1 <1>        0.000
      2 C2         -0.1405   -0.1947   -0.0114 C.ar       1 <1>        0.000
      3 C3         -2.5560   -0.1865   -0.0887 C.ar       1 <1>        0.000
      4 C4         -1.2848   -2.3042    0.1126 C.ar       1 <1>        0.000
      5 C5         -0.1632    1.2025    0.0412 C.ar       1 <1>        0.000
      6 C6          1.0878   -0.8644   -0.0710 C.ar       1 <1>        0.000
      7 C7         -2.5100    1.2084    0.0488 C.ar       1 <1>        0.000
      8 C8         -3.8104   -0.7740   -0.3171 C.ar       1 <1>        0.000
      9 C9         -0.0620   -2.9782    0.0436 C.ar       1 <1>        0.000
     10 N1         -1.3338    1.8597    0.1293 N.ar       1 <1>        0.000
     11 C10         1.1294   -2.2596   -0.0620 C.ar       1 <1>        0.000
     12 C11        -3.6783    1.9738    0.1040 C.ar       1 <1>        0.000
     13 C12        -4.9851   -0.0190   -0.2421 C.ar       1 <1>        0.000
     14 C14        -4.9244    1.3581   -0.0223 C.ar       1 <1>        0.000
     15 H          -2.2031   -2.8737    0.2555 H.spc      1 <1>        0.000
     16 H           0.7719    1.7617    0.0107 H.spc      1 <1>        0.000
     17 H           2.0151   -0.2940   -0.1246 H.spc      1 <1>        0.000
     18 H          -3.8697   -1.8357   -0.5567 H.spc      1 <1>        0.000
     19 H          -0.0392   -4.0676    0.0724 H.spc      1 <1>        0.000
     20 H           2.0829   -2.7824   -0.1367 H.spc      1 <1>        0.000
     21 H          -3.6161    3.0527    0.2458 H.spc      1 <1>        0.000
     22 H          -5.9525   -0.5081   -0.3558 H.spc      1 <1>        0.000
     23 H          -5.8396    1.9458    0.0499 H.spc      1 <1>        0.000
@<TRIPOS>BOND
     1    2    5 ar 
     2    8   13 ar 
     3    4    9 ar 
     4    1    2 ar 
     5    7   10 ar 
     6    2    6 ar 
     7    1    3 ar 
     8    3    7 ar 
     9    5   10 ar 
    10    9   11 ar 
    11    3    8 ar 
    12   12   14 ar 
    13    1    4 ar 
    14    6   11 ar 
    15   13   14 ar 
    16    7   12 ar 
    17    4   15 1  
    18    5   16 1  
    19    6   17 1  
    20    8   18 1  
    21    9   19 1  
    22   11   20 1  
    23   12   21 1  
    24   13   22 1  
    25   14   23 1  
# Name:          frag2-081-1/319335 -- energy: -0.627122
# Creation time: Sat Jun  5 12:52:03 2010


@<TRIPOS>MOLECULE
frag2-081-1/319335 -- energy: -0.627122
   23    25     1     1     1
SMALL
USER_CHARGES


@<TRIPOS>ATOM
      1 C1         -1.3501   -0.9062    0.0010 C.ar       1 <1>        0.000
      2 C2         -0.1405   -0.1947   -0.0114 C.ar       1 <1>        0.000
      3 C3         -2.5560   -0.1865   -0.0887 C.ar       1 <1>        0.000
      4 C4         -1.2848   -2.3042    0.1126 C.ar       1 <1>        0.000
      5 C5         -0.1632    1.2025    0.0412 C.ar       1 <1>        0.000
      6 C6          1.0878   -0.8644   -0.0710 C.ar       1 <1>        0.000
      7 C7         -2.5100    1.2084    0.0488 C.ar       1 <1>        0.000
      8 C8         -3.8104   -0.7740   -0.3171 C.ar       1 <1>        0.000
      9 C9         -0.0620   -2.9782    0.0436 C.ar       1 <1>        0.000
     10 N1         -1.3338    1.8597    0.1293 N.ar       1 <1>        0.000
     11 C10         1.1294   -2.2596   -0.0620 C.ar       1 <1>        0.000
     12 C11        -3.6783    1.9738    0.1040 C.ar       1 <1>        0.000
     13 C12        -4.9851   -0.0190   -0.2421 C.ar       1 <1>        0.000
     14 C14        -4.9244    1.3581   -0.0223 C.ar       1 <1>        0.000
     15 H          -2.2031   -2.8737    0.2555 H.spc      1 <1>        0.000
     16 H           0.7719    1.7617    0.0107 H.spc      1 <1>        0.000
     17 H           2.0151   -0.2940   -0.1246 H.spc      1 <1>        0.000
     18 H          -3.8697   -1.8357   -0.5567 H.spc      1 <1>        0.000
     19 H          -0.0392   -4.0676    0.0724 H.spc      1 <1>        0.000
     20 H           2.0829   -2.7824   -0.1367 H.spc      1 <1>        0.000
     21 H          -3.6161    3.0527    0.2458 H.spc      1 <1>        0.000
     22 H          -5.9525   -0.5081   -0.3558 H.spc      1 <1>        0.000
     23 H          -5.8396    1.9458    0.0499 H.spc      1 <1>        0.000
@<TRIPOS>BOND
     1    2    5 ar 
     2    8   13 ar 
     3    4    9 ar 
     4    1    2 ar 
     5    7   10 ar 
     6    2    6 ar 
     7    1    3 ar 
     8    3    7 ar 
     9    5   10 ar 
    10    9   11 ar 
    11    3    8 ar 
    12   12   14 ar 
    13    1    4 ar 
    14    6   11 ar 
    15   13   14 ar 
    16    7   12 ar 
    17    4   15 1  
    18    5   16 1  
    19    6   17 1  
    20    8   18 1  
    21    9   19 1  
    22   11   20 1  
    23   12   21 1  
    24   13   22 1  
    25   14   23 1  
