#      Rotatable Fragment
#      Build by yxyuan
#
# Name:          frag5-628-86/138278
# Creation time: Sat Jun  5 12:53:48 2010


@<TRIPOS>MOLECULE
frag5-628-86/138278
   17    17     1     1     1
SMALL
USER_CHARGES


@<TRIPOS>ATOM
      1 C1         -1.7155    0.0434   -0.0516 C.ar       1 <1>        0.000
      2 C2         -2.8683    0.9426   -0.1368 C.ar       1 <1>        0.000
      3 C3         -0.4525    0.5606    0.5716 C.2        1 <1>        0.000
      4 C4         -1.8237   -1.2748   -0.6934 C.ar       1 <1>        0.000
      5 C5         -4.3083    0.4687   -0.4959 C.ar       1 <1>        0.000
      6 N1         -0.5217    1.5541    1.4860 N.am       1 <1>        0.000
      7 O1          0.5922    0.0441    0.2031 O.2        1 <1>        0.000
      8 C6         -3.2287   -1.8712   -0.9730 C.ar       1 <1>        0.000
      9 C7         -4.3711   -0.9749   -0.8215 C.ar       1 <1>        0.000
     10 O2         -5.2815    1.3245   -0.5047 O.3        1 <1>        0.000
     11 H          -2.7100    2.0025    0.0621 H.spc      1 <1>        0.000
     12 H          -0.9260   -1.8277   -0.9701 H.spc      1 <1>        0.000
     13 H           0.3317    1.9156    1.9118 H.spc      1 <1>        0.000
     14 H          -1.4273    1.9421    1.7500 H.spc      1 <1>        0.000
     15 H          -3.3569   -2.9123   -1.2691 H.spc      1 <1>        0.000
     16 H          -5.3616   -1.4080   -0.9608 H.spc      1 <1>        0.000
     17 H          -6.0969    0.8777   -0.7435 H.spc      1 <1>        0.000
@<TRIPOS>BOND
     1    5   10 1  
     2    8    9 ar 
     3    1    3 1  
     4    1    2 ar 
     5    1    4 ar 
     6    2    5 ar 
     7    3    6 am 
     8    3    7 2  
     9    4    8 ar 
    10    5    9 ar 
    11    2   11 1  
    12    4   12 1  
    13    6   13 1  
    14    6   14 1  
    15    8   15 1  
    16    9   16 1  
    17   10   17 1  
# Name:          frag5-628-86/138278
# Creation time: Sat Jun  5 12:53:48 2010


@<TRIPOS>MOLECULE
frag5-628-86/138278
   17    17     1     1     1
SMALL
USER_CHARGES


@<TRIPOS>ATOM
      1 C1         -1.7130    0.0850   -0.0751 C.ar       1 <1>        0.000
      2 C2         -2.9254    0.8917    0.0462 C.ar       1 <1>        0.000
      3 C3         -0.4590    0.5541    0.6104 C.2        1 <1>        0.000
      4 C4         -1.7593   -1.1035   -0.9442 C.ar       1 <1>        0.000
      5 C5         -4.3472    0.3847   -0.3538 C.ar       1 <1>        0.000
      6 N1         -0.0760    1.8436    0.4840 N.am       1 <1>        0.000
      7 O1          0.1286   -0.2961    1.2597 O.2        1 <1>        0.000
      8 C6         -3.1318   -1.7357   -1.3012 C.ar       1 <1>        0.000
      9 C7         -4.3243   -0.9688   -0.9533 C.ar       1 <1>        0.000
     10 O2         -5.3715    1.1621   -0.1888 O.3        1 <1>        0.000
     11 H          -2.8320    1.9045    0.4380 H.spc      1 <1>        0.000
     12 H          -0.8375   -1.5356   -1.3335 H.spc      1 <1>        0.000
     13 H           0.7672    2.1736    0.9537 H.spc      1 <1>        0.000
     14 H          -0.6300    2.4871   -0.0811 H.spc      1 <1>        0.000
     15 H          -3.2017   -2.7078   -1.7893 H.spc      1 <1>        0.000
     16 H          -5.2882   -1.4366   -1.1537 H.spc      1 <1>        0.000
     17 H          -6.1661    0.7087   -0.4798 H.spc      1 <1>        0.000
@<TRIPOS>BOND
     1    5   10 1  
     2    8    9 ar 
     3    1    3 1  
     4    1    2 ar 
     5    1    4 ar 
     6    2    5 ar 
     7    3    6 am 
     8    3    7 2  
     9    4    8 ar 
    10    5    9 ar 
    11    2   11 1  
    12    4   12 1  
    13    6   13 1  
    14    6   14 1  
    15    8   15 1  
    16    9   16 1  
    17   10   17 1  
# Name:          frag5-628-86/138278
# Creation time: Sat Jun  5 12:53:48 2010


@<TRIPOS>MOLECULE
frag5-628-86/138278
   17    17     1     1     1
SMALL
USER_CHARGES


@<TRIPOS>ATOM
      1 C1         -1.7182    0.0312   -0.0274 C.ar       1 <1>        0.000
      2 C2         -2.8038    0.9592   -0.3440 C.ar       1 <1>        0.000
      3 C3         -0.4561    0.5990    0.5514 C.2        1 <1>        0.000
      4 C4         -1.8988   -1.3827   -0.3693 C.ar       1 <1>        0.000
      5 C5         -4.2740    0.4995   -0.6690 C.ar       1 <1>        0.000
      6 N1          0.1661   -0.0568    1.5493 N.am       1 <1>        0.000
      7 O1         -0.0729    1.6686    0.0954 O.2        1 <1>        0.000
      8 C6         -3.3291   -1.9370   -0.5991 C.ar       1 <1>        0.000
      9 C7         -4.4181   -0.9658   -0.6938 C.ar       1 <1>        0.000
     10 O2         -5.1741    1.4021   -0.9096 O.3        1 <1>        0.000
     11 H          -2.5829    2.0265   -0.3555 H.spc      1 <1>        0.000
     12 H          -1.0341   -2.0399   -0.4614 H.spc      1 <1>        0.000
     13 H           1.0084    0.3355    1.9701 H.spc      1 <1>        0.000
     14 H          -0.2048   -0.9459    1.8844 H.spc      1 <1>        0.000
     15 H          -3.5150   -3.0075   -0.6865 H.spc      1 <1>        0.000
     16 H          -5.4286   -1.3626   -0.7917 H.spc      1 <1>        0.000
     17 H          -6.0145    0.9744   -1.0896 H.spc      1 <1>        0.000
@<TRIPOS>BOND
     1    5   10 1  
     2    8    9 ar 
     3    1    3 1  
     4    1    2 ar 
     5    1    4 ar 
     6    2    5 ar 
     7    3    6 am 
     8    3    7 2  
     9    4    8 ar 
    10    5    9 ar 
    11    2   11 1  
    12    4   12 1  
    13    6   13 1  
    14    6   14 1  
    15    8   15 1  
    16    9   16 1  
    17   10   17 1  
# Name:          frag5-628-86/138278
# Creation time: Sat Jun  5 12:53:49 2010


@<TRIPOS>MOLECULE
frag5-628-86/138278
   17    17     1     1     1
SMALL
USER_CHARGES


@<TRIPOS>ATOM
      1 C1         -1.7167    0.0617   -0.0460 C.ar       1 <1>        0.000
      2 C2         -2.8846    0.9407   -0.1161 C.ar       1 <1>        0.000
      3 C3         -0.4706    0.5972    0.6087 C.2        1 <1>        0.000
      4 C4         -1.8023   -1.2434   -0.7103 C.ar       1 <1>        0.000
      5 C5         -4.3270    0.4417   -0.4948 C.ar       1 <1>        0.000
      6 N1          0.7325    0.1539    0.1962 N.am       1 <1>        0.000
      7 O1         -0.6498    1.4156    1.4995 O.2        1 <1>        0.000
      8 C6         -3.1951   -1.8562   -1.0093 C.ar       1 <1>        0.000
      9 C7         -4.3610   -0.9881   -0.8483 C.ar       1 <1>        0.000
     10 O2         -5.3044    1.2940   -0.4957 O.3        1 <1>        0.000
     11 H          -2.7472    1.9989    0.1063 H.spc      1 <1>        0.000
     12 H          -0.8948   -1.7778   -0.9913 H.spc      1 <1>        0.000
     13 H           1.5834    0.5042    0.6362 H.spc      1 <1>        0.000
     14 H           0.7927   -0.5321   -0.5562 H.spc      1 <1>        0.000
     15 H          -3.3010   -2.8935   -1.3271 H.spc      1 <1>        0.000
     16 H          -5.3413   -1.4386   -1.0035 H.spc      1 <1>        0.000
     17 H          -6.1168    0.8472   -0.7446 H.spc      1 <1>        0.000
@<TRIPOS>BOND
     1    5   10 1  
     2    8    9 ar 
     3    1    3 1  
     4    1    2 ar 
     5    1    4 ar 
     6    2    5 ar 
     7    3    6 am 
     8    3    7 2  
     9    4    8 ar 
    10    5    9 ar 
    11    2   11 1  
    12    4   12 1  
    13    6   13 1  
    14    6   14 1  
    15    8   15 1  
    16    9   16 1  
    17   10   17 1  
# Name:          frag5-628-86/138278 -- energy: -1.180911
# Creation time: Sat Jun  5 12:53:49 2010


@<TRIPOS>MOLECULE
frag5-628-86/138278 -- energy: -1.180911
   17    17     1     1     1
SMALL
USER_CHARGES


@<TRIPOS>ATOM
      1 C1         -1.7155    0.0434   -0.0516 C.ar       1 <1>        0.000
      2 C2         -2.8683    0.9426   -0.1368 C.ar       1 <1>        0.000
      3 C3         -0.4525    0.5606    0.5716 C.2        1 <1>        0.000
      4 C4         -1.8237   -1.2748   -0.6934 C.ar       1 <1>        0.000
      5 C5         -4.3083    0.4687   -0.4959 C.ar       1 <1>        0.000
      6 N1         -0.5217    1.5541    1.4860 N.am       1 <1>        0.000
      7 O1          0.5922    0.0441    0.2031 O.2        1 <1>        0.000
      8 C6         -3.2287   -1.8712   -0.9730 C.ar       1 <1>        0.000
      9 C7         -4.3711   -0.9749   -0.8215 C.ar       1 <1>        0.000
     10 O2         -5.2815    1.3245   -0.5047 O.3        1 <1>        0.000
     11 H          -2.7100    2.0025    0.0621 H.spc      1 <1>        0.000
     12 H          -0.9260   -1.8277   -0.9701 H.spc      1 <1>        0.000
     13 H           0.3317    1.9156    1.9118 H.spc      1 <1>        0.000
     14 H          -1.4273    1.9421    1.7500 H.spc      1 <1>        0.000
     15 H          -3.3569   -2.9123   -1.2691 H.spc      1 <1>        0.000
     16 H          -5.3616   -1.4080   -0.9608 H.spc      1 <1>        0.000
     17 H          -6.0969    0.8777   -0.7435 H.spc      1 <1>        0.000
@<TRIPOS>BOND
     1    5   10 1  
     2    8    9 ar 
     3    1    3 1  
     4    1    2 ar 
     5    1    4 ar 
     6    2    5 ar 
     7    3    6 am 
     8    3    7 2  
     9    4    8 ar 
    10    5    9 ar 
    11    2   11 1  
    12    4   12 1  
    13    6   13 1  
    14    6   14 1  
    15    8   15 1  
    16    9   16 1  
    17   10   17 1  
# Name:          frag5-628-86/138278 -- energy: -1.359247
# Creation time: Sat Jun  5 12:53:49 2010


@<TRIPOS>MOLECULE
frag5-628-86/138278 -- energy: -1.359247
   17    17     1     1     1
SMALL
USER_CHARGES


@<TRIPOS>ATOM
      1 C1         -1.7130    0.0850   -0.0751 C.ar       1 <1>        0.000
      2 C2         -2.9254    0.8917    0.0462 C.ar       1 <1>        0.000
      3 C3         -0.4590    0.5541    0.6104 C.2        1 <1>        0.000
      4 C4         -1.7593   -1.1035   -0.9442 C.ar       1 <1>        0.000
      5 C5         -4.3472    0.3847   -0.3538 C.ar       1 <1>        0.000
      6 N1         -0.0760    1.8436    0.4840 N.am       1 <1>        0.000
      7 O1          0.1286   -0.2961    1.2597 O.2        1 <1>        0.000
      8 C6         -3.1318   -1.7357   -1.3012 C.ar       1 <1>        0.000
      9 C7         -4.3243   -0.9688   -0.9533 C.ar       1 <1>        0.000
     10 O2         -5.3715    1.1621   -0.1888 O.3        1 <1>        0.000
     11 H          -2.8320    1.9045    0.4380 H.spc      1 <1>        0.000
     12 H          -0.8375   -1.5356   -1.3335 H.spc      1 <1>        0.000
     13 H           0.7672    2.1736    0.9537 H.spc      1 <1>        0.000
     14 H          -0.6300    2.4871   -0.0811 H.spc      1 <1>        0.000
     15 H          -3.2017   -2.7078   -1.7893 H.spc      1 <1>        0.000
     16 H          -5.2882   -1.4366   -1.1537 H.spc      1 <1>        0.000
     17 H          -6.1661    0.7087   -0.4798 H.spc      1 <1>        0.000
@<TRIPOS>BOND
     1    5   10 1  
     2    8    9 ar 
     3    1    3 1  
     4    1    2 ar 
     5    1    4 ar 
     6    2    5 ar 
     7    3    6 am 
     8    3    7 2  
     9    4    8 ar 
    10    5    9 ar 
    11    2   11 1  
    12    4   12 1  
    13    6   13 1  
    14    6   14 1  
    15    8   15 1  
    16    9   16 1  
    17   10   17 1  
# Name:          frag5-628-86/138278 -- energy: -1.289379
# Creation time: Sat Jun  5 12:53:49 2010


@<TRIPOS>MOLECULE
frag5-628-86/138278 -- energy: -1.289379
   17    17     1     1     1
SMALL
USER_CHARGES


@<TRIPOS>ATOM
      1 C1         -1.7182    0.0312   -0.0274 C.ar       1 <1>        0.000
      2 C2         -2.8038    0.9592   -0.3440 C.ar       1 <1>        0.000
      3 C3         -0.4561    0.5990    0.5514 C.2        1 <1>        0.000
      4 C4         -1.8988   -1.3827   -0.3693 C.ar       1 <1>        0.000
      5 C5         -4.2740    0.4995   -0.6690 C.ar       1 <1>        0.000
      6 N1          0.1661   -0.0568    1.5493 N.am       1 <1>        0.000
      7 O1         -0.0729    1.6686    0.0954 O.2        1 <1>        0.000
      8 C6         -3.3291   -1.9370   -0.5991 C.ar       1 <1>        0.000
      9 C7         -4.4181   -0.9658   -0.6938 C.ar       1 <1>        0.000
     10 O2         -5.1741    1.4021   -0.9096 O.3        1 <1>        0.000
     11 H          -2.5829    2.0265   -0.3555 H.spc      1 <1>        0.000
     12 H          -1.0341   -2.0399   -0.4614 H.spc      1 <1>        0.000
     13 H           1.0084    0.3355    1.9701 H.spc      1 <1>        0.000
     14 H          -0.2048   -0.9459    1.8844 H.spc      1 <1>        0.000
     15 H          -3.5150   -3.0075   -0.6865 H.spc      1 <1>        0.000
     16 H          -5.4286   -1.3626   -0.7917 H.spc      1 <1>        0.000
     17 H          -6.0145    0.9744   -1.0896 H.spc      1 <1>        0.000
@<TRIPOS>BOND
     1    5   10 1  
     2    8    9 ar 
     3    1    3 1  
     4    1    2 ar 
     5    1    4 ar 
     6    2    5 ar 
     7    3    6 am 
     8    3    7 2  
     9    4    8 ar 
    10    5    9 ar 
    11    2   11 1  
    12    4   12 1  
    13    6   13 1  
    14    6   14 1  
    15    8   15 1  
    16    9   16 1  
    17   10   17 1  
# Name:          frag5-628-86/138278 -- energy: -1.204879
# Creation time: Sat Jun  5 12:53:49 2010


@<TRIPOS>MOLECULE
frag5-628-86/138278 -- energy: -1.204879
   17    17     1     1     1
SMALL
USER_CHARGES


@<TRIPOS>ATOM
      1 C1         -1.7167    0.0617   -0.0460 C.ar       1 <1>        0.000
      2 C2         -2.8846    0.9407   -0.1161 C.ar       1 <1>        0.000
      3 C3         -0.4706    0.5972    0.6087 C.2        1 <1>        0.000
      4 C4         -1.8023   -1.2434   -0.7103 C.ar       1 <1>        0.000
      5 C5         -4.3270    0.4417   -0.4948 C.ar       1 <1>        0.000
      6 N1          0.7325    0.1539    0.1962 N.am       1 <1>        0.000
      7 O1         -0.6498    1.4156    1.4995 O.2        1 <1>        0.000
      8 C6         -3.1951   -1.8562   -1.0093 C.ar       1 <1>        0.000
      9 C7         -4.3610   -0.9881   -0.8483 C.ar       1 <1>        0.000
     10 O2         -5.3044    1.2940   -0.4957 O.3        1 <1>        0.000
     11 H          -2.7472    1.9989    0.1063 H.spc      1 <1>        0.000
     12 H          -0.8948   -1.7778   -0.9913 H.spc      1 <1>        0.000
     13 H           1.5834    0.5042    0.6362 H.spc      1 <1>        0.000
     14 H           0.7927   -0.5321   -0.5562 H.spc      1 <1>        0.000
     15 H          -3.3010   -2.8935   -1.3271 H.spc      1 <1>        0.000
     16 H          -5.3413   -1.4386   -1.0035 H.spc      1 <1>        0.000
     17 H          -6.1168    0.8472   -0.7446 H.spc      1 <1>        0.000
@<TRIPOS>BOND
     1    5   10 1  
     2    8    9 ar 
     3    1    3 1  
     4    1    2 ar 
     5    1    4 ar 
     6    2    5 ar 
     7    3    6 am 
     8    3    7 2  
     9    4    8 ar 
    10    5    9 ar 
    11    2   11 1  
    12    4   12 1  
    13    6   13 1  
    14    6   14 1  
    15    8   15 1  
    16    9   16 1  
    17   10   17 1  
