#      Rotatable Fragment
#      Build by yxyuan
#
# Name:          frag5-562-47/41815
# Creation time: Sat Jun  5 12:52:54 2010


@<TRIPOS>MOLECULE
frag5-562-47/41815
   40    43     1     1     1
SMALL
USER_CHARGES


@<TRIPOS>ATOM
      1 C4         -0.5289    0.9632    2.7025 C.3        1 <1>        0.000
      2 C5          0.6037    0.6395    3.7396 C.3        1 <1>        0.000
      3 C6          1.2887    1.9356    4.2817 C.3        1 <1>        0.000
      4 C7          2.8162    1.7942    4.5378 C.3        1 <1>        0.000
      5 C8          3.8797    1.5705    3.4009 C.3        1 <1>        0.000
      6 C9          5.1974    1.2233    4.1325 C.3        1 <1>        0.000
      7 C10         6.5853    1.4953    3.4663 C.3        1 <1>        0.000
      8 C18         0.2093    1.7077    1.6253 C.2        1 <1>        0.000
      9 O4          7.0139    1.9089    4.7573 O.3        1 <1>        0.000
     10 C11         5.7180    2.1183    5.3014 C.3        1 <1>        0.000
     11 C12         6.5783    2.7054    2.5212 C.3        1 <1>        0.000
     12 C13         5.3989    2.5920    1.5590 C.3        1 <1>        0.000
     13 C14         4.0329    2.6768    2.2960 C.3        1 <1>        0.000
     14 C15         3.0335    2.5588    1.1550 C.2        1 <1>        0.000
     15 C16         1.8329    3.5051    1.0561 C.3        1 <1>        0.000
     16 C17         0.9764    2.7440    2.0077 C.2        1 <1>        0.000
     17 C20         0.9535    3.1837    3.4349 C.3        1 <1>        0.000
     18 O7          3.1560    1.6748    0.3069 O.2        1 <1>        0.000
     19 H          -1.3466    1.5408    3.1336 H.spc      1 <1>        0.000
     20 H          -1.0331    0.0706    2.3323 H.spc      1 <1>        0.000
     21 H           1.3618    0.0369    3.2395 H.spc      1 <1>        0.000
     22 H           0.1545    0.1135    4.5820 H.spc      1 <1>        0.000
     23 H           0.8476    2.0872    5.2669 H.spc      1 <1>        0.000
     24 H           3.0863    2.7743    4.9308 H.spc      1 <1>        0.000
     25 H           2.8796    0.8700    5.1122 H.spc      1 <1>        0.000
     26 H           3.5247    0.7626    2.7610 H.spc      1 <1>        0.000
     27 H           4.8142    0.2149    4.2888 H.spc      1 <1>        0.000
     28 H           7.0815    0.7353    2.8628 H.spc      1 <1>        0.000
     29 H           0.1263    1.4195    0.5774 H.spc      1 <1>        0.000
     30 H           5.4841    1.9064    6.3447 H.spc      1 <1>        0.000
     31 H           5.3212    3.1156    5.4914 H.spc      1 <1>        0.000
     32 H           6.4849    3.6215    3.1043 H.spc      1 <1>        0.000
     33 H           7.5090    2.7293    1.9543 H.spc      1 <1>        0.000
     34 H           5.4559    3.4198    0.8522 H.spc      1 <1>        0.000
     35 H           5.4575    1.6237    1.0619 H.spc      1 <1>        0.000
     36 H           3.8964    3.5948    2.8677 H.spc      1 <1>        0.000
     37 H           2.0120    4.5557    1.2846 H.spc      1 <1>        0.000
     38 H           1.4263    3.6848    0.0609 H.spc      1 <1>        0.000
     39 H           1.6761    3.9807    3.6101 H.spc      1 <1>        0.000
     40 H          -0.0223    3.5881    3.7038 H.spc      1 <1>        0.000
@<TRIPOS>BOND
     1    5    6 1  
     2    4    5 1  
     3    3   17 1  
     4    3    4 1  
     5    1    2 1  
     6    2    3 1  
     7    5   13 1  
     8    6   10 1  
     9    1    8 1  
    10    6    7 1  
    11   16   17 1  
    12   16    8 2  
    13   15   16 1  
    14   14   18 2  
    15   14   15 1  
    16   13   14 1  
    17   12   13 1  
    18   11   12 1  
    19    7   11 1  
    20    9   10 1  
    21    7    9 1  
    22    1   19 1  
    23    1   20 1  
    24    2   21 1  
    25    2   22 1  
    26    3   23 1  
    27    4   24 1  
    28    4   25 1  
    29    5   26 1  
    30    6   27 1  
    31    7   28 1  
    32    8   29 1  
    33   10   30 1  
    34   10   31 1  
    35   11   32 1  
    36   11   33 1  
    37   12   34 1  
    38   12   35 1  
    39   13   36 1  
    40   15   37 1  
    41   15   38 1  
    42   17   39 1  
    43   17   40 1  
# Name:          frag5-562-47/41815 -- energy: -8.084302
# Creation time: Sat Jun  5 12:52:54 2010


@<TRIPOS>MOLECULE
frag5-562-47/41815 -- energy: -8.084302
   40    43     1     1     1
SMALL
USER_CHARGES


@<TRIPOS>ATOM
      1 C4         -0.5289    0.9632    2.7025 C.3        1 <1>        0.000
      2 C5          0.6037    0.6395    3.7396 C.3        1 <1>        0.000
      3 C6          1.2887    1.9356    4.2817 C.3        1 <1>        0.000
      4 C7          2.8162    1.7942    4.5378 C.3        1 <1>        0.000
      5 C8          3.8797    1.5705    3.4009 C.3        1 <1>        0.000
      6 C9          5.1974    1.2233    4.1325 C.3        1 <1>        0.000
      7 C10         6.5853    1.4953    3.4663 C.3        1 <1>        0.000
      8 C18         0.2093    1.7077    1.6253 C.2        1 <1>        0.000
      9 O4          7.0139    1.9089    4.7573 O.3        1 <1>        0.000
     10 C11         5.7180    2.1183    5.3014 C.3        1 <1>        0.000
     11 C12         6.5783    2.7054    2.5212 C.3        1 <1>        0.000
     12 C13         5.3989    2.5920    1.5590 C.3        1 <1>        0.000
     13 C14         4.0329    2.6768    2.2960 C.3        1 <1>        0.000
     14 C15         3.0335    2.5588    1.1550 C.2        1 <1>        0.000
     15 C16         1.8329    3.5051    1.0561 C.3        1 <1>        0.000
     16 C17         0.9764    2.7440    2.0077 C.2        1 <1>        0.000
     17 C20         0.9535    3.1837    3.4349 C.3        1 <1>        0.000
     18 O7          3.1560    1.6748    0.3069 O.2        1 <1>        0.000
     19 H          -1.3466    1.5408    3.1336 H.spc      1 <1>        0.000
     20 H          -1.0331    0.0706    2.3323 H.spc      1 <1>        0.000
     21 H           1.3618    0.0369    3.2395 H.spc      1 <1>        0.000
     22 H           0.1545    0.1135    4.5820 H.spc      1 <1>        0.000
     23 H           0.8476    2.0872    5.2669 H.spc      1 <1>        0.000
     24 H           3.0863    2.7743    4.9308 H.spc      1 <1>        0.000
     25 H           2.8796    0.8700    5.1122 H.spc      1 <1>        0.000
     26 H           3.5247    0.7626    2.7610 H.spc      1 <1>        0.000
     27 H           4.8142    0.2149    4.2888 H.spc      1 <1>        0.000
     28 H           7.0815    0.7353    2.8628 H.spc      1 <1>        0.000
     29 H           0.1263    1.4195    0.5774 H.spc      1 <1>        0.000
     30 H           5.4841    1.9064    6.3447 H.spc      1 <1>        0.000
     31 H           5.3212    3.1156    5.4914 H.spc      1 <1>        0.000
     32 H           6.4849    3.6215    3.1043 H.spc      1 <1>        0.000
     33 H           7.5090    2.7293    1.9543 H.spc      1 <1>        0.000
     34 H           5.4559    3.4198    0.8522 H.spc      1 <1>        0.000
     35 H           5.4575    1.6237    1.0619 H.spc      1 <1>        0.000
     36 H           3.8964    3.5948    2.8677 H.spc      1 <1>        0.000
     37 H           2.0120    4.5557    1.2846 H.spc      1 <1>        0.000
     38 H           1.4263    3.6848    0.0609 H.spc      1 <1>        0.000
     39 H           1.6761    3.9807    3.6101 H.spc      1 <1>        0.000
     40 H          -0.0223    3.5881    3.7038 H.spc      1 <1>        0.000
@<TRIPOS>BOND
     1    5    6 1  
     2    4    5 1  
     3    3   17 1  
     4    3    4 1  
     5    1    2 1  
     6    2    3 1  
     7    5   13 1  
     8    6   10 1  
     9    1    8 1  
    10    6    7 1  
    11   16   17 1  
    12   16    8 2  
    13   15   16 1  
    14   14   18 2  
    15   14   15 1  
    16   13   14 1  
    17   12   13 1  
    18   11   12 1  
    19    7   11 1  
    20    9   10 1  
    21    7    9 1  
    22    1   19 1  
    23    1   20 1  
    24    2   21 1  
    25    2   22 1  
    26    3   23 1  
    27    4   24 1  
    28    4   25 1  
    29    5   26 1  
    30    6   27 1  
    31    7   28 1  
    32    8   29 1  
    33   10   30 1  
    34   10   31 1  
    35   11   32 1  
    36   11   33 1  
    37   12   34 1  
    38   12   35 1  
    39   13   36 1  
    40   15   37 1  
    41   15   38 1  
    42   17   39 1  
    43   17   40 1  
