#      Rotatable Fragment
#      Build by yxyuan
#
# Name:          frag5-594-37/41815
# Creation time: Sat Jun  5 12:52:57 2010


@<TRIPOS>MOLECULE
frag5-594-37/41815
   16    16     1     1     1
SMALL
USER_CHARGES


@<TRIPOS>ATOM
      1 C15         2.1061   -0.5844   -0.1410 C.ar       1 <1>        0.000
      2 C16         1.6441    0.7322   -0.0804 C.ar       1 <1>        0.000
      3 C17         0.2823    1.1224    0.0458 C.ar       1 <1>        0.000
      4 C18        -0.6234    0.0285    0.1015 C.ar       1 <1>        0.000
      5 C19        -0.1778   -1.3110    0.0373 C.ar       1 <1>        0.000
      6 C20         1.1808   -1.6081   -0.0789 C.ar       1 <1>        0.000
      7 C21        -2.1221    0.3066    0.2126 C.2        1 <1>        0.000
      8 O2         -2.9113   -0.4188   -0.3660 O.2        1 <1>        0.000
      9 O3         -2.4444    1.3617    0.9726 O.3        1 <1>        0.000
     10 O4         -0.0799    2.4042    0.0876 O.3        1 <1>        0.000
     11 H           3.1707   -0.7989   -0.2350 H.spc      1 <1>        0.000
     12 H           2.3888    1.5263   -0.1343 H.spc      1 <1>        0.000
     13 H          -0.9044   -2.1224    0.0791 H.spc      1 <1>        0.000
     14 H           1.5111   -2.6460   -0.1206 H.spc      1 <1>        0.000
     15 H          -1.6431    1.7651    1.3145 H.spc      1 <1>        0.000
     16 H          -1.0341    2.4633    0.1745 H.spc      1 <1>        0.000
@<TRIPOS>BOND
     1    7    8 2  
     2    7    9 1  
     3    1    2 ar 
     4    2    3 ar 
     5    1    6 ar 
     6    3    4 ar 
     7    3   10 1  
     8    4    5 ar 
     9    4    7 1  
    10    5    6 ar 
    11    1   11 1  
    12    2   12 1  
    13    5   13 1  
    14    6   14 1  
    15    9   15 1  
    16   10   16 1  
# Name:          frag5-594-37/41815
# Creation time: Sat Jun  5 12:52:57 2010


@<TRIPOS>MOLECULE
frag5-594-37/41815
   16    16     1     1     1
SMALL
USER_CHARGES


@<TRIPOS>ATOM
      1 C15         2.1061   -0.5742   -0.2005 C.ar       1 <1>        0.000
      2 C16         1.6616    0.7136    0.1045 C.ar       1 <1>        0.000
      3 C17         0.2963    1.0919    0.2593 C.ar       1 <1>        0.000
      4 C18        -0.6282    0.0310    0.0540 C.ar       1 <1>        0.000
      5 C19        -0.1965   -1.2792   -0.2406 C.ar       1 <1>        0.000
      6 C20         1.1634   -1.5714   -0.3750 C.ar       1 <1>        0.000
      7 C21        -2.1220    0.3125    0.1966 C.2        1 <1>        0.000
      8 O2         -2.8303   -0.4850    0.7837 O.2        1 <1>        0.000
      9 O3         -2.5419    1.4548   -0.3612 O.3        1 <1>        0.000
     10 O4         -0.0542    2.3393    0.5706 O.3        1 <1>        0.000
     11 H           3.1703   -0.7887   -0.2988 H.spc      1 <1>        0.000
     12 H           2.4165    1.4891    0.2342 H.spc      1 <1>        0.000
     13 H          -0.9326   -2.0734   -0.3649 H.spc      1 <1>        0.000
     14 H           1.4814   -2.5854   -0.6174 H.spc      1 <1>        0.000
     15 H          -1.7959    1.9070   -0.7621 H.spc      1 <1>        0.000
     16 H          -1.0107    2.3964    0.6300 H.spc      1 <1>        0.000
@<TRIPOS>BOND
     1    7    8 2  
     2    7    9 1  
     3    1    2 ar 
     4    2    3 ar 
     5    1    6 ar 
     6    3    4 ar 
     7    3   10 1  
     8    4    5 ar 
     9    4    7 1  
    10    5    6 ar 
    11    1   11 1  
    12    2   12 1  
    13    5   13 1  
    14    6   14 1  
    15    9   15 1  
    16   10   16 1  
# Name:          frag5-594-37/41815
# Creation time: Sat Jun  5 12:52:57 2010


@<TRIPOS>MOLECULE
frag5-594-37/41815
   16    16     1     1     1
SMALL
USER_CHARGES


@<TRIPOS>ATOM
      1 C15         2.1234   -0.5787   -0.0933 C.ar       1 <1>        0.000
      2 C16         1.6661    0.7180   -0.3035 C.ar       1 <1>        0.000
      3 C17         0.2770    1.0800   -0.1885 C.ar       1 <1>        0.000
      4 C18        -0.6396    0.0406    0.1459 C.ar       1 <1>        0.000
      5 C19        -0.1655   -1.2628    0.3585 C.ar       1 <1>        0.000
      6 C20         1.2071   -1.5724    0.2385 C.ar       1 <1>        0.000
      7 C21        -2.0944    0.3529    0.2689 C.2        1 <1>        0.000
      8 O2         -2.6722    0.9468   -0.6196 O.2        1 <1>        0.000
      9 O3         -2.7339   -0.0463    1.3770 O.3        1 <1>        0.000
     10 O4         -0.1136    2.3554   -0.3927 O.3        1 <1>        0.000
     11 H           3.1837   -0.8132   -0.1870 H.spc      1 <1>        0.000
     12 H           2.3882    1.4912   -0.5658 H.spc      1 <1>        0.000
     13 H          -0.8703   -2.0516    0.6214 H.spc      1 <1>        0.000
     14 H           1.5502   -2.5933    0.4063 H.spc      1 <1>        0.000
     15 H          -2.1153   -0.4951    1.9580 H.spc      1 <1>        0.000
     16 H          -1.0644    2.4201   -0.2771 H.spc      1 <1>        0.000
@<TRIPOS>BOND
     1    7    8 2  
     2    7    9 1  
     3    1    2 ar 
     4    2    3 ar 
     5    1    6 ar 
     6    3    4 ar 
     7    3   10 1  
     8    4    5 ar 
     9    4    7 1  
    10    5    6 ar 
    11    1   11 1  
    12    2   12 1  
    13    5   13 1  
    14    6   14 1  
    15    9   15 1  
    16   10   16 1  
# Name:          frag5-594-37/41815
# Creation time: Sat Jun  5 12:52:57 2010


@<TRIPOS>MOLECULE
frag5-594-37/41815
   16    16     1     1     1
SMALL
USER_CHARGES


@<TRIPOS>ATOM
      1 C15         2.1165   -0.5827   -0.1752 C.ar       1 <1>        0.000
      2 C16         1.6991    0.7403   -0.0643 C.ar       1 <1>        0.000
      3 C17         0.3094    1.0902    0.0857 C.ar       1 <1>        0.000
      4 C18        -0.6505    0.0403    0.1121 C.ar       1 <1>        0.000
      5 C19        -0.2075   -1.2900    0.0005 C.ar       1 <1>        0.000
      6 C20         1.1669   -1.6011   -0.1435 C.ar       1 <1>        0.000
      7 C21        -2.0862    0.3502    0.2522 C.2        1 <1>        0.000
      8 O2         -2.4739    1.1609    1.0722 O.2        1 <1>        0.000
      9 O3         -2.9699   -0.2732   -0.5502 O.3        1 <1>        0.000
     10 O4         -0.0496    2.3984    0.2017 O.3        1 <1>        0.000
     11 H           3.1748   -0.8193   -0.2856 H.spc      1 <1>        0.000
     12 H           2.4449    1.5347   -0.0917 H.spc      1 <1>        0.000
     13 H          -0.9376   -2.0990    0.0254 H.spc      1 <1>        0.000
     14 H           1.4824   -2.6409   -0.2298 H.spc      1 <1>        0.000
     15 H          -2.5017   -0.8754   -1.1331 H.spc      1 <1>        0.000
     16 H          -1.0032    2.4605    0.2933 H.spc      1 <1>        0.000
@<TRIPOS>BOND
     1    7    8 2  
     2    7    9 1  
     3    1    2 ar 
     4    2    3 ar 
     5    1    6 ar 
     6    3    4 ar 
     7    3   10 1  
     8    4    5 ar 
     9    4    7 1  
    10    5    6 ar 
    11    1   11 1  
    12    2   12 1  
    13    5   13 1  
    14    6   14 1  
    15    9   15 1  
    16   10   16 1  
# Name:          frag5-594-37/41815 -- energy: -0.120658
# Creation time: Sat Jun  5 12:52:57 2010


@<TRIPOS>MOLECULE
frag5-594-37/41815 -- energy: -0.120658
   16    16     1     1     1
SMALL
USER_CHARGES


@<TRIPOS>ATOM
      1 C15         2.1234   -0.5787   -0.0933 C.ar       1 <1>        0.000
      2 C16         1.6661    0.7180   -0.3035 C.ar       1 <1>        0.000
      3 C17         0.2770    1.0800   -0.1885 C.ar       1 <1>        0.000
      4 C18        -0.6396    0.0406    0.1459 C.ar       1 <1>        0.000
      5 C19        -0.1655   -1.2628    0.3585 C.ar       1 <1>        0.000
      6 C20         1.2071   -1.5724    0.2385 C.ar       1 <1>        0.000
      7 C21        -2.0944    0.3529    0.2689 C.2        1 <1>        0.000
      8 O2         -2.6722    0.9468   -0.6196 O.2        1 <1>        0.000
      9 O3         -2.7339   -0.0463    1.3770 O.3        1 <1>        0.000
     10 O4         -0.1136    2.3554   -0.3927 O.3        1 <1>        0.000
     11 H           3.1837   -0.8132   -0.1870 H.spc      1 <1>        0.000
     12 H           2.3882    1.4912   -0.5658 H.spc      1 <1>        0.000
     13 H          -0.8703   -2.0516    0.6214 H.spc      1 <1>        0.000
     14 H           1.5502   -2.5933    0.4063 H.spc      1 <1>        0.000
     15 H          -2.1153   -0.4951    1.9580 H.spc      1 <1>        0.000
     16 H          -1.0644    2.4201   -0.2771 H.spc      1 <1>        0.000
@<TRIPOS>BOND
     1    7    8 2  
     2    7    9 1  
     3    1    2 ar 
     4    2    3 ar 
     5    1    6 ar 
     6    3    4 ar 
     7    3   10 1  
     8    4    5 ar 
     9    4    7 1  
    10    5    6 ar 
    11    1   11 1  
    12    2   12 1  
    13    5   13 1  
    14    6   14 1  
    15    9   15 1  
    16   10   16 1  
# Name:          frag5-594-37/41815 -- energy: 0.375384
# Creation time: Sat Jun  5 12:52:57 2010


@<TRIPOS>MOLECULE
frag5-594-37/41815 -- energy: 0.375384
   16    16     1     1     1
SMALL
USER_CHARGES


@<TRIPOS>ATOM
      1 C15         2.1165   -0.5827   -0.1752 C.ar       1 <1>        0.000
      2 C16         1.6991    0.7403   -0.0643 C.ar       1 <1>        0.000
      3 C17         0.3094    1.0902    0.0857 C.ar       1 <1>        0.000
      4 C18        -0.6505    0.0403    0.1121 C.ar       1 <1>        0.000
      5 C19        -0.2075   -1.2900    0.0005 C.ar       1 <1>        0.000
      6 C20         1.1669   -1.6011   -0.1435 C.ar       1 <1>        0.000
      7 C21        -2.0862    0.3502    0.2522 C.2        1 <1>        0.000
      8 O2         -2.4739    1.1609    1.0722 O.2        1 <1>        0.000
      9 O3         -2.9699   -0.2732   -0.5502 O.3        1 <1>        0.000
     10 O4         -0.0496    2.3984    0.2017 O.3        1 <1>        0.000
     11 H           3.1748   -0.8193   -0.2856 H.spc      1 <1>        0.000
     12 H           2.4449    1.5347   -0.0917 H.spc      1 <1>        0.000
     13 H          -0.9376   -2.0990    0.0254 H.spc      1 <1>        0.000
     14 H           1.4824   -2.6409   -0.2298 H.spc      1 <1>        0.000
     15 H          -2.5017   -0.8754   -1.1331 H.spc      1 <1>        0.000
     16 H          -1.0032    2.4605    0.2933 H.spc      1 <1>        0.000
@<TRIPOS>BOND
     1    7    8 2  
     2    7    9 1  
     3    1    2 ar 
     4    2    3 ar 
     5    1    6 ar 
     6    3    4 ar 
     7    3   10 1  
     8    4    5 ar 
     9    4    7 1  
    10    5    6 ar 
    11    1   11 1  
    12    2   12 1  
    13    5   13 1  
    14    6   14 1  
    15    9   15 1  
    16   10   16 1  
