#      Rotatable Fragment
#      Build by yxyuan
#
# Name:          frag5-686-22/41815
# Creation time: Sat Jun  5 12:53:04 2010


@<TRIPOS>MOLECULE
frag5-686-22/41815
   12    12     1     1     1
SMALL
USER_CHARGES


@<TRIPOS>ATOM
      1 O1         -0.9262   -0.9939   -0.1469 O.3        1 <1>        0.000
      2 C1         -1.1109    0.2703   -0.0421 C.ar       1 <1>        0.000
      3 C2         -0.0357    1.2073    0.0284 C.ar       1 <1>        0.000
      4 C3          1.1994    0.7966    0.0721 C.ar       1 <1>        0.000
      5 C4          1.3218   -0.6225   -0.0265 C.ar       1 <1>        0.000
      6 C5          0.3025   -1.4872   -0.1538 C.ar       1 <1>        0.000
      7 O3          2.1514    1.4920    0.1652 O.2        1 <1>        0.000
      8 O4         -2.3717    0.6603    0.0590 O.3        1 <1>        0.000
      9 H          -0.2506    2.2758    0.0458 H.spc      1 <1>        0.000
     10 H           2.3284   -1.0394    0.0042 H.spc      1 <1>        0.000
     11 H           0.4803   -2.5574   -0.2591 H.spc      1 <1>        0.000
     12 H          -2.4047    1.6169    0.1322 H.spc      1 <1>        0.000
@<TRIPOS>BOND
     1    1    2 ar 
     2    1    6 ar 
     3    2    3 ar 
     4    2    8 1  
     5    3    4 ar 
     6    4    5 ar 
     7    4    7 2  
     8    5    6 ar 
     9    3    9 1  
    10    5   10 1  
    11    6   11 1  
    12    8   12 1  
# Name:          frag5-686-22/41815 -- energy: 0.606414
# Creation time: Sat Jun  5 12:53:04 2010


@<TRIPOS>MOLECULE
frag5-686-22/41815 -- energy: 0.606414
   12    12     1     1     1
SMALL
USER_CHARGES


@<TRIPOS>ATOM
      1 O1         -0.9262   -0.9939   -0.1469 O.3        1 <1>        0.000
      2 C1         -1.1109    0.2703   -0.0421 C.ar       1 <1>        0.000
      3 C2         -0.0357    1.2073    0.0284 C.ar       1 <1>        0.000
      4 C3          1.1994    0.7966    0.0721 C.ar       1 <1>        0.000
      5 C4          1.3218   -0.6225   -0.0265 C.ar       1 <1>        0.000
      6 C5          0.3025   -1.4872   -0.1538 C.ar       1 <1>        0.000
      7 O3          2.1514    1.4920    0.1652 O.2        1 <1>        0.000
      8 O4         -2.3717    0.6603    0.0590 O.3        1 <1>        0.000
      9 H          -0.2506    2.2758    0.0458 H.spc      1 <1>        0.000
     10 H           2.3284   -1.0394    0.0042 H.spc      1 <1>        0.000
     11 H           0.4803   -2.5574   -0.2591 H.spc      1 <1>        0.000
     12 H          -2.4047    1.6169    0.1322 H.spc      1 <1>        0.000
@<TRIPOS>BOND
     1    1    2 ar 
     2    1    6 ar 
     3    2    3 ar 
     4    2    8 1  
     5    3    4 ar 
     6    4    5 ar 
     7    4    7 2  
     8    5    6 ar 
     9    3    9 1  
    10    5   10 1  
    11    6   11 1  
    12    8   12 1  
