#      Rotatable Fragment
#      Build by yxyuan
#
# Name:          frag4-431-133/150395
# Creation time: Sat Jun  5 12:53:35 2010


@<TRIPOS>MOLECULE
frag4-431-133/150395
   26    28     1     1     1
SMALL
USER_CHARGES


@<TRIPOS>ATOM
      1 C1          1.0697    0.3790    0.2159 C.2        1 <1>        0.000
      2 N1          0.0582   -0.4065    0.1963 N.2        1 <1>        0.000
      3 C2          0.7292    1.8096    0.0239 C.2        1 <1>        0.000
      4 C3          2.4069   -0.1563    0.5334 C.3        1 <1>        0.000
      5 C4         -1.0740    0.3307    0.0591 C.2        1 <1>        0.000
      6 C6         -0.6289    1.7424   -0.0317 C.2        1 <1>        0.000
      7 C7          1.7818    2.8496   -0.0190 C.3        1 <1>        0.000
      8 C8          3.2165    0.9548    1.1450 C.3        1 <1>        0.000
      9 C10        -2.3636    0.0040    0.0252 C.2        1 <1>        0.000
     10 C12        -1.6103    2.8069   -0.1326 C.2        1 <1>        0.000
     11 C13         3.1330    2.3367    0.5043 C.3        1 <1>        0.000
     12 C15        -3.3574    1.0846   -0.1027 C.3        1 <1>        0.000
     13 C18        -2.9244    2.4962   -0.1573 C.2        1 <1>        0.000
     14 H           2.8916   -0.5225   -0.3716 H.spc      1 <1>        0.000
     15 H           2.3239   -0.9905    1.2300 H.spc      1 <1>        0.000
     16 H           1.4654    3.6764    0.6169 H.spc      1 <1>        0.000
     17 H           1.9150    3.1523   -1.0576 H.spc      1 <1>        0.000
     18 H           2.8222    1.0790    2.1536 H.spc      1 <1>        0.000
     19 H           4.2569    0.6481    1.0373 H.spc      1 <1>        0.000
     20 H          -2.6773   -1.0378    0.0905 H.spc      1 <1>        0.000
     21 H          -1.2898    3.8472   -0.1879 H.spc      1 <1>        0.000
     22 H           3.4001    3.0282    1.3035 H.spc      1 <1>        0.000
     23 H           3.7645    2.2689   -0.3816 H.spc      1 <1>        0.000
     24 H          -3.9459    1.0188    0.8124 H.spc      1 <1>        0.000
     25 H          -3.8234    0.9083   -1.0722 H.spc      1 <1>        0.000
     26 H          -3.6687    3.2902   -0.2178 H.spc      1 <1>        0.000
@<TRIPOS>BOND
     1    3    6 2  
     2    3    7 1  
     3    1    3 1  
     4    5    9 2  
     5   10   13 2  
     6    7   11 1  
     7    6   10 1  
     8    1    2 2  
     9    9   12 1  
    10    8   11 1  
    11    5    6 1  
    12    1    4 1  
    13   12   13 1  
    14    2    5 1  
    15    4    8 1  
    16    4   14 1  
    17    4   15 1  
    18    7   16 1  
    19    7   17 1  
    20    8   18 1  
    21    8   19 1  
    22    9   20 1  
    23   10   21 1  
    24   11   22 1  
    25   11   23 1  
    26   12   24 1  
    27   12   25 1  
    28   13   26 1  
# Name:          frag4-431-133/150395 -- energy: -2.583240
# Creation time: Sat Jun  5 12:53:35 2010


@<TRIPOS>MOLECULE
frag4-431-133/150395 -- energy: -2.583240
   26    28     1     1     1
SMALL
USER_CHARGES


@<TRIPOS>ATOM
      1 C1          1.0697    0.3790    0.2159 C.2        1 <1>        0.000
      2 N1          0.0582   -0.4065    0.1963 N.2        1 <1>        0.000
      3 C2          0.7292    1.8096    0.0239 C.2        1 <1>        0.000
      4 C3          2.4069   -0.1563    0.5334 C.3        1 <1>        0.000
      5 C4         -1.0740    0.3307    0.0591 C.2        1 <1>        0.000
      6 C6         -0.6289    1.7424   -0.0317 C.2        1 <1>        0.000
      7 C7          1.7818    2.8496   -0.0190 C.3        1 <1>        0.000
      8 C8          3.2165    0.9548    1.1450 C.3        1 <1>        0.000
      9 C10        -2.3636    0.0040    0.0252 C.2        1 <1>        0.000
     10 C12        -1.6103    2.8069   -0.1326 C.2        1 <1>        0.000
     11 C13         3.1330    2.3367    0.5043 C.3        1 <1>        0.000
     12 C15        -3.3574    1.0846   -0.1027 C.3        1 <1>        0.000
     13 C18        -2.9244    2.4962   -0.1573 C.2        1 <1>        0.000
     14 H           2.8916   -0.5225   -0.3716 H.spc      1 <1>        0.000
     15 H           2.3239   -0.9905    1.2300 H.spc      1 <1>        0.000
     16 H           1.4654    3.6764    0.6169 H.spc      1 <1>        0.000
     17 H           1.9150    3.1523   -1.0576 H.spc      1 <1>        0.000
     18 H           2.8222    1.0790    2.1536 H.spc      1 <1>        0.000
     19 H           4.2569    0.6481    1.0373 H.spc      1 <1>        0.000
     20 H          -2.6773   -1.0378    0.0905 H.spc      1 <1>        0.000
     21 H          -1.2898    3.8472   -0.1879 H.spc      1 <1>        0.000
     22 H           3.4001    3.0282    1.3035 H.spc      1 <1>        0.000
     23 H           3.7645    2.2689   -0.3816 H.spc      1 <1>        0.000
     24 H          -3.9459    1.0188    0.8124 H.spc      1 <1>        0.000
     25 H          -3.8234    0.9083   -1.0722 H.spc      1 <1>        0.000
     26 H          -3.6687    3.2902   -0.2178 H.spc      1 <1>        0.000
@<TRIPOS>BOND
     1    3    6 2  
     2    3    7 1  
     3    1    3 1  
     4    5    9 2  
     5   10   13 2  
     6    7   11 1  
     7    6   10 1  
     8    1    2 2  
     9    9   12 1  
    10    8   11 1  
    11    5    6 1  
    12    1    4 1  
    13   12   13 1  
    14    2    5 1  
    15    4    8 1  
    16    4   14 1  
    17    4   15 1  
    18    7   16 1  
    19    7   17 1  
    20    8   18 1  
    21    8   19 1  
    22    9   20 1  
    23   10   21 1  
    24   11   22 1  
    25   11   23 1  
    26   12   24 1  
    27   12   25 1  
    28   13   26 1  
