#      Rotatable Fragment
#      Build by yxyuan
#
# Name:          frag3-236-3/31924
# Creation time: Sat Jun  5 12:52:35 2010


@<TRIPOS>MOLECULE
frag3-236-3/31924
    6     5     1     1     1
SMALL
USER_CHARGES


@<TRIPOS>ATOM
      1 O1          3.9337    1.2027   -1.8966 O.3        1 <1>        0.000
      2 S1          2.9007    2.1916   -1.2049 S.o        1 <1>        0.000
      3 O2          2.7327    3.3687   -2.0567 O.2        1 <1>        0.000
      4 O3          1.6775    1.2719   -1.2444 O.3        1 <1>        0.000
      5 H           4.0506    0.4262   -1.3443 H.spc      1 <1>        0.000
      6 H           1.8292    0.5149   -0.6739 H.spc      1 <1>        0.000
@<TRIPOS>BOND
     1    1    2 1  
     2    2    3 2  
     3    2    4 1  
     4    1    5 1  
     5    4    6 1  
# Name:          frag3-236-3/31924 -- energy: -0.124672
# Creation time: Sat Jun  5 12:52:36 2010


@<TRIPOS>MOLECULE
frag3-236-3/31924 -- energy: -0.124672
    6     5     1     1     1
SMALL
USER_CHARGES


@<TRIPOS>ATOM
      1 O1          3.9337    1.2027   -1.8966 O.3        1 <1>        0.000
      2 S1          2.9007    2.1916   -1.2049 S.o        1 <1>        0.000
      3 O2          2.7327    3.3687   -2.0567 O.2        1 <1>        0.000
      4 O3          1.6775    1.2719   -1.2444 O.3        1 <1>        0.000
      5 H           4.0506    0.4262   -1.3443 H.spc      1 <1>        0.000
      6 H           1.8292    0.5149   -0.6739 H.spc      1 <1>        0.000
@<TRIPOS>BOND
     1    1    2 1  
     2    2    3 2  
     3    2    4 1  
     4    1    5 1  
     5    4    6 1  
