#      Rotatable Fragment
#      Build by yxyuan
#
# Name:          frag4-427-137/150395
# Creation time: Sat Jun  5 12:53:35 2010


@<TRIPOS>MOLECULE
frag4-427-137/150395
   14    14     1     1     1
SMALL
USER_CHARGES


@<TRIPOS>ATOM
      1 C16         0.4850    0.0525   -0.4980 C.3        1 <1>        0.000
      2 C19         1.8543    0.5132   -0.0513 C.3        1 <1>        0.000
      3 O1         -0.5288    0.7647    0.1055 O.3        1 <1>        0.000
      4 C20         1.9580    2.0193   -0.2596 C.3        1 <1>        0.000
      5 C21        -0.4365    2.1621    0.1673 C.3        1 <1>        0.000
      6 O2          0.7363    2.6497   -0.3508 O.3        1 <1>        0.000
      7 H           0.3736   -0.9957   -0.2206 H.spc      1 <1>        0.000
      8 H           0.4113    0.2053   -1.5747 H.spc      1 <1>        0.000
      9 H           2.6230    0.0059   -0.6343 H.spc      1 <1>        0.000
     10 H           1.9984    0.2753    1.0026 H.spc      1 <1>        0.000
     11 H           2.4812    2.1834   -1.2016 H.spc      1 <1>        0.000
     12 H           2.4755    2.4337    0.6056 H.spc      1 <1>        0.000
     13 H          -0.4783    2.4497    1.2178 H.spc      1 <1>        0.000
     14 H          -1.2549    2.5736   -0.4235 H.spc      1 <1>        0.000
@<TRIPOS>BOND
     1    1    2 1  
     2    1    3 1  
     3    2    4 1  
     4    3    5 1  
     5    4    6 1  
     6    5    6 1  
     7    1    7 1  
     8    1    8 1  
     9    2    9 1  
    10    2   10 1  
    11    4   11 1  
    12    4   12 1  
    13    5   13 1  
    14    5   14 1  
# Name:          frag4-427-137/150395 -- energy: -0.490744
# Creation time: Sat Jun  5 12:53:35 2010


@<TRIPOS>MOLECULE
frag4-427-137/150395 -- energy: -0.490744
   14    14     1     1     1
SMALL
USER_CHARGES


@<TRIPOS>ATOM
      1 C16         0.4850    0.0525   -0.4980 C.3        1 <1>        0.000
      2 C19         1.8543    0.5132   -0.0513 C.3        1 <1>        0.000
      3 O1         -0.5288    0.7647    0.1055 O.3        1 <1>        0.000
      4 C20         1.9580    2.0193   -0.2596 C.3        1 <1>        0.000
      5 C21        -0.4365    2.1621    0.1673 C.3        1 <1>        0.000
      6 O2          0.7363    2.6497   -0.3508 O.3        1 <1>        0.000
      7 H           0.3736   -0.9957   -0.2206 H.spc      1 <1>        0.000
      8 H           0.4113    0.2053   -1.5747 H.spc      1 <1>        0.000
      9 H           2.6230    0.0059   -0.6343 H.spc      1 <1>        0.000
     10 H           1.9984    0.2753    1.0026 H.spc      1 <1>        0.000
     11 H           2.4812    2.1834   -1.2016 H.spc      1 <1>        0.000
     12 H           2.4755    2.4337    0.6056 H.spc      1 <1>        0.000
     13 H          -0.4783    2.4497    1.2178 H.spc      1 <1>        0.000
     14 H          -1.2549    2.5736   -0.4235 H.spc      1 <1>        0.000
@<TRIPOS>BOND
     1    1    2 1  
     2    1    3 1  
     3    2    4 1  
     4    3    5 1  
     5    4    6 1  
     6    5    6 1  
     7    1    7 1  
     8    1    8 1  
     9    2    9 1  
    10    2   10 1  
    11    4   11 1  
    12    4   12 1  
    13    5   13 1  
    14    5   14 1  
