#      Rotatable Fragment
#      Build by yxyuan
#
# Name:          frag4-422-50/48856
# Creation time: Sat Jun  5 12:52:09 2010


@<TRIPOS>MOLECULE
frag4-422-50/48856
    9     9     1     1     1
SMALL
USER_CHARGES


@<TRIPOS>ATOM
      1 N1         -0.2320    1.0855    0.2952 N.2        1 <1>        0.000
      2 N2         -1.1267    0.0402   -0.0064 N.2        1 <1>        0.000
      3 C1         -0.5620   -1.0597   -0.3034 C.2        1 <1>        0.000
      4 C2          0.8618   -0.7680   -0.2090 C.3        1 <1>        0.000
      5 C3          0.9972    0.6568    0.1944 C.2        1 <1>        0.000
      6 H          -1.0355   -2.0051   -0.5682 H.spc      1 <1>        0.000
      7 H           1.3521   -0.9424   -1.1667 H.spc      1 <1>        0.000
      8 H           1.3378   -1.4197    0.5237 H.spc      1 <1>        0.000
      9 H           1.9160    1.2173    0.3671 H.spc      1 <1>        0.000
@<TRIPOS>BOND
     1    1    2 1  
     2    1    5 2  
     3    2    3 2  
     4    3    4 1  
     5    4    5 1  
     6    3    6 1  
     7    4    7 1  
     8    4    8 1  
     9    5    9 1  
# Name:          frag4-422-50/48856 -- energy: -0.253290
# Creation time: Sat Jun  5 12:52:09 2010


@<TRIPOS>MOLECULE
frag4-422-50/48856 -- energy: -0.253290
    9     9     1     1     1
SMALL
USER_CHARGES


@<TRIPOS>ATOM
      1 N1         -0.2320    1.0855    0.2952 N.2        1 <1>        0.000
      2 N2         -1.1267    0.0402   -0.0064 N.2        1 <1>        0.000
      3 C1         -0.5620   -1.0597   -0.3034 C.2        1 <1>        0.000
      4 C2          0.8618   -0.7680   -0.2090 C.3        1 <1>        0.000
      5 C3          0.9972    0.6568    0.1944 C.2        1 <1>        0.000
      6 H          -1.0355   -2.0051   -0.5682 H.spc      1 <1>        0.000
      7 H           1.3521   -0.9424   -1.1667 H.spc      1 <1>        0.000
      8 H           1.3378   -1.4197    0.5237 H.spc      1 <1>        0.000
      9 H           1.9160    1.2173    0.3671 H.spc      1 <1>        0.000
@<TRIPOS>BOND
     1    1    2 1  
     2    1    5 2  
     3    2    3 2  
     4    3    4 1  
     5    4    5 1  
     6    3    6 1  
     7    4    7 1  
     8    4    8 1  
     9    5    9 1  
