#      Rotatable Fragment
#      Build by yxyuan
#
# Name:          frag5-561-154/138278
# Creation time: Sat Jun  5 12:53:44 2010


@<TRIPOS>MOLECULE
frag5-561-154/138278
   15    15     1     1     1
SMALL
USER_CHARGES


@<TRIPOS>ATOM
      1 S2          0.9590    0.3332    0.0651 S.o2       1 <1>        0.000
      2 C19         2.4447    1.1604    0.1011 C.ar       1 <1>        0.000
      3 O5          0.7106   -0.3282   -1.1795 O.2        1 <1>        0.000
      4 O6         -0.0392    0.9636    0.8771 O.2        1 <1>        0.000
      5 C20         3.7217    0.5551    0.0913 C.ar       1 <1>        0.000
      6 C21         2.4371    2.5718    0.1127 C.ar       1 <1>        0.000
      7 C22         4.8965    1.2923    0.0652 C.ar       1 <1>        0.000
      8 C23         3.5954    3.3275    0.0845 C.ar       1 <1>        0.000
      9 C24         4.8318    2.6848    0.0595 C.ar       1 <1>        0.000
     10 H           0.9509   -0.8037    0.7553 H.spc      1 <1>        0.000
     11 H           3.7860   -0.5329    0.1048 H.spc      1 <1>        0.000
     12 H           1.4778    3.0882    0.1453 H.spc      1 <1>        0.000
     13 H           5.8621    0.7870    0.0493 H.spc      1 <1>        0.000
     14 H           3.5416    4.4162    0.0819 H.spc      1 <1>        0.000
     15 H           5.7498    3.2720    0.0354 H.spc      1 <1>        0.000
@<TRIPOS>BOND
     1    1    2 1  
     2    1    3 2  
     3    1    4 2  
     4    2    5 ar 
     5    2    6 ar 
     6    5    7 ar 
     7    6    8 ar 
     8    7    9 ar 
     9    8    9 ar 
    10    1   10 1  
    11    5   11 1  
    12    6   12 1  
    13    7   13 1  
    14    8   14 1  
    15    9   15 1  
# Name:          frag5-561-154/138278
# Creation time: Sat Jun  5 12:53:44 2010


@<TRIPOS>MOLECULE
frag5-561-154/138278
   15    15     1     1     1
SMALL
USER_CHARGES


@<TRIPOS>ATOM
      1 S2          0.9752    0.3110   -0.0539 S.o2       1 <1>        0.000
      2 C19         2.4621    1.1340    0.0146 C.ar       1 <1>        0.000
      3 O5          0.2779    0.5037   -1.2914 O.2        1 <1>        0.000
      4 O6          0.3550    0.1957    1.2304 O.2        1 <1>        0.000
      5 C20         2.4984    2.4716   -0.4312 C.ar       1 <1>        0.000
      6 C21         3.6851    0.6167    0.5008 C.ar       1 <1>        0.000
      7 C22         3.6413    3.2488   -0.3803 C.ar       1 <1>        0.000
      8 C23         4.8430    1.3786    0.5650 C.ar       1 <1>        0.000
      9 C24         4.8196    2.7004    0.1230 C.ar       1 <1>        0.000
     10 H           1.0867   -1.0018   -0.2359 H.spc      1 <1>        0.000
     11 H           1.5860    2.9120   -0.8333 H.spc      1 <1>        0.000
     12 H           3.7195   -0.4193    0.8377 H.spc      1 <1>        0.000
     13 H           3.6207    4.2808   -0.7306 H.spc      1 <1>        0.000
     14 H           5.7635    0.9470    0.9579 H.spc      1 <1>        0.000
     15 H           5.7245    3.3062    0.1711 H.spc      1 <1>        0.000
@<TRIPOS>BOND
     1    1    2 1  
     2    1    3 2  
     3    1    4 2  
     4    2    5 ar 
     5    2    6 ar 
     6    5    7 ar 
     7    6    8 ar 
     8    7    9 ar 
     9    8    9 ar 
    10    1   10 1  
    11    5   11 1  
    12    6   12 1  
    13    7   13 1  
    14    8   14 1  
    15    9   15 1  
# Name:          frag5-561-154/138278 -- energy: -0.566278
# Creation time: Sat Jun  5 12:53:44 2010


@<TRIPOS>MOLECULE
frag5-561-154/138278 -- energy: -0.566278
   15    15     1     1     1
SMALL
USER_CHARGES


@<TRIPOS>ATOM
      1 S2          0.9590    0.3332    0.0651 S.o2       1 <1>        0.000
      2 C19         2.4447    1.1604    0.1011 C.ar       1 <1>        0.000
      3 O5          0.7106   -0.3282   -1.1795 O.2        1 <1>        0.000
      4 O6         -0.0392    0.9636    0.8771 O.2        1 <1>        0.000
      5 C20         3.7217    0.5551    0.0913 C.ar       1 <1>        0.000
      6 C21         2.4371    2.5718    0.1127 C.ar       1 <1>        0.000
      7 C22         4.8965    1.2923    0.0652 C.ar       1 <1>        0.000
      8 C23         3.5954    3.3275    0.0845 C.ar       1 <1>        0.000
      9 C24         4.8318    2.6848    0.0595 C.ar       1 <1>        0.000
     10 H           0.9509   -0.8037    0.7553 H.spc      1 <1>        0.000
     11 H           3.7860   -0.5329    0.1048 H.spc      1 <1>        0.000
     12 H           1.4778    3.0882    0.1453 H.spc      1 <1>        0.000
     13 H           5.8621    0.7870    0.0493 H.spc      1 <1>        0.000
     14 H           3.5416    4.4162    0.0819 H.spc      1 <1>        0.000
     15 H           5.7498    3.2720    0.0354 H.spc      1 <1>        0.000
@<TRIPOS>BOND
     1    1    2 1  
     2    1    3 2  
     3    1    4 2  
     4    2    5 ar 
     5    2    6 ar 
     6    5    7 ar 
     7    6    8 ar 
     8    7    9 ar 
     9    8    9 ar 
    10    1   10 1  
    11    5   11 1  
    12    6   12 1  
    13    7   13 1  
    14    8   14 1  
    15    9   15 1  
# Name:          frag5-561-154/138278 -- energy: -0.568155
# Creation time: Sat Jun  5 12:53:44 2010


@<TRIPOS>MOLECULE
frag5-561-154/138278 -- energy: -0.568155
   15    15     1     1     1
SMALL
USER_CHARGES


@<TRIPOS>ATOM
      1 S2          0.9752    0.3110   -0.0539 S.o2       1 <1>        0.000
      2 C19         2.4621    1.1340    0.0146 C.ar       1 <1>        0.000
      3 O5          0.2779    0.5037   -1.2914 O.2        1 <1>        0.000
      4 O6          0.3550    0.1957    1.2304 O.2        1 <1>        0.000
      5 C20         2.4984    2.4716   -0.4312 C.ar       1 <1>        0.000
      6 C21         3.6851    0.6167    0.5008 C.ar       1 <1>        0.000
      7 C22         3.6413    3.2488   -0.3803 C.ar       1 <1>        0.000
      8 C23         4.8430    1.3786    0.5650 C.ar       1 <1>        0.000
      9 C24         4.8196    2.7004    0.1230 C.ar       1 <1>        0.000
     10 H           1.0867   -1.0018   -0.2359 H.spc      1 <1>        0.000
     11 H           1.5860    2.9120   -0.8333 H.spc      1 <1>        0.000
     12 H           3.7195   -0.4193    0.8377 H.spc      1 <1>        0.000
     13 H           3.6207    4.2808   -0.7306 H.spc      1 <1>        0.000
     14 H           5.7635    0.9470    0.9579 H.spc      1 <1>        0.000
     15 H           5.7245    3.3062    0.1711 H.spc      1 <1>        0.000
@<TRIPOS>BOND
     1    1    2 1  
     2    1    3 2  
     3    1    4 2  
     4    2    5 ar 
     5    2    6 ar 
     6    5    7 ar 
     7    6    8 ar 
     8    7    9 ar 
     9    8    9 ar 
    10    1   10 1  
    11    5   11 1  
    12    6   12 1  
    13    7   13 1  
    14    8   14 1  
    15    9   15 1  
