#      Rotatable Fragment
#      Build by yxyuan
#
# Name:          frag4-310-1053/150395
# Creation time: Sat Jun  5 12:53:30 2010


@<TRIPOS>MOLECULE
frag4-310-1053/150395
   15    16     1     1     1
SMALL
USER_CHARGES


@<TRIPOS>ATOM
      1 C24         0.2879   -1.2369    0.3353 C.ar       1 <1>        0.000
      2 C25         0.2822   -2.6187    0.1414 C.ar       1 <1>        0.000
      3 C26         1.4929   -0.5138    0.3341 C.ar       1 <1>        0.000
      4 C27         1.5023   -3.2530   -0.0506 C.ar       1 <1>        0.000
      5 C28         2.7147   -1.1591    0.1376 C.ar       1 <1>        0.000
      6 C29         2.7000   -2.5345   -0.0526 C.ar       1 <1>        0.000
      7 O5          1.7045   -4.5898   -0.2648 O.3        1 <1>        0.000
      8 O6          3.7836   -3.3428   -0.2688 O.3        1 <1>        0.000
      9 C30         3.0860   -4.5381   -0.7178 C.3        1 <1>        0.000
     10 H          -0.6546   -0.7115    0.4897 H.spc      1 <1>        0.000
     11 H          -0.6507   -3.1824    0.1407 H.spc      1 <1>        0.000
     12 H           1.4730    0.5650    0.4886 H.spc      1 <1>        0.000
     13 H           3.6510   -0.6010    0.1336 H.spc      1 <1>        0.000
     14 H           3.6052   -5.4024   -0.3036 H.spc      1 <1>        0.000
     15 H           3.0793   -4.5305   -1.8078 H.spc      1 <1>        0.000
@<TRIPOS>BOND
     1    8    9 1  
     2    1    2 ar 
     3    1    3 ar 
     4    2    4 ar 
     5    3    5 ar 
     6    4    6 ar 
     7    4    7 1  
     8    5    6 ar 
     9    6    8 1  
    10    7    9 1  
    11    1   10 1  
    12    2   11 1  
    13    3   12 1  
    14    5   13 1  
    15    9   14 1  
    16    9   15 1  
# Name:          frag4-310-1053/150395 -- energy: -0.396388
# Creation time: Sat Jun  5 12:53:30 2010


@<TRIPOS>MOLECULE
frag4-310-1053/150395 -- energy: -0.396388
   15    16     1     1     1
SMALL
USER_CHARGES


@<TRIPOS>ATOM
      1 C24         0.2879   -1.2369    0.3353 C.ar       1 <1>        0.000
      2 C25         0.2822   -2.6187    0.1414 C.ar       1 <1>        0.000
      3 C26         1.4929   -0.5138    0.3341 C.ar       1 <1>        0.000
      4 C27         1.5023   -3.2530   -0.0506 C.ar       1 <1>        0.000
      5 C28         2.7147   -1.1591    0.1376 C.ar       1 <1>        0.000
      6 C29         2.7000   -2.5345   -0.0526 C.ar       1 <1>        0.000
      7 O5          1.7045   -4.5898   -0.2648 O.3        1 <1>        0.000
      8 O6          3.7836   -3.3428   -0.2688 O.3        1 <1>        0.000
      9 C30         3.0860   -4.5381   -0.7178 C.3        1 <1>        0.000
     10 H          -0.6546   -0.7115    0.4897 H.spc      1 <1>        0.000
     11 H          -0.6507   -3.1824    0.1407 H.spc      1 <1>        0.000
     12 H           1.4730    0.5650    0.4886 H.spc      1 <1>        0.000
     13 H           3.6510   -0.6010    0.1336 H.spc      1 <1>        0.000
     14 H           3.6052   -5.4024   -0.3036 H.spc      1 <1>        0.000
     15 H           3.0793   -4.5305   -1.8078 H.spc      1 <1>        0.000
@<TRIPOS>BOND
     1    8    9 1  
     2    1    2 ar 
     3    1    3 ar 
     4    2    4 ar 
     5    3    5 ar 
     6    4    6 ar 
     7    4    7 1  
     8    5    6 ar 
     9    6    8 1  
    10    7    9 1  
    11    1   10 1  
    12    2   11 1  
    13    3   12 1  
    14    5   13 1  
    15    9   14 1  
    16    9   15 1  
