#      Rotatable Fragment
#      Build by yxyuan
#
# Name:          frag4-323-256/48856
# Creation time: Sat Jun  5 12:52:47 2010


@<TRIPOS>MOLECULE
frag4-323-256/48856
   10    10     1     1     1
SMALL
USER_CHARGES


@<TRIPOS>ATOM
      1 N2          1.0712    0.4394   -0.0937 N.2        1 <1>        0.000
      2 C10         0.7239   -0.9028    0.0317 C.2        1 <1>        0.000
      3 C11        -0.6055   -1.0487    0.1087 C.2        1 <1>        0.000
      4 C12        -1.2040    0.2974    0.0246 C.3        1 <1>        0.000
      5 C13        -0.0011    1.1758   -0.0935 C.2        1 <1>        0.000
      6 H           1.4384   -1.7254    0.0631 H.spc      1 <1>        0.000
      7 H          -1.1460   -1.9894    0.2141 H.spc      1 <1>        0.000
      8 H          -1.8303    0.5420    0.8826 H.spc      1 <1>        0.000
      9 H          -1.8974    0.4064   -0.8093 H.spc      1 <1>        0.000
     10 H          -0.0192    2.2631   -0.1678 H.spc      1 <1>        0.000
@<TRIPOS>BOND
     1    1    2 1  
     2    1    5 2  
     3    2    3 2  
     4    3    4 1  
     5    4    5 1  
     6    2    6 1  
     7    3    7 1  
     8    4    8 1  
     9    4    9 1  
    10    5   10 1  
# Name:          frag4-323-256/48856 -- energy: -0.336614
# Creation time: Sat Jun  5 12:52:47 2010


@<TRIPOS>MOLECULE
frag4-323-256/48856 -- energy: -0.336614
   10    10     1     1     1
SMALL
USER_CHARGES


@<TRIPOS>ATOM
      1 N2          1.0712    0.4394   -0.0937 N.2        1 <1>        0.000
      2 C10         0.7239   -0.9028    0.0317 C.2        1 <1>        0.000
      3 C11        -0.6055   -1.0487    0.1087 C.2        1 <1>        0.000
      4 C12        -1.2040    0.2974    0.0246 C.3        1 <1>        0.000
      5 C13        -0.0011    1.1758   -0.0935 C.2        1 <1>        0.000
      6 H           1.4384   -1.7254    0.0631 H.spc      1 <1>        0.000
      7 H          -1.1460   -1.9894    0.2141 H.spc      1 <1>        0.000
      8 H          -1.8303    0.5420    0.8826 H.spc      1 <1>        0.000
      9 H          -1.8974    0.4064   -0.8093 H.spc      1 <1>        0.000
     10 H          -0.0192    2.2631   -0.1678 H.spc      1 <1>        0.000
@<TRIPOS>BOND
     1    1    2 1  
     2    1    5 2  
     3    2    3 2  
     4    3    4 1  
     5    4    5 1  
     6    2    6 1  
     7    3    7 1  
     8    4    8 1  
     9    4    9 1  
    10    5   10 1  
