#      Rotatable Fragment
#      Build by yxyuan
#
# Name:          frag5-657-25/41815
# Creation time: Sat Jun  5 12:53:02 2010


@<TRIPOS>MOLECULE
frag5-657-25/41815
   37    40     1     1     1
SMALL
USER_CHARGES


@<TRIPOS>ATOM
      1 C6          3.7023   -0.4565    0.9893 C.3        1 <1>        0.000
      2 C7          3.4135   -1.2576   -0.2903 C.3        1 <1>        0.000
      3 C8          4.4915   -0.9647   -1.3446 C.3        1 <1>        0.000
      4 C9          5.9567   -1.0734   -0.8863 C.3        1 <1>        0.000
      5 C10         6.0654    0.0393    0.1331 C.ar       1 <1>        0.000
      6 C11         5.0090    0.3369    1.0219 C.ar       1 <1>        0.000
      7 C12         5.1391    1.3720    1.9707 C.ar       1 <1>        0.000
      8 C21        10.1402    5.5609    3.1288 C.ar       1 <1>        0.000
      9 C13         6.3293    2.1256    2.0052 C.ar       1 <1>        0.000
     10 C14         7.3710    1.8469    1.1168 C.ar       1 <1>        0.000
     11 C15         7.2249    0.8128    0.1968 C.ar       1 <1>        0.000
     12 C16         8.6345    2.6606    1.1614 C.2        1 <1>        0.000
     13 C17         8.8302    3.7851    2.1536 C.ar       1 <1>        0.000
     14 C18         7.7979    4.0682    3.0467 C.ar       1 <1>        0.000
     15 C19         7.9182    5.1025    3.9979 C.ar       1 <1>        0.000
     16 C20         9.1175    5.8412    4.0147 C.ar       1 <1>        0.000
     17 C22        10.0315    4.5329    2.1775 C.ar       1 <1>        0.000
     18 O3         11.0785    4.3010    1.3238 O.3        1 <1>        0.000
     19 O4          6.8973    5.3715    4.8720 O.3        1 <1>        0.000
     20 C23         6.5248    3.2517    2.9962 C.2        1 <1>        0.000
     21 O5          5.6111    3.5046    3.7830 O.2        1 <1>        0.000
     22 O6          9.5366    2.4009    0.3625 O.2        1 <1>        0.000
     23 O7          4.0871    1.6024    2.8304 O.3        1 <1>        0.000
     24 H           2.9021    0.2791    1.0702 H.spc      1 <1>        0.000
     25 H           3.7758   -1.1896    1.7926 H.spc      1 <1>        0.000
     26 H           2.4386   -0.9688   -0.6830 H.spc      1 <1>        0.000
     27 H           3.4187   -2.3223   -0.0569 H.spc      1 <1>        0.000
     28 H           4.3638   -1.7188   -2.1212 H.spc      1 <1>        0.000
     29 H           4.3465    0.0742   -1.6407 H.spc      1 <1>        0.000
     30 H           6.2042   -2.0528   -0.4769 H.spc      1 <1>        0.000
     31 H           6.6686   -0.9726   -1.7055 H.spc      1 <1>        0.000
     32 H          11.0547    6.1526    3.1691 H.spc      1 <1>        0.000
     33 H           8.0406    0.6009   -0.4945 H.spc      1 <1>        0.000
     34 H           9.2408    6.6470    4.7383 H.spc      1 <1>        0.000
     35 H          10.8568    3.5740    0.7374 H.spc      1 <1>        0.000
     36 H           6.1694    4.7675    4.7078 H.spc      1 <1>        0.000
     37 H           3.3786    0.9831    2.6404 H.spc      1 <1>        0.000
@<TRIPOS>BOND
     1    9   20 1  
     2    1    6 1  
     3    7    9 ar 
     4    6    7 ar 
     5    1    2 1  
     6    4    5 1  
     7    5   11 ar 
     8    3    4 1  
     9    2    3 1  
    10    9   10 ar 
    11    5    6 ar 
    12    7   23 1  
    13   20   21 2  
    14   17   18 1  
    15    8   17 ar 
    16   16    8 ar 
    17   15   19 1  
    18   15   16 ar 
    19   14   20 1  
    20   14   15 ar 
    21   13   17 ar 
    22   13   14 ar 
    23   12   22 2  
    24   12   13 1  
    25   10   12 1  
    26   10   11 ar 
    27    1   24 1  
    28    1   25 1  
    29    2   26 1  
    30    2   27 1  
    31    3   28 1  
    32    3   29 1  
    33    4   30 1  
    34    4   31 1  
    35    8   32 1  
    36   11   33 1  
    37   16   34 1  
    38   18   35 1  
    39   19   36 1  
    40   23   37 1  
