#      Rotatable Fragment
#      Build by yxyuan
#
# Name:          frag2-038-111/92655
# Creation time: Sat Jun  5 12:51:57 2010


@<TRIPOS>MOLECULE
frag2-038-111/92655
    4     3     1     1     1
SMALL
USER_CHARGES


@<TRIPOS>ATOM
      1 N1         -0.5103   -0.1471    0.3321 N.2        1 <1>        0.000
      2 N2          0.5095    0.0467   -0.3604 N.2        1 <1>        0.000
      3 H          -0.5809    0.2651    1.2624 H.spc      1 <1>        0.000
      4 H           1.2725    0.6173    0.0039 H.spc      1 <1>        0.000
@<TRIPOS>BOND
     1    1    2 2  
     2    1    3 1  
     3    2    4 1  
# Name:          frag2-038-111/92655 -- energy: -0.017558
# Creation time: Sat Jun  5 12:51:57 2010


@<TRIPOS>MOLECULE
frag2-038-111/92655 -- energy: -0.017558
    4     3     1     1     1
SMALL
USER_CHARGES


@<TRIPOS>ATOM
      1 N1         -0.5103   -0.1471    0.3321 N.2        1 <1>        0.000
      2 N2          0.5095    0.0467   -0.3604 N.2        1 <1>        0.000
      3 H          -0.5809    0.2651    1.2624 H.spc      1 <1>        0.000
      4 H           1.2725    0.6173    0.0039 H.spc      1 <1>        0.000
@<TRIPOS>BOND
     1    1    2 2  
     2    1    3 1  
     3    2    4 1  
