#      Rotatable Fragment
#      Build by yxyuan
#
# Name:          frag5-620-32/41815
# Creation time: Sat Jun  5 12:52:59 2010


@<TRIPOS>MOLECULE
frag5-620-32/41815
   17    17     1     1     1
SMALL
USER_CHARGES


@<TRIPOS>ATOM
      1 O1         -1.3536    2.4993   -0.3194 O.3        1 <1>        0.000
      2 C1         -0.1144    2.2452    0.1290 C.2        1 <1>        0.000
      3 C2          0.7068    1.4680   -0.5862 C.2        1 <1>        0.000
      4 C3          2.0590    1.1796   -0.1142 C.2        1 <1>        0.000
      5 C4          2.5487    1.7310    1.1474 C.2        1 <1>        0.000
      6 C5          1.7249    2.5232    1.8793 C.2        1 <1>        0.000
      7 C6          0.3230    2.8462    1.4353 C.3        1 <1>        0.000
      8 O2          2.1364    3.0501    3.0448 O.3        1 <1>        0.000
      9 C9          3.9181    1.4433    1.6119 C.2        1 <1>        0.000
     10 O3          4.6220    2.2628    2.1791 O.2        1 <1>        0.000
     11 O4          2.7907    0.4626   -0.7902 O.2        1 <1>        0.000
     12 H          -1.8087    3.0678    0.3061 H.spc      1 <1>        0.000
     13 H           0.3635    1.0457   -1.5306 H.spc      1 <1>        0.000
     14 H           0.2881    3.9272    1.2999 H.spc      1 <1>        0.000
     15 H          -0.3398    2.4349    2.1967 H.spc      1 <1>        0.000
     16 H           1.4300    3.5790    3.4227 H.spc      1 <1>        0.000
     17 H           4.3230    0.4461    1.4395 H.spc      1 <1>        0.000
@<TRIPOS>BOND
     1    5    9 1  
     2    6    7 1  
     3    6    8 1  
     4    9   10 2  
     5    1    2 1  
     6    2    3 2  
     7    2    7 1  
     8    3    4 1  
     9    4    5 1  
    10    4   11 2  
    11    5    6 2  
    12    1   12 1  
    13    3   13 1  
    14    7   14 1  
    15    7   15 1  
    16    8   16 1  
    17    9   17 1  
# Name:          frag5-620-32/41815
# Creation time: Sat Jun  5 12:52:59 2010


@<TRIPOS>MOLECULE
frag5-620-32/41815
   17    17     1     1     1
SMALL
USER_CHARGES


@<TRIPOS>ATOM
      1 O1         -1.3889    2.1838   -0.3049 O.3        1 <1>        0.000
      2 C1         -0.1302    2.1256    0.1563 C.2        1 <1>        0.000
      3 C2          0.7993    1.4356   -0.5175 C.2        1 <1>        0.000
      4 C3          2.1750    1.3632   -0.0260 C.2        1 <1>        0.000
      5 C4          2.5685    2.0510    1.2103 C.2        1 <1>        0.000
      6 C5          1.6361    2.7452    1.8945 C.2        1 <1>        0.000
      7 C6          0.2028    2.8466    1.4303 C.3        1 <1>        0.000
      8 O2          1.9658    3.3803    3.0303 O.3        1 <1>        0.000
      9 C9          3.9602    1.9591    1.6875 C.2        1 <1>        0.000
     10 O3          4.5695    0.8972    1.7218 O.2        1 <1>        0.000
     11 O4          3.0033    0.7237   -0.6657 O.2        1 <1>        0.000
     12 H          -1.9229    2.7137    0.2915 H.spc      1 <1>        0.000
     13 H           0.5280    0.9233   -1.4406 H.spc      1 <1>        0.000
     14 H           0.0170    3.9038    1.2408 H.spc      1 <1>        0.000
     15 H          -0.4042    2.3861    2.2098 H.spc      1 <1>        0.000
     16 H           1.1906    3.8211    3.3857 H.spc      1 <1>        0.000
     17 H           4.4638    2.8665    2.0209 H.spc      1 <1>        0.000
@<TRIPOS>BOND
     1    5    9 1  
     2    6    7 1  
     3    6    8 1  
     4    9   10 2  
     5    1    2 1  
     6    2    3 2  
     7    2    7 1  
     8    3    4 1  
     9    4    5 1  
    10    4   11 2  
    11    5    6 2  
    12    1   12 1  
    13    3   13 1  
    14    7   14 1  
    15    7   15 1  
    16    8   16 1  
    17    9   17 1  
# Name:          frag5-620-32/41815 -- energy: -1.181722
# Creation time: Sat Jun  5 12:52:59 2010


@<TRIPOS>MOLECULE
frag5-620-32/41815 -- energy: -1.181722
   17    17     1     1     1
SMALL
USER_CHARGES


@<TRIPOS>ATOM
      1 O1         -1.3536    2.4993   -0.3194 O.3        1 <1>        0.000
      2 C1         -0.1144    2.2452    0.1290 C.2        1 <1>        0.000
      3 C2          0.7068    1.4680   -0.5862 C.2        1 <1>        0.000
      4 C3          2.0590    1.1796   -0.1142 C.2        1 <1>        0.000
      5 C4          2.5487    1.7310    1.1474 C.2        1 <1>        0.000
      6 C5          1.7249    2.5232    1.8793 C.2        1 <1>        0.000
      7 C6          0.3230    2.8462    1.4353 C.3        1 <1>        0.000
      8 O2          2.1364    3.0501    3.0448 O.3        1 <1>        0.000
      9 C9          3.9181    1.4433    1.6119 C.2        1 <1>        0.000
     10 O3          4.6220    2.2628    2.1791 O.2        1 <1>        0.000
     11 O4          2.7907    0.4626   -0.7902 O.2        1 <1>        0.000
     12 H          -1.8087    3.0678    0.3061 H.spc      1 <1>        0.000
     13 H           0.3635    1.0457   -1.5306 H.spc      1 <1>        0.000
     14 H           0.2881    3.9272    1.2999 H.spc      1 <1>        0.000
     15 H          -0.3398    2.4349    2.1967 H.spc      1 <1>        0.000
     16 H           1.4300    3.5790    3.4227 H.spc      1 <1>        0.000
     17 H           4.3230    0.4461    1.4395 H.spc      1 <1>        0.000
@<TRIPOS>BOND
     1    5    9 1  
     2    6    7 1  
     3    6    8 1  
     4    9   10 2  
     5    1    2 1  
     6    2    3 2  
     7    2    7 1  
     8    3    4 1  
     9    4    5 1  
    10    4   11 2  
    11    5    6 2  
    12    1   12 1  
    13    3   13 1  
    14    7   14 1  
    15    7   15 1  
    16    8   16 1  
    17    9   17 1  
# Name:          frag5-620-32/41815 -- energy: -1.260585
# Creation time: Sat Jun  5 12:52:59 2010


@<TRIPOS>MOLECULE
frag5-620-32/41815 -- energy: -1.260585
   17    17     1     1     1
SMALL
USER_CHARGES


@<TRIPOS>ATOM
      1 O1         -1.3889    2.1838   -0.3049 O.3        1 <1>        0.000
      2 C1         -0.1302    2.1256    0.1563 C.2        1 <1>        0.000
      3 C2          0.7993    1.4356   -0.5175 C.2        1 <1>        0.000
      4 C3          2.1750    1.3632   -0.0260 C.2        1 <1>        0.000
      5 C4          2.5685    2.0510    1.2103 C.2        1 <1>        0.000
      6 C5          1.6361    2.7452    1.8945 C.2        1 <1>        0.000
      7 C6          0.2028    2.8466    1.4303 C.3        1 <1>        0.000
      8 O2          1.9658    3.3803    3.0303 O.3        1 <1>        0.000
      9 C9          3.9602    1.9591    1.6875 C.2        1 <1>        0.000
     10 O3          4.5695    0.8972    1.7218 O.2        1 <1>        0.000
     11 O4          3.0033    0.7237   -0.6657 O.2        1 <1>        0.000
     12 H          -1.9229    2.7137    0.2915 H.spc      1 <1>        0.000
     13 H           0.5280    0.9233   -1.4406 H.spc      1 <1>        0.000
     14 H           0.0170    3.9038    1.2408 H.spc      1 <1>        0.000
     15 H          -0.4042    2.3861    2.2098 H.spc      1 <1>        0.000
     16 H           1.1906    3.8211    3.3857 H.spc      1 <1>        0.000
     17 H           4.4638    2.8665    2.0209 H.spc      1 <1>        0.000
@<TRIPOS>BOND
     1    5    9 1  
     2    6    7 1  
     3    6    8 1  
     4    9   10 2  
     5    1    2 1  
     6    2    3 2  
     7    2    7 1  
     8    3    4 1  
     9    4    5 1  
    10    4   11 2  
    11    5    6 2  
    12    1   12 1  
    13    3   13 1  
    14    7   14 1  
    15    7   15 1  
    16    8   16 1  
    17    9   17 1  
