#      Rotatable Fragment
#      Build by yxyuan
#
# Name:          frag2-065-3/92655
# Creation time: Sat Jun  5 12:51:58 2010


@<TRIPOS>MOLECULE
frag2-065-3/92655
   16    17     1     1     1
SMALL
USER_CHARGES


@<TRIPOS>ATOM
      1 C1          1.1846    1.6872    0.2565 C.ar       1 <1>        0.000
      2 N2          2.4081    1.1198    0.2686 N.ar       1 <1>        0.000
      3 C2          2.5619   -0.2185    0.1331 C.ar       1 <1>        0.000
      4 C3          1.4514   -1.0335   -0.0312 C.ar       1 <1>        0.000
      5 C4          0.1694   -0.4794   -0.0451 C.ar       1 <1>        0.000
      6 C5          0.0422    0.9117    0.1023 C.ar       1 <1>        0.000
      7 N3         -1.1880    1.4759    0.0926 N.ar       1 <1>        0.000
      8 C6         -2.3122    0.7443   -0.0544 C.ar       1 <1>        0.000
      9 C7         -2.2325   -0.6342   -0.2034 C.ar       1 <1>        0.000
     10 C8         -0.9882   -1.2494   -0.1990 C.ar       1 <1>        0.000
     11 H           1.0909    2.7673    0.3691 H.spc      1 <1>        0.000
     12 H           3.5599   -0.6563    0.1531 H.spc      1 <1>        0.000
     13 H           1.5797   -2.1094   -0.1498 H.spc      1 <1>        0.000
     14 H          -3.2849    1.2362   -0.0562 H.spc      1 <1>        0.000
     15 H          -3.1389   -1.2277   -0.3227 H.spc      1 <1>        0.000
     16 H          -0.9133   -2.3306   -0.3153 H.spc      1 <1>        0.000
@<TRIPOS>BOND
     1    8    9 ar 
     2    7    8 ar 
     3    9   10 ar 
     4    1    2 ar 
     5    2    3 ar 
     6    1    6 ar 
     7    3    4 ar 
     8    4    5 ar 
     9    5    6 ar 
    10    5   10 ar 
    11    6    7 ar 
    12    1   11 1  
    13    3   12 1  
    14    4   13 1  
    15    8   14 1  
    16    9   15 1  
    17   10   16 1  
# Name:          frag2-065-3/92655 -- energy: 0.067368
# Creation time: Sat Jun  5 12:51:58 2010


@<TRIPOS>MOLECULE
frag2-065-3/92655 -- energy: 0.067368
   16    17     1     1     1
SMALL
USER_CHARGES


@<TRIPOS>ATOM
      1 C1          1.1846    1.6872    0.2565 C.ar       1 <1>        0.000
      2 N2          2.4081    1.1198    0.2686 N.ar       1 <1>        0.000
      3 C2          2.5619   -0.2185    0.1331 C.ar       1 <1>        0.000
      4 C3          1.4514   -1.0335   -0.0312 C.ar       1 <1>        0.000
      5 C4          0.1694   -0.4794   -0.0451 C.ar       1 <1>        0.000
      6 C5          0.0422    0.9117    0.1023 C.ar       1 <1>        0.000
      7 N3         -1.1880    1.4759    0.0926 N.ar       1 <1>        0.000
      8 C6         -2.3122    0.7443   -0.0544 C.ar       1 <1>        0.000
      9 C7         -2.2325   -0.6342   -0.2034 C.ar       1 <1>        0.000
     10 C8         -0.9882   -1.2494   -0.1990 C.ar       1 <1>        0.000
     11 H           1.0909    2.7673    0.3691 H.spc      1 <1>        0.000
     12 H           3.5599   -0.6563    0.1531 H.spc      1 <1>        0.000
     13 H           1.5797   -2.1094   -0.1498 H.spc      1 <1>        0.000
     14 H          -3.2849    1.2362   -0.0562 H.spc      1 <1>        0.000
     15 H          -3.1389   -1.2277   -0.3227 H.spc      1 <1>        0.000
     16 H          -0.9133   -2.3306   -0.3153 H.spc      1 <1>        0.000
@<TRIPOS>BOND
     1    8    9 ar 
     2    7    8 ar 
     3    9   10 ar 
     4    1    2 ar 
     5    2    3 ar 
     6    1    6 ar 
     7    3    4 ar 
     8    4    5 ar 
     9    5    6 ar 
    10    5   10 ar 
    11    6    7 ar 
    12    1   11 1  
    13    3   12 1  
    14    4   13 1  
    15    8   14 1  
    16    9   15 1  
    17   10   16 1  
