#      Rotatable Fragment
#      Build by yxyuan
#
# Name:          frag2-072-2/92655
# Creation time: Sat Jun  5 12:51:58 2010


@<TRIPOS>MOLECULE
frag2-072-2/92655
   15    16     1     1     1
SMALL
USER_CHARGES


@<TRIPOS>ATOM
      1 C7          1.0696    1.4328   -0.1508 C.ar       1 <1>        0.000
      2 N2          2.3297    0.9596   -0.1447 N.ar       1 <1>        0.000
      3 C8          2.5575   -0.3688   -0.0382 C.ar       1 <1>        0.000
      4 N3          1.5373   -1.2357    0.0635 N.ar       1 <1>        0.000
      5 C9          0.2526   -0.8157    0.0626 C.ar       1 <1>        0.000
      6 C10        -0.8100   -1.7022    0.1667 C.ar       1 <1>        0.000
      7 N4         -2.0826   -1.2688    0.1636 N.ar       1 <1>        0.000
      8 C11        -2.3686    0.0455    0.0604 C.ar       1 <1>        0.000
      9 C12        -1.3467    0.9746   -0.0464 C.ar       1 <1>        0.000
     10 C13        -0.0151    0.5632   -0.0474 C.ar       1 <1>        0.000
     11 H           0.8958    2.5054   -0.2373 H.spc      1 <1>        0.000
     12 H           3.5821   -0.7406   -0.0349 H.spc      1 <1>        0.000
     13 H          -0.6090   -2.7701    0.2526 H.spc      1 <1>        0.000
     14 H          -3.4069    0.3774    0.0611 H.spc      1 <1>        0.000
     15 H          -1.5857    2.0348   -0.1302 H.spc      1 <1>        0.000
@<TRIPOS>BOND
     1    9   10 ar 
     2    1    2 ar 
     3    1   10 ar 
     4    2    3 ar 
     5    3    4 ar 
     6    4    5 ar 
     7    5    6 ar 
     8    5   10 ar 
     9    6    7 ar 
    10    7    8 ar 
    11    8    9 ar 
    12    1   11 1  
    13    3   12 1  
    14    6   13 1  
    15    8   14 1  
    16    9   15 1  
# Name:          frag2-072-2/92655 -- energy: 0.177362
# Creation time: Sat Jun  5 12:51:58 2010


@<TRIPOS>MOLECULE
frag2-072-2/92655 -- energy: 0.177362
   15    16     1     1     1
SMALL
USER_CHARGES


@<TRIPOS>ATOM
      1 C7          1.0696    1.4328   -0.1508 C.ar       1 <1>        0.000
      2 N2          2.3297    0.9596   -0.1447 N.ar       1 <1>        0.000
      3 C8          2.5575   -0.3688   -0.0382 C.ar       1 <1>        0.000
      4 N3          1.5373   -1.2357    0.0635 N.ar       1 <1>        0.000
      5 C9          0.2526   -0.8157    0.0626 C.ar       1 <1>        0.000
      6 C10        -0.8100   -1.7022    0.1667 C.ar       1 <1>        0.000
      7 N4         -2.0826   -1.2688    0.1636 N.ar       1 <1>        0.000
      8 C11        -2.3686    0.0455    0.0604 C.ar       1 <1>        0.000
      9 C12        -1.3467    0.9746   -0.0464 C.ar       1 <1>        0.000
     10 C13        -0.0151    0.5632   -0.0474 C.ar       1 <1>        0.000
     11 H           0.8958    2.5054   -0.2373 H.spc      1 <1>        0.000
     12 H           3.5821   -0.7406   -0.0349 H.spc      1 <1>        0.000
     13 H          -0.6090   -2.7701    0.2526 H.spc      1 <1>        0.000
     14 H          -3.4069    0.3774    0.0611 H.spc      1 <1>        0.000
     15 H          -1.5857    2.0348   -0.1302 H.spc      1 <1>        0.000
@<TRIPOS>BOND
     1    9   10 ar 
     2    1    2 ar 
     3    1   10 ar 
     4    2    3 ar 
     5    3    4 ar 
     6    4    5 ar 
     7    5    6 ar 
     8    5   10 ar 
     9    6    7 ar 
    10    7    8 ar 
    11    8    9 ar 
    12    1   11 1  
    13    3   12 1  
    14    6   13 1  
    15    8   14 1  
    16    9   15 1  
