#      Rotatable Fragment
#      Build by yxyuan
#
# Name:          frag4-307-1173/150395
# Creation time: Sat Jun  5 12:53:30 2010


@<TRIPOS>MOLECULE
frag4-307-1173/150395
    9     9     1     1     1
SMALL
USER_CHARGES


@<TRIPOS>ATOM
      1 C1          0.8705    0.3400    0.0285 C.2        1 <1>        0.000
      2 N1          0.7453   -1.0366   -0.1891 N.2        1 <1>        0.000
      3 C3         -0.3105    0.9462    0.2018 C.2        1 <1>        0.000
      4 N2         -0.5259   -1.3680   -0.0727 N.2        1 <1>        0.000
      5 C6         -1.2986   -0.1531    0.1136 C.3        1 <1>        0.000
      6 H           1.8267    0.8626    0.0541 H.spc      1 <1>        0.000
      7 H          -0.5011    2.0062    0.3694 H.spc      1 <1>        0.000
      8 H          -1.9934    0.0045   -0.7113 H.spc      1 <1>        0.000
      9 H          -1.9113   -0.2078    1.0135 H.spc      1 <1>        0.000
@<TRIPOS>BOND
     1    1    2 1  
     2    1    3 2  
     3    2    4 2  
     4    3    5 1  
     5    4    5 1  
     6    1    6 1  
     7    3    7 1  
     8    5    8 1  
     9    5    9 1  
# Name:          frag4-307-1173/150395 -- energy: -0.248767
# Creation time: Sat Jun  5 12:53:30 2010


@<TRIPOS>MOLECULE
frag4-307-1173/150395 -- energy: -0.248767
    9     9     1     1     1
SMALL
USER_CHARGES


@<TRIPOS>ATOM
      1 C1          0.8705    0.3400    0.0285 C.2        1 <1>        0.000
      2 N1          0.7453   -1.0366   -0.1891 N.2        1 <1>        0.000
      3 C3         -0.3105    0.9462    0.2018 C.2        1 <1>        0.000
      4 N2         -0.5259   -1.3680   -0.0727 N.2        1 <1>        0.000
      5 C6         -1.2986   -0.1531    0.1136 C.3        1 <1>        0.000
      6 H           1.8267    0.8626    0.0541 H.spc      1 <1>        0.000
      7 H          -0.5011    2.0062    0.3694 H.spc      1 <1>        0.000
      8 H          -1.9934    0.0045   -0.7113 H.spc      1 <1>        0.000
      9 H          -1.9113   -0.2078    1.0135 H.spc      1 <1>        0.000
@<TRIPOS>BOND
     1    1    2 1  
     2    1    3 2  
     3    2    4 2  
     4    3    5 1  
     5    4    5 1  
     6    1    6 1  
     7    3    7 1  
     8    5    8 1  
     9    5    9 1  
