#      Rotatable Fragment
#      Build by yxyuan
#
# Name:          frag3-156-19/96164
# Creation time: Sat Jun  5 12:53:06 2010


@<TRIPOS>MOLECULE
frag3-156-19/96164
   13    12     1     1     1
SMALL
USER_CHARGES


@<TRIPOS>ATOM
      1 O1         -0.6859   -0.9061    0.1785 O.3        1 <1>        0.000
      2 P1         -2.2052   -0.8977    0.2258 P.3        1 <1>        0.000
      3 P2          0.8267   -0.9573    0.2780 P.3        1 <1>        0.000
      4 O2         -2.9821   -2.2030    0.5207 O.3        1 <1>        0.000
      5 O3         -2.7743    0.1134    1.0868 O.2        1 <1>        0.000
      6 O4         -2.6781   -0.5481   -1.2053 O.3        1 <1>        0.000
      7 O5          1.2377   -2.4604    0.2929 O.3        1 <1>        0.000
      8 O6          1.6504   -0.3045   -0.8778 O.3        1 <1>        0.000
      9 O7          1.3910   -0.2066    1.3424 O.2        1 <1>        0.000
     10 H          -2.6387   -2.9099   -0.0306 H.spc      1 <1>        0.000
     11 H          -2.3264   -1.1927   -1.8237 H.spc      1 <1>        0.000
     12 H           0.8258   -2.9110   -0.4480 H.spc      1 <1>        0.000
     13 H           1.3960   -0.7012   -1.7142 H.spc      1 <1>        0.000
@<TRIPOS>BOND
     1    1    2 1  
     2    1    3 1  
     3    2    4 1  
     4    2    5 2  
     5    2    6 1  
     6    3    7 1  
     7    3    8 1  
     8    3    9 2  
     9    4   10 1  
    10    6   11 1  
    11    7   12 1  
    12    8   13 1  
# Name:          frag3-156-19/96164
# Creation time: Sat Jun  5 12:53:06 2010


@<TRIPOS>MOLECULE
frag3-156-19/96164
   13    12     1     1     1
SMALL
USER_CHARGES


@<TRIPOS>ATOM
      1 O1         -0.6991   -0.8776    0.1891 O.3        1 <1>        0.000
      2 P1          0.8139   -0.9214    0.2168 P.3        1 <1>        0.000
      3 P2         -2.2190   -0.8384    0.2358 P.3        1 <1>        0.000
      4 O2          1.5716   -1.3765   -1.0422 O.3        1 <1>        0.000
      5 O3          1.2949    0.3294    0.6573 O.2        1 <1>        0.000
      6 O4          1.1659   -2.0531    1.2078 O.3        1 <1>        0.000
      7 O5         -2.7445    0.2763   -0.6936 O.3        1 <1>        0.000
      8 O6         -2.5900   -2.2035   -0.4659 O.3        1 <1>        0.000
      9 O7         -2.8135   -0.7056    1.5367 O.2        1 <1>        0.000
     10 H           1.2325   -2.2279   -1.3282 H.spc      1 <1>        0.000
     11 H           0.8234   -2.8860    0.8753 H.spc      1 <1>        0.000
     12 H          -2.3443    0.1831   -1.5612 H.spc      1 <1>        0.000
     13 H          -2.1701   -2.2432   -1.3283 H.spc      1 <1>        0.000
@<TRIPOS>BOND
     1    1    2 1  
     2    1    3 1  
     3    2    4 1  
     4    2    5 2  
     5    2    6 1  
     6    3    7 1  
     7    3    8 1  
     8    3    9 2  
     9    4   10 1  
    10    6   11 1  
    11    7   12 1  
    12    8   13 1  
# Name:          frag3-156-19/96164 -- energy: -1.235457
# Creation time: Sat Jun  5 12:53:06 2010


@<TRIPOS>MOLECULE
frag3-156-19/96164 -- energy: -1.235457
   13    12     1     1     1
SMALL
USER_CHARGES


@<TRIPOS>ATOM
      1 O1         -0.6859   -0.9061    0.1785 O.3        1 <1>        0.000
      2 P1         -2.2052   -0.8977    0.2258 P.3        1 <1>        0.000
      3 P2          0.8267   -0.9573    0.2780 P.3        1 <1>        0.000
      4 O2         -2.9821   -2.2030    0.5207 O.3        1 <1>        0.000
      5 O3         -2.7743    0.1134    1.0868 O.2        1 <1>        0.000
      6 O4         -2.6781   -0.5481   -1.2053 O.3        1 <1>        0.000
      7 O5          1.2377   -2.4604    0.2929 O.3        1 <1>        0.000
      8 O6          1.6504   -0.3045   -0.8778 O.3        1 <1>        0.000
      9 O7          1.3910   -0.2066    1.3424 O.2        1 <1>        0.000
     10 H          -2.6387   -2.9099   -0.0306 H.spc      1 <1>        0.000
     11 H          -2.3264   -1.1927   -1.8237 H.spc      1 <1>        0.000
     12 H           0.8258   -2.9110   -0.4480 H.spc      1 <1>        0.000
     13 H           1.3960   -0.7012   -1.7142 H.spc      1 <1>        0.000
@<TRIPOS>BOND
     1    1    2 1  
     2    1    3 1  
     3    2    4 1  
     4    2    5 2  
     5    2    6 1  
     6    3    7 1  
     7    3    8 1  
     8    3    9 2  
     9    4   10 1  
    10    6   11 1  
    11    7   12 1  
    12    8   13 1  
# Name:          frag3-156-19/96164 -- energy: -1.322928
# Creation time: Sat Jun  5 12:53:06 2010


@<TRIPOS>MOLECULE
frag3-156-19/96164 -- energy: -1.322928
   13    12     1     1     1
SMALL
USER_CHARGES


@<TRIPOS>ATOM
      1 O1         -0.6991   -0.8776    0.1891 O.3        1 <1>        0.000
      2 P1          0.8139   -0.9214    0.2168 P.3        1 <1>        0.000
      3 P2         -2.2190   -0.8384    0.2358 P.3        1 <1>        0.000
      4 O2          1.5716   -1.3765   -1.0422 O.3        1 <1>        0.000
      5 O3          1.2949    0.3294    0.6573 O.2        1 <1>        0.000
      6 O4          1.1659   -2.0531    1.2078 O.3        1 <1>        0.000
      7 O5         -2.7445    0.2763   -0.6936 O.3        1 <1>        0.000
      8 O6         -2.5900   -2.2035   -0.4659 O.3        1 <1>        0.000
      9 O7         -2.8135   -0.7056    1.5367 O.2        1 <1>        0.000
     10 H           1.2325   -2.2279   -1.3282 H.spc      1 <1>        0.000
     11 H           0.8234   -2.8860    0.8753 H.spc      1 <1>        0.000
     12 H          -2.3443    0.1831   -1.5612 H.spc      1 <1>        0.000
     13 H          -2.1701   -2.2432   -1.3283 H.spc      1 <1>        0.000
@<TRIPOS>BOND
     1    1    2 1  
     2    1    3 1  
     3    2    4 1  
     4    2    5 2  
     5    2    6 1  
     6    3    7 1  
     7    3    8 1  
     8    3    9 2  
     9    4   10 1  
    10    6   11 1  
    11    7   12 1  
    12    8   13 1  
