#      Rotatable Fragment
#      Build by yxyuan
#
# Name:          frag3-154-19/96164
# Creation time: Sat Jun  5 12:53:06 2010


@<TRIPOS>MOLECULE
frag3-154-19/96164
    9     8     1     1     1
SMALL
USER_CHARGES


@<TRIPOS>ATOM
      1 N1         -1.3116   -0.5925    0.0971 N.am       1 <1>        0.000
      2 C6         -0.5745    0.5003   -0.0999 C.2        1 <1>        0.000
      3 N2          0.7549    0.5540   -0.2252 N.am       1 <1>        0.000
      4 O4         -1.1920    1.5512   -0.1751 O.2        1 <1>        0.000
      5 N3          1.5355   -0.5708   -0.2775 N.2        1 <1>        0.000
      6 O6          1.3710   -1.4820   -1.0916 O.2        1 <1>        0.000
      7 H          -2.3258   -0.5164    0.1752 H.spc      1 <1>        0.000
      8 H          -0.8616   -1.5050    0.1698 H.spc      1 <1>        0.000
      9 H           1.2056    1.4671   -0.2841 H.spc      1 <1>        0.000
@<TRIPOS>BOND
     1    1    2 am 
     2    2    3 am 
     3    2    4 2  
     4    3    5 1  
     5    5    6 2  
     6    1    7 1  
     7    1    8 1  
     8    3    9 1  
# Name:          frag3-154-19/96164
# Creation time: Sat Jun  5 12:53:06 2010


@<TRIPOS>MOLECULE
frag3-154-19/96164
    9     8     1     1     1
SMALL
USER_CHARGES


@<TRIPOS>ATOM
      1 N1         -1.5709   -0.5042    0.1380 N.am       1 <1>        0.000
      2 C6         -0.6702    0.5596   -0.0740 C.2        1 <1>        0.000
      3 N2          0.6695    0.3859   -0.4516 N.am       1 <1>        0.000
      4 O4         -1.0988    1.7210    0.0828 O.2        1 <1>        0.000
      5 N3          1.0773   -0.8461   -0.7819 N.2        1 <1>        0.000
      6 O6          2.1763   -1.3559   -0.6856 O.2        1 <1>        0.000
      7 H          -2.5347   -0.3100    0.4095 H.spc      1 <1>        0.000
      8 H          -1.2587   -1.4680    0.0198 H.spc      1 <1>        0.000
      9 H           1.3147    1.1756   -0.4740 H.spc      1 <1>        0.000
@<TRIPOS>BOND
     1    1    2 am 
     2    2    3 am 
     3    2    4 2  
     4    3    5 1  
     5    5    6 2  
     6    1    7 1  
     7    1    8 1  
     8    3    9 1  
# Name:          frag3-154-19/96164
# Creation time: Sat Jun  5 12:53:06 2010


@<TRIPOS>MOLECULE
frag3-154-19/96164
    9     8     1     1     1
SMALL
USER_CHARGES


@<TRIPOS>ATOM
      1 N1         -2.1059   -0.0097    0.3229 N.am       1 <1>        0.000
      2 C6         -0.7788    0.3002   -0.0804 C.2        1 <1>        0.000
      3 N2          0.0898   -0.6561   -0.6499 N.am       1 <1>        0.000
      4 O4         -0.3762    1.4613    0.0744 O.2        1 <1>        0.000
      5 N3          1.3594   -0.2870   -0.8669 N.2        1 <1>        0.000
      6 O6          2.3949   -0.8485   -0.5724 O.2        1 <1>        0.000
      7 H          -2.6985    0.7154    0.7272 H.spc      1 <1>        0.000
      8 H          -2.4657   -0.9572    0.2080 H.spc      1 <1>        0.000
      9 H          -0.2369   -1.5928   -0.8872 H.spc      1 <1>        0.000
@<TRIPOS>BOND
     1    1    2 am 
     2    2    3 am 
     3    2    4 2  
     4    3    5 1  
     5    5    6 2  
     6    1    7 1  
     7    1    8 1  
     8    3    9 1  
# Name:          frag3-154-19/96164 -- energy: -0.482482
# Creation time: Sat Jun  5 12:53:06 2010


@<TRIPOS>MOLECULE
frag3-154-19/96164 -- energy: -0.482482
    9     8     1     1     1
SMALL
USER_CHARGES


@<TRIPOS>ATOM
      1 N1         -1.3116   -0.5925    0.0971 N.am       1 <1>        0.000
      2 C6         -0.5745    0.5003   -0.0999 C.2        1 <1>        0.000
      3 N2          0.7549    0.5540   -0.2252 N.am       1 <1>        0.000
      4 O4         -1.1920    1.5512   -0.1751 O.2        1 <1>        0.000
      5 N3          1.5355   -0.5708   -0.2775 N.2        1 <1>        0.000
      6 O6          1.3710   -1.4820   -1.0916 O.2        1 <1>        0.000
      7 H          -2.3258   -0.5164    0.1752 H.spc      1 <1>        0.000
      8 H          -0.8616   -1.5050    0.1698 H.spc      1 <1>        0.000
      9 H           1.2056    1.4671   -0.2841 H.spc      1 <1>        0.000
@<TRIPOS>BOND
     1    1    2 am 
     2    2    3 am 
     3    2    4 2  
     4    3    5 1  
     5    5    6 2  
     6    1    7 1  
     7    1    8 1  
     8    3    9 1  
# Name:          frag3-154-19/96164 -- energy: -0.430354
# Creation time: Sat Jun  5 12:53:06 2010


@<TRIPOS>MOLECULE
frag3-154-19/96164 -- energy: -0.430354
    9     8     1     1     1
SMALL
USER_CHARGES


@<TRIPOS>ATOM
      1 N1         -1.5709   -0.5042    0.1380 N.am       1 <1>        0.000
      2 C6         -0.6702    0.5596   -0.0740 C.2        1 <1>        0.000
      3 N2          0.6695    0.3859   -0.4516 N.am       1 <1>        0.000
      4 O4         -1.0988    1.7210    0.0828 O.2        1 <1>        0.000
      5 N3          1.0773   -0.8461   -0.7819 N.2        1 <1>        0.000
      6 O6          2.1763   -1.3559   -0.6856 O.2        1 <1>        0.000
      7 H          -2.5347   -0.3100    0.4095 H.spc      1 <1>        0.000
      8 H          -1.2587   -1.4680    0.0198 H.spc      1 <1>        0.000
      9 H           1.3147    1.1756   -0.4740 H.spc      1 <1>        0.000
@<TRIPOS>BOND
     1    1    2 am 
     2    2    3 am 
     3    2    4 2  
     4    3    5 1  
     5    5    6 2  
     6    1    7 1  
     7    1    8 1  
     8    3    9 1  
# Name:          frag3-154-19/96164 -- energy: -0.342032
# Creation time: Sat Jun  5 12:53:06 2010


@<TRIPOS>MOLECULE
frag3-154-19/96164 -- energy: -0.342032
    9     8     1     1     1
SMALL
USER_CHARGES


@<TRIPOS>ATOM
      1 N1         -2.1059   -0.0097    0.3229 N.am       1 <1>        0.000
      2 C6         -0.7788    0.3002   -0.0804 C.2        1 <1>        0.000
      3 N2          0.0898   -0.6561   -0.6499 N.am       1 <1>        0.000
      4 O4         -0.3762    1.4613    0.0744 O.2        1 <1>        0.000
      5 N3          1.3594   -0.2870   -0.8669 N.2        1 <1>        0.000
      6 O6          2.3949   -0.8485   -0.5724 O.2        1 <1>        0.000
      7 H          -2.6985    0.7154    0.7272 H.spc      1 <1>        0.000
      8 H          -2.4657   -0.9572    0.2080 H.spc      1 <1>        0.000
      9 H          -0.2369   -1.5928   -0.8872 H.spc      1 <1>        0.000
@<TRIPOS>BOND
     1    1    2 am 
     2    2    3 am 
     3    2    4 2  
     4    3    5 1  
     5    5    6 2  
     6    1    7 1  
     7    1    8 1  
     8    3    9 1  
