#      Rotatable Fragment
#      Build by yxyuan
#
# Name:          frag5-555-167/138278
# Creation time: Sat Jun  5 12:53:43 2010


@<TRIPOS>MOLECULE
frag5-555-167/138278
   19    20     1     1     1
SMALL
USER_CHARGES


@<TRIPOS>ATOM
      1 O2         -0.3069   -0.8898   -0.2272 O.3        1 <1>        0.000
      2 C16         0.9278   -0.2317   -0.1969 C.ar       1 <1>        0.000
      3 C17         2.1034   -0.9776   -0.3103 C.ar       1 <1>        0.000
      4 C18         1.0060    1.1586   -0.0565 C.ar       1 <1>        0.000
      5 C19         3.3553   -0.3557   -0.2351 C.ar       1 <1>        0.000
      6 C20         2.2538    1.7864    0.0007 C.ar       1 <1>        0.000
      7 C21         3.4319    1.0351   -0.0786 C.ar       1 <1>        0.000
      8 C22         4.5334   -1.1068   -0.3151 C.ar       1 <1>        0.000
      9 C23         4.6848    1.6582   -0.0025 C.ar       1 <1>        0.000
     10 C24         5.7807   -0.4821   -0.2311 C.ar       1 <1>        0.000
     11 C25         5.8579    0.9029   -0.0751 C.ar       1 <1>        0.000
     12 H          -1.0136   -0.2461   -0.1388 H.spc      1 <1>        0.000
     13 H           2.0453   -2.0558   -0.4590 H.spc      1 <1>        0.000
     14 H           0.0939    1.7519    0.0083 H.spc      1 <1>        0.000
     15 H           2.3096    2.8697    0.1079 H.spc      1 <1>        0.000
     16 H           4.4777   -2.1877   -0.4440 H.spc      1 <1>        0.000
     17 H           4.7445    2.7403    0.1142 H.spc      1 <1>        0.000
     18 H           6.6929   -1.0761   -0.2874 H.spc      1 <1>        0.000
     19 H           6.8293    1.3931   -0.0102 H.spc      1 <1>        0.000
@<TRIPOS>BOND
     1    4    6 ar 
     2    6    7 ar 
     3   10   11 ar 
     4    5    8 ar 
     5    9   11 ar 
     6    8   10 ar 
     7    5    7 ar 
     8    7    9 ar 
     9    1    2 1  
    10    2    3 ar 
    11    2    4 ar 
    12    3    5 ar 
    13    1   12 1  
    14    3   13 1  
    15    4   14 1  
    16    6   15 1  
    17    8   16 1  
    18    9   17 1  
    19   10   18 1  
    20   11   19 1  
# Name:          frag5-555-167/138278 -- energy: -0.452244
# Creation time: Sat Jun  5 12:53:43 2010


@<TRIPOS>MOLECULE
frag5-555-167/138278 -- energy: -0.452244
   19    20     1     1     1
SMALL
USER_CHARGES


@<TRIPOS>ATOM
      1 O2         -0.3069   -0.8898   -0.2272 O.3        1 <1>        0.000
      2 C16         0.9278   -0.2317   -0.1969 C.ar       1 <1>        0.000
      3 C17         2.1034   -0.9776   -0.3103 C.ar       1 <1>        0.000
      4 C18         1.0060    1.1586   -0.0565 C.ar       1 <1>        0.000
      5 C19         3.3553   -0.3557   -0.2351 C.ar       1 <1>        0.000
      6 C20         2.2538    1.7864    0.0007 C.ar       1 <1>        0.000
      7 C21         3.4319    1.0351   -0.0786 C.ar       1 <1>        0.000
      8 C22         4.5334   -1.1068   -0.3151 C.ar       1 <1>        0.000
      9 C23         4.6848    1.6582   -0.0025 C.ar       1 <1>        0.000
     10 C24         5.7807   -0.4821   -0.2311 C.ar       1 <1>        0.000
     11 C25         5.8579    0.9029   -0.0751 C.ar       1 <1>        0.000
     12 H          -1.0136   -0.2461   -0.1388 H.spc      1 <1>        0.000
     13 H           2.0453   -2.0558   -0.4590 H.spc      1 <1>        0.000
     14 H           0.0939    1.7519    0.0083 H.spc      1 <1>        0.000
     15 H           2.3096    2.8697    0.1079 H.spc      1 <1>        0.000
     16 H           4.4777   -2.1877   -0.4440 H.spc      1 <1>        0.000
     17 H           4.7445    2.7403    0.1142 H.spc      1 <1>        0.000
     18 H           6.6929   -1.0761   -0.2874 H.spc      1 <1>        0.000
     19 H           6.8293    1.3931   -0.0102 H.spc      1 <1>        0.000
@<TRIPOS>BOND
     1    4    6 ar 
     2    6    7 ar 
     3   10   11 ar 
     4    5    8 ar 
     5    9   11 ar 
     6    8   10 ar 
     7    5    7 ar 
     8    7    9 ar 
     9    1    2 1  
    10    2    3 ar 
    11    2    4 ar 
    12    3    5 ar 
    13    1   12 1  
    14    3   13 1  
    15    4   14 1  
    16    6   15 1  
    17    8   16 1  
    18    9   17 1  
    19   10   18 1  
    20   11   19 1  
