#      Rotatable Fragment
#      Build by yxyuan
#
# Name:          frag2-061-5/92655
# Creation time: Sat Jun  5 12:51:57 2010


@<TRIPOS>MOLECULE
frag2-061-5/92655
   22    24     1     1     1
SMALL
USER_CHARGES


@<TRIPOS>ATOM
      1 N1         -1.1990   -1.7927    0.2140 N.ar       1 <1>        0.000
      2 C1         -0.6427   -0.5660    0.0633 C.ar       1 <1>        0.000
      3 C2          0.7439   -0.4250    0.0670 C.ar       1 <1>        0.000
      4 N2          1.5353   -1.5152    0.2181 N.ar       1 <1>        0.000
      5 C3          2.8830   -1.4294    0.2266 C.ar       1 <1>        0.000
      6 C4          3.4999   -0.1981    0.0806 C.ar       1 <1>        0.000
      7 C5          2.7219    0.9447   -0.0760 C.ar       1 <1>        0.000
      8 C6          1.3269    0.8371   -0.0860 C.ar       1 <1>        0.000
      9 C7          0.5011    1.9582   -0.2453 C.ar       1 <1>        0.000
     10 C8         -0.8848    1.8169   -0.2503 C.ar       1 <1>        0.000
     11 C9         -1.4673    0.5518   -0.0950 C.ar       1 <1>        0.000
     12 C10        -2.8554    0.3755   -0.0940 C.ar       1 <1>        0.000
     13 C11        -3.3879   -0.9007    0.0637 C.ar       1 <1>        0.000
     14 C12        -2.5369   -1.9806    0.2183 C.ar       1 <1>        0.000
     15 H           3.4855   -2.3296    0.3484 H.spc      1 <1>        0.000
     16 H           4.5874   -0.1248    0.0883 H.spc      1 <1>        0.000
     17 H           3.1968    1.9191   -0.1903 H.spc      1 <1>        0.000
     18 H           0.9456    2.9461   -0.3659 H.spc      1 <1>        0.000
     19 H          -1.5191    2.6944   -0.3756 H.spc      1 <1>        0.000
     20 H          -3.5165    1.2335   -0.2161 H.spc      1 <1>        0.000
     21 H          -4.4678   -1.0484    0.0654 H.spc      1 <1>        0.000
     22 H          -2.9459   -2.9831    0.3436 H.spc      1 <1>        0.000
@<TRIPOS>BOND
     1    2    3 ar 
     2   12   13 ar 
     3   11   12 ar 
     4   10   11 ar 
     5    6    7 ar 
     6   13   14 ar 
     7    7    8 ar 
     8    4    5 ar 
     9    2   11 ar 
    10    3    8 ar 
    11    5    6 ar 
    12    9   10 ar 
    13    3    4 ar 
    14    1    2 ar 
    15    1   14 ar 
    16    8    9 ar 
    17    5   15 1  
    18    6   16 1  
    19    7   17 1  
    20    9   18 1  
    21   10   19 1  
    22   12   20 1  
    23   13   21 1  
    24   14   22 1  
# Name:          frag2-061-5/92655 -- energy: -0.402478
# Creation time: Sat Jun  5 12:51:57 2010


@<TRIPOS>MOLECULE
frag2-061-5/92655 -- energy: -0.402478
   22    24     1     1     1
SMALL
USER_CHARGES


@<TRIPOS>ATOM
      1 N1         -1.1990   -1.7927    0.2140 N.ar       1 <1>        0.000
      2 C1         -0.6427   -0.5660    0.0633 C.ar       1 <1>        0.000
      3 C2          0.7439   -0.4250    0.0670 C.ar       1 <1>        0.000
      4 N2          1.5353   -1.5152    0.2181 N.ar       1 <1>        0.000
      5 C3          2.8830   -1.4294    0.2266 C.ar       1 <1>        0.000
      6 C4          3.4999   -0.1981    0.0806 C.ar       1 <1>        0.000
      7 C5          2.7219    0.9447   -0.0760 C.ar       1 <1>        0.000
      8 C6          1.3269    0.8371   -0.0860 C.ar       1 <1>        0.000
      9 C7          0.5011    1.9582   -0.2453 C.ar       1 <1>        0.000
     10 C8         -0.8848    1.8169   -0.2503 C.ar       1 <1>        0.000
     11 C9         -1.4673    0.5518   -0.0950 C.ar       1 <1>        0.000
     12 C10        -2.8554    0.3755   -0.0940 C.ar       1 <1>        0.000
     13 C11        -3.3879   -0.9007    0.0637 C.ar       1 <1>        0.000
     14 C12        -2.5369   -1.9806    0.2183 C.ar       1 <1>        0.000
     15 H           3.4855   -2.3296    0.3484 H.spc      1 <1>        0.000
     16 H           4.5874   -0.1248    0.0883 H.spc      1 <1>        0.000
     17 H           3.1968    1.9191   -0.1903 H.spc      1 <1>        0.000
     18 H           0.9456    2.9461   -0.3659 H.spc      1 <1>        0.000
     19 H          -1.5191    2.6944   -0.3756 H.spc      1 <1>        0.000
     20 H          -3.5165    1.2335   -0.2161 H.spc      1 <1>        0.000
     21 H          -4.4678   -1.0484    0.0654 H.spc      1 <1>        0.000
     22 H          -2.9459   -2.9831    0.3436 H.spc      1 <1>        0.000
@<TRIPOS>BOND
     1    2    3 ar 
     2   12   13 ar 
     3   11   12 ar 
     4   10   11 ar 
     5    6    7 ar 
     6   13   14 ar 
     7    7    8 ar 
     8    4    5 ar 
     9    2   11 ar 
    10    3    8 ar 
    11    5    6 ar 
    12    9   10 ar 
    13    3    4 ar 
    14    1    2 ar 
    15    1   14 ar 
    16    8    9 ar 
    17    5   15 1  
    18    6   16 1  
    19    7   17 1  
    20    9   18 1  
    21   10   19 1  
    22   12   20 1  
    23   13   21 1  
    24   14   22 1  
