#      Rotatable Fragment
#      Build by yxyuan
#
# Name:          frag5-519-129/41815
# Creation time: Sat Jun  5 12:52:51 2010


@<TRIPOS>MOLECULE
frag5-519-129/41815
   15    16     1     1     1
SMALL
USER_CHARGES


@<TRIPOS>ATOM
      1 C6         -1.6517    1.5591   -0.8596 C.3        1 <1>        0.000
      2 C7         -2.1182    0.6190   -2.0128 C.3        1 <1>        0.000
      3 S1         -1.7284   -1.1331   -2.0943 S.3        1 <1>        0.000
      4 C8         -3.4860   -1.6360   -2.0247 C.3        1 <1>        0.000
      5 C9         -4.2314   -0.5431   -1.2232 C.3        1 <1>        0.000
      6 N3         -3.2877    0.5343   -1.1890 N.am       1 <1>        0.000
      7 C10        -2.9540    1.2805   -0.1336 C.2        1 <1>        0.000
      8 O2         -3.4328    1.5554    0.9357 O.2        1 <1>        0.000
      9 H          -1.3456    2.5835   -1.0716 H.spc      1 <1>        0.000
     10 H          -0.6958    1.3920   -0.3632 H.spc      1 <1>        0.000
     11 H          -1.8801    0.9613   -3.0199 H.spc      1 <1>        0.000
     12 H          -3.5922   -2.6090   -1.5451 H.spc      1 <1>        0.000
     13 H          -3.9017   -1.7328   -3.0277 H.spc      1 <1>        0.000
     14 H          -4.5264   -0.8770   -0.2284 H.spc      1 <1>        0.000
     15 H          -5.1797   -0.2587   -1.6792 H.spc      1 <1>        0.000
@<TRIPOS>BOND
     1    7    8 2  
     2    6    7 am 
     3    1    2 1  
     4    1    7 1  
     5    2    3 1  
     6    2    6 1  
     7    3    4 1  
     8    4    5 1  
     9    5    6 1  
    10    1    9 1  
    11    1   10 1  
    12    2   11 1  
    13    4   12 1  
    14    4   13 1  
    15    5   14 1  
    16    5   15 1  
# Name:          frag5-519-129/41815 -- energy: -1.311271
# Creation time: Sat Jun  5 12:52:51 2010


@<TRIPOS>MOLECULE
frag5-519-129/41815 -- energy: -1.311271
   15    16     1     1     1
SMALL
USER_CHARGES


@<TRIPOS>ATOM
      1 C6         -1.6517    1.5591   -0.8596 C.3        1 <1>        0.000
      2 C7         -2.1182    0.6190   -2.0128 C.3        1 <1>        0.000
      3 S1         -1.7284   -1.1331   -2.0943 S.3        1 <1>        0.000
      4 C8         -3.4860   -1.6360   -2.0247 C.3        1 <1>        0.000
      5 C9         -4.2314   -0.5431   -1.2232 C.3        1 <1>        0.000
      6 N3         -3.2877    0.5343   -1.1890 N.am       1 <1>        0.000
      7 C10        -2.9540    1.2805   -0.1336 C.2        1 <1>        0.000
      8 O2         -3.4328    1.5554    0.9357 O.2        1 <1>        0.000
      9 H          -1.3456    2.5835   -1.0716 H.spc      1 <1>        0.000
     10 H          -0.6958    1.3920   -0.3632 H.spc      1 <1>        0.000
     11 H          -1.8801    0.9613   -3.0199 H.spc      1 <1>        0.000
     12 H          -3.5922   -2.6090   -1.5451 H.spc      1 <1>        0.000
     13 H          -3.9017   -1.7328   -3.0277 H.spc      1 <1>        0.000
     14 H          -4.5264   -0.8770   -0.2284 H.spc      1 <1>        0.000
     15 H          -5.1797   -0.2587   -1.6792 H.spc      1 <1>        0.000
@<TRIPOS>BOND
     1    7    8 2  
     2    6    7 am 
     3    1    2 1  
     4    1    7 1  
     5    2    3 1  
     6    2    6 1  
     7    3    4 1  
     8    4    5 1  
     9    5    6 1  
    10    1    9 1  
    11    1   10 1  
    12    2   11 1  
    13    4   12 1  
    14    4   13 1  
    15    5   14 1  
    16    5   15 1  
