#      Rotatable Fragment
#      Build by yxyuan
#
# Name:          frag5-538-224/138278
# Creation time: Sat Jun  5 12:53:41 2010


@<TRIPOS>MOLECULE
frag5-538-224/138278
   14    14     1     1     1
SMALL
USER_CHARGES


@<TRIPOS>ATOM
      1 C1         -2.4005   -1.1498   -0.2386 C.3        1 <1>        0.000
      2 C2         -2.3125    0.3600    0.0332 C.3        1 <1>        0.000
      3 C3         -3.7428   -1.5598    0.3847 C.3        1 <1>        0.000
      4 C4         -3.7626    0.7487   -0.0446 C.2        1 <1>        0.000
      5 C6         -4.6985   -0.4277   -0.0218 C.3        1 <1>        0.000
      6 O3         -4.1434    1.9075   -0.1193 O.2        1 <1>        0.000
      7 H          -1.5609   -1.6971    0.1899 H.spc      1 <1>        0.000
      8 H          -2.3498   -1.3825   -1.3023 H.spc      1 <1>        0.000
      9 H          -1.6729    0.8981   -0.6664 H.spc      1 <1>        0.000
     10 H          -1.8383    0.6110    0.9820 H.spc      1 <1>        0.000
     11 H          -3.6782   -1.6793    1.4662 H.spc      1 <1>        0.000
     12 H          -4.0821   -2.5345    0.0340 H.spc      1 <1>        0.000
     13 H          -5.5449   -0.3031    0.6536 H.spc      1 <1>        0.000
     14 H          -5.2087   -0.6020   -0.9691 H.spc      1 <1>        0.000
@<TRIPOS>BOND
     1    1    2 1  
     2    1    3 1  
     3    2    4 1  
     4    3    5 1  
     5    4    6 2  
     6    4    5 1  
     7    1    7 1  
     8    1    8 1  
     9    2    9 1  
    10    2   10 1  
    11    3   11 1  
    12    3   12 1  
    13    5   13 1  
    14    5   14 1  
# Name:          frag5-538-224/138278 -- energy: -0.970106
# Creation time: Sat Jun  5 12:53:41 2010


@<TRIPOS>MOLECULE
frag5-538-224/138278 -- energy: -0.970106
   14    14     1     1     1
SMALL
USER_CHARGES


@<TRIPOS>ATOM
      1 C1         -2.4005   -1.1498   -0.2386 C.3        1 <1>        0.000
      2 C2         -2.3125    0.3600    0.0332 C.3        1 <1>        0.000
      3 C3         -3.7428   -1.5598    0.3847 C.3        1 <1>        0.000
      4 C4         -3.7626    0.7487   -0.0446 C.2        1 <1>        0.000
      5 C6         -4.6985   -0.4277   -0.0218 C.3        1 <1>        0.000
      6 O3         -4.1434    1.9075   -0.1193 O.2        1 <1>        0.000
      7 H          -1.5609   -1.6971    0.1899 H.spc      1 <1>        0.000
      8 H          -2.3498   -1.3825   -1.3023 H.spc      1 <1>        0.000
      9 H          -1.6729    0.8981   -0.6664 H.spc      1 <1>        0.000
     10 H          -1.8383    0.6110    0.9820 H.spc      1 <1>        0.000
     11 H          -3.6782   -1.6793    1.4662 H.spc      1 <1>        0.000
     12 H          -4.0821   -2.5345    0.0340 H.spc      1 <1>        0.000
     13 H          -5.5449   -0.3031    0.6536 H.spc      1 <1>        0.000
     14 H          -5.2087   -0.6020   -0.9691 H.spc      1 <1>        0.000
@<TRIPOS>BOND
     1    1    2 1  
     2    1    3 1  
     3    2    4 1  
     4    3    5 1  
     5    4    6 2  
     6    4    5 1  
     7    1    7 1  
     8    1    8 1  
     9    2    9 1  
    10    2   10 1  
    11    3   11 1  
    12    3   12 1  
    13    5   13 1  
    14    5   14 1  
