#      Rotatable Fragment
#      Build by yxyuan
#
# Name:          frag2-055-33/319335
# Creation time: Sat Jun  5 12:53:43 2010


@<TRIPOS>MOLECULE
frag2-055-33/319335
   24    26     1     1     1
SMALL
USER_CHARGES


@<TRIPOS>ATOM
      1 C1          0.6836    0.4161    0.0478 C.ar       1 <1>        0.000
      2 C2         -0.7346    0.3170    0.0360 C.ar       1 <1>        0.000
      3 C3          1.4572   -0.7679   -0.0877 C.ar       1 <1>        0.000
      4 C4          1.3890    1.6369    0.1868 C.ar       1 <1>        0.000
      5 C5         -1.3357   -0.9628   -0.1106 C.ar       1 <1>        0.000
      6 C6         -1.6044    1.4268    0.1633 C.ar       1 <1>        0.000
      7 C7          2.8646   -0.7114   -0.0807 C.ar       1 <1>        0.000
      8 C8          0.8352   -2.0090   -0.2298 C.ar       1 <1>        0.000
      9 C9          2.7939    1.6625    0.1909 C.ar       1 <1>        0.000
     10 C10        -0.5459   -2.1047   -0.2411 C.ar       1 <1>        0.000
     11 C11        -2.7372   -1.1021   -0.1268 C.ar       1 <1>        0.000
     12 C12        -2.9983    1.2581    0.1438 C.ar       1 <1>        0.000
     13 C13         3.5267    0.4974    0.0575 C.ar       1 <1>        0.000
     14 C15        -3.5626    0.0037    0.0002 C.ar       1 <1>        0.000
     15 H           0.8342    2.5692    0.2920 H.spc      1 <1>        0.000
     16 H          -1.1860    2.4267    0.2781 H.spc      1 <1>        0.000
     17 H           3.4403   -1.6310   -0.1854 H.spc      1 <1>        0.000
     18 H           1.4409   -2.9093   -0.3326 H.spc      1 <1>        0.000
     19 H           3.3135    2.6143    0.3008 H.spc      1 <1>        0.000
     20 H          -1.0196   -3.0800   -0.3529 H.spc      1 <1>        0.000
     21 H          -3.1782   -2.0924   -0.2407 H.spc      1 <1>        0.000
     22 H          -3.6456    2.1294    0.2434 H.spc      1 <1>        0.000
     23 H           4.6162    0.5300    0.0611 H.spc      1 <1>        0.000
     24 H          -4.6461   -0.1140   -0.0130 H.spc      1 <1>        0.000
@<TRIPOS>BOND
     1    5   10 ar 
     2    8   10 ar 
     3    7   13 ar 
     4    4    9 ar 
     5    3    8 ar 
     6    9   13 ar 
     7    2    5 ar 
     8    3    7 ar 
     9   12   14 ar 
    10    1    2 ar 
    11    1    4 ar 
    12   11   14 ar 
    13    6   12 ar 
    14    1    3 ar 
    15    2    6 ar 
    16    5   11 ar 
    17    4   15 1  
    18    6   16 1  
    19    7   17 1  
    20    8   18 1  
    21    9   19 1  
    22   10   20 1  
    23   11   21 1  
    24   12   22 1  
    25   13   23 1  
    26   14   24 1  
# Name:          frag2-055-33/319335 -- energy: -0.862779
# Creation time: Sat Jun  5 12:53:43 2010


@<TRIPOS>MOLECULE
frag2-055-33/319335 -- energy: -0.862779
   24    26     1     1     1
SMALL
USER_CHARGES


@<TRIPOS>ATOM
      1 C1          0.6836    0.4161    0.0478 C.ar       1 <1>        0.000
      2 C2         -0.7346    0.3170    0.0360 C.ar       1 <1>        0.000
      3 C3          1.4572   -0.7679   -0.0877 C.ar       1 <1>        0.000
      4 C4          1.3890    1.6369    0.1868 C.ar       1 <1>        0.000
      5 C5         -1.3357   -0.9628   -0.1106 C.ar       1 <1>        0.000
      6 C6         -1.6044    1.4268    0.1633 C.ar       1 <1>        0.000
      7 C7          2.8646   -0.7114   -0.0807 C.ar       1 <1>        0.000
      8 C8          0.8352   -2.0090   -0.2298 C.ar       1 <1>        0.000
      9 C9          2.7939    1.6625    0.1909 C.ar       1 <1>        0.000
     10 C10        -0.5459   -2.1047   -0.2411 C.ar       1 <1>        0.000
     11 C11        -2.7372   -1.1021   -0.1268 C.ar       1 <1>        0.000
     12 C12        -2.9983    1.2581    0.1438 C.ar       1 <1>        0.000
     13 C13         3.5267    0.4974    0.0575 C.ar       1 <1>        0.000
     14 C15        -3.5626    0.0037    0.0002 C.ar       1 <1>        0.000
     15 H           0.8342    2.5692    0.2920 H.spc      1 <1>        0.000
     16 H          -1.1860    2.4267    0.2781 H.spc      1 <1>        0.000
     17 H           3.4403   -1.6310   -0.1854 H.spc      1 <1>        0.000
     18 H           1.4409   -2.9093   -0.3326 H.spc      1 <1>        0.000
     19 H           3.3135    2.6143    0.3008 H.spc      1 <1>        0.000
     20 H          -1.0196   -3.0800   -0.3529 H.spc      1 <1>        0.000
     21 H          -3.1782   -2.0924   -0.2407 H.spc      1 <1>        0.000
     22 H          -3.6456    2.1294    0.2434 H.spc      1 <1>        0.000
     23 H           4.6162    0.5300    0.0611 H.spc      1 <1>        0.000
     24 H          -4.6461   -0.1140   -0.0130 H.spc      1 <1>        0.000
@<TRIPOS>BOND
     1    5   10 ar 
     2    8   10 ar 
     3    7   13 ar 
     4    4    9 ar 
     5    3    8 ar 
     6    9   13 ar 
     7    2    5 ar 
     8    3    7 ar 
     9   12   14 ar 
    10    1    2 ar 
    11    1    4 ar 
    12   11   14 ar 
    13    6   12 ar 
    14    1    3 ar 
    15    2    6 ar 
    16    5   11 ar 
    17    4   15 1  
    18    6   16 1  
    19    7   17 1  
    20    8   18 1  
    21    9   19 1  
    22   10   20 1  
    23   11   21 1  
    24   12   22 1  
    25   13   23 1  
    26   14   24 1  
