#      Rotatable Fragment
#      Build by yxyuan
#
# Name:          frag5-608-96/138278
# Creation time: Sat Jun  5 12:53:46 2010


@<TRIPOS>MOLECULE
frag5-608-96/138278
   15    15     1     1     1
SMALL
USER_CHARGES


@<TRIPOS>ATOM
      1 N3         -1.7143   -1.8392   -0.4478 N.am       1 <1>        0.000
      2 C18        -1.6273   -0.5165   -0.1716 C.2        1 <1>        0.000
      3 C20        -2.8299    0.3627    0.1174 C.ar       1 <1>        0.000
      4 O7         -0.5421    0.0374   -0.1314 O.2        1 <1>        0.000
      5 C22        -2.7731    1.7424    0.3508 C.ar       1 <1>        0.000
      6 N4         -4.0333   -0.2547    0.1267 N.ar       1 <1>        0.000
      7 C24        -3.9579    2.4778    0.4029 C.ar       1 <1>        0.000
      8 C25        -5.1969    0.4301    0.1833 C.ar       1 <1>        0.000
      9 C26        -5.1866    1.8218    0.2881 C.ar       1 <1>        0.000
     10 H          -0.8677   -2.3801   -0.6242 H.spc      1 <1>        0.000
     11 H          -2.6264   -2.2947   -0.4794 H.spc      1 <1>        0.000
     12 H          -1.8121    2.2374    0.4905 H.spc      1 <1>        0.000
     13 H          -3.9252    3.5596    0.5326 H.spc      1 <1>        0.000
     14 H          -6.1455   -0.1056    0.1470 H.spc      1 <1>        0.000
     15 H          -6.1190    2.3863    0.2806 H.spc      1 <1>        0.000
@<TRIPOS>BOND
     1    1    2 am 
     2    2    3 1  
     3    2    4 2  
     4    3    6 ar 
     5    5    7 ar 
     6    3    5 ar 
     7    6    8 ar 
     8    7    9 ar 
     9    8    9 ar 
    10    1   10 1  
    11    1   11 1  
    12    5   12 1  
    13    7   13 1  
    14    8   14 1  
    15    9   15 1  
# Name:          frag5-608-96/138278
# Creation time: Sat Jun  5 12:53:46 2010


@<TRIPOS>MOLECULE
frag5-608-96/138278
   15    15     1     1     1
SMALL
USER_CHARGES


@<TRIPOS>ATOM
      1 N3         -1.3832   -1.7098    0.4256 N.am       1 <1>        0.000
      2 C18        -1.6354   -0.5249   -0.1814 C.2        1 <1>        0.000
      3 C20        -2.8471    0.3360    0.1271 C.ar       1 <1>        0.000
      4 O7         -0.8650   -0.0824   -1.0152 O.2        1 <1>        0.000
      5 C22        -2.7980    1.5946    0.7383 C.ar       1 <1>        0.000
      6 N4         -4.0463   -0.1683   -0.2442 N.ar       1 <1>        0.000
      7 C24        -3.9513    2.3782    0.7859 C.ar       1 <1>        0.000
      8 C25        -5.1812    0.5651   -0.2017 C.ar       1 <1>        0.000
      9 C26        -5.1539    1.8732    0.2838 C.ar       1 <1>        0.000
     10 H          -0.5440   -2.2374    0.1854 H.spc      1 <1>        0.000
     11 H          -2.0326   -2.0741    1.1227 H.spc      1 <1>        0.000
     12 H          -1.8672    1.9590    1.1730 H.spc      1 <1>        0.000
     13 H          -3.9146    3.3804    1.2130 H.spc      1 <1>        0.000
     14 H          -6.1204    0.1334   -0.5477 H.spc      1 <1>        0.000
     15 H          -6.0531    2.4891    0.2717 H.spc      1 <1>        0.000
@<TRIPOS>BOND
     1    1    2 am 
     2    2    3 1  
     3    2    4 2  
     4    3    6 ar 
     5    5    7 ar 
     6    3    5 ar 
     7    6    8 ar 
     8    7    9 ar 
     9    8    9 ar 
    10    1   10 1  
    11    1   11 1  
    12    5   12 1  
    13    7   13 1  
    14    8   14 1  
    15    9   15 1  
# Name:          frag5-608-96/138278
# Creation time: Sat Jun  5 12:53:46 2010


@<TRIPOS>MOLECULE
frag5-608-96/138278
   15    15     1     1     1
SMALL
USER_CHARGES


@<TRIPOS>ATOM
      1 N3         -0.5067   -0.5328    0.5480 N.am       1 <1>        0.000
      2 C18        -1.6510   -0.5472   -0.1804 C.2        1 <1>        0.000
      3 C20        -2.8511    0.3309    0.1278 C.ar       1 <1>        0.000
      4 O7         -1.7567   -1.2792   -1.1466 O.2        1 <1>        0.000
      5 C22        -2.7807    1.6035    0.7068 C.ar       1 <1>        0.000
      6 N4         -4.0594   -0.1737   -0.2115 N.ar       1 <1>        0.000
      7 C24        -3.9266    2.3974    0.7555 C.ar       1 <1>        0.000
      8 C25        -5.1878    0.5720   -0.1674 C.ar       1 <1>        0.000
      9 C26        -5.1417    1.8909    0.2862 C.ar       1 <1>        0.000
     10 H           0.2717   -1.1380    0.2869 H.spc      1 <1>        0.000
     11 H          -0.4247    0.0832    1.3568 H.spc      1 <1>        0.000
     12 H          -1.8393    1.9706    1.1157 H.spc      1 <1>        0.000
     13 H          -3.8745    3.4090    1.1581 H.spc      1 <1>        0.000
     14 H          -6.1364    0.1408   -0.4874 H.spc      1 <1>        0.000
     15 H          -6.0360    2.5140    0.2747 H.spc      1 <1>        0.000
@<TRIPOS>BOND
     1    1    2 am 
     2    2    3 1  
     3    2    4 2  
     4    3    6 ar 
     5    5    7 ar 
     6    3    5 ar 
     7    6    8 ar 
     8    7    9 ar 
     9    8    9 ar 
    10    1   10 1  
    11    1   11 1  
    12    5   12 1  
    13    7   13 1  
    14    8   14 1  
    15    9   15 1  
# Name:          frag5-608-96/138278
# Creation time: Sat Jun  5 12:53:46 2010


@<TRIPOS>MOLECULE
frag5-608-96/138278
   15    15     1     1     1
SMALL
USER_CHARGES


@<TRIPOS>ATOM
      1 N3         -0.8567   -0.4674   -1.2588 N.am       1 <1>        0.000
      2 C18        -1.6449   -0.5448   -0.1582 C.2        1 <1>        0.000
      3 C20        -2.8225    0.3792    0.0966 C.ar       1 <1>        0.000
      4 O7         -1.4360   -1.3909    0.6916 O.2        1 <1>        0.000
      5 C22        -2.8251    1.7564   -0.1555 C.ar       1 <1>        0.000
      6 N4         -3.9420   -0.2032    0.5836 N.ar       1 <1>        0.000
      7 C24        -4.0245    2.4645   -0.0760 C.ar       1 <1>        0.000
      8 C25        -5.1164    0.4612    0.6785 C.ar       1 <1>        0.000
      9 C26        -5.1935    1.8068    0.3166 C.ar       1 <1>        0.000
     10 H          -0.0827   -1.1208   -1.3788 H.spc      1 <1>        0.000
     11 H          -1.0378    0.2442   -1.9667 H.spc      1 <1>        0.000
     12 H          -1.8987    2.2705   -0.4115 H.spc      1 <1>        0.000
     13 H          -4.0498    3.5267   -0.3192 H.spc      1 <1>        0.000
     14 H          -6.0056   -0.0561    1.0389 H.spc      1 <1>        0.000
     15 H          -6.1469    2.3346    0.3397 H.spc      1 <1>        0.000
@<TRIPOS>BOND
     1    1    2 am 
     2    2    3 1  
     3    2    4 2  
     4    3    6 ar 
     5    5    7 ar 
     6    3    5 ar 
     7    6    8 ar 
     8    7    9 ar 
     9    8    9 ar 
    10    1   10 1  
    11    1   11 1  
    12    5   12 1  
    13    7   13 1  
    14    8   14 1  
    15    9   15 1  
# Name:          frag5-608-96/138278 -- energy: -0.400450
# Creation time: Sat Jun  5 12:53:46 2010


@<TRIPOS>MOLECULE
frag5-608-96/138278 -- energy: -0.400450
   15    15     1     1     1
SMALL
USER_CHARGES


@<TRIPOS>ATOM
      1 N3         -1.7143   -1.8392   -0.4478 N.am       1 <1>        0.000
      2 C18        -1.6273   -0.5165   -0.1716 C.2        1 <1>        0.000
      3 C20        -2.8299    0.3627    0.1174 C.ar       1 <1>        0.000
      4 O7         -0.5421    0.0374   -0.1314 O.2        1 <1>        0.000
      5 C22        -2.7731    1.7424    0.3508 C.ar       1 <1>        0.000
      6 N4         -4.0333   -0.2547    0.1267 N.ar       1 <1>        0.000
      7 C24        -3.9579    2.4778    0.4029 C.ar       1 <1>        0.000
      8 C25        -5.1969    0.4301    0.1833 C.ar       1 <1>        0.000
      9 C26        -5.1866    1.8218    0.2881 C.ar       1 <1>        0.000
     10 H          -0.8677   -2.3801   -0.6242 H.spc      1 <1>        0.000
     11 H          -2.6264   -2.2947   -0.4794 H.spc      1 <1>        0.000
     12 H          -1.8121    2.2374    0.4905 H.spc      1 <1>        0.000
     13 H          -3.9252    3.5596    0.5326 H.spc      1 <1>        0.000
     14 H          -6.1455   -0.1056    0.1470 H.spc      1 <1>        0.000
     15 H          -6.1190    2.3863    0.2806 H.spc      1 <1>        0.000
@<TRIPOS>BOND
     1    1    2 am 
     2    2    3 1  
     3    2    4 2  
     4    3    6 ar 
     5    5    7 ar 
     6    3    5 ar 
     7    6    8 ar 
     8    7    9 ar 
     9    8    9 ar 
    10    1   10 1  
    11    1   11 1  
    12    5   12 1  
    13    7   13 1  
    14    8   14 1  
    15    9   15 1  
# Name:          frag5-608-96/138278 -- energy: -0.479363
# Creation time: Sat Jun  5 12:53:46 2010


@<TRIPOS>MOLECULE
frag5-608-96/138278 -- energy: -0.479363
   15    15     1     1     1
SMALL
USER_CHARGES


@<TRIPOS>ATOM
      1 N3         -1.3832   -1.7098    0.4256 N.am       1 <1>        0.000
      2 C18        -1.6354   -0.5249   -0.1814 C.2        1 <1>        0.000
      3 C20        -2.8471    0.3360    0.1271 C.ar       1 <1>        0.000
      4 O7         -0.8650   -0.0824   -1.0152 O.2        1 <1>        0.000
      5 C22        -2.7980    1.5946    0.7383 C.ar       1 <1>        0.000
      6 N4         -4.0463   -0.1683   -0.2442 N.ar       1 <1>        0.000
      7 C24        -3.9513    2.3782    0.7859 C.ar       1 <1>        0.000
      8 C25        -5.1812    0.5651   -0.2017 C.ar       1 <1>        0.000
      9 C26        -5.1539    1.8732    0.2838 C.ar       1 <1>        0.000
     10 H          -0.5440   -2.2374    0.1854 H.spc      1 <1>        0.000
     11 H          -2.0326   -2.0741    1.1227 H.spc      1 <1>        0.000
     12 H          -1.8672    1.9590    1.1730 H.spc      1 <1>        0.000
     13 H          -3.9146    3.3804    1.2130 H.spc      1 <1>        0.000
     14 H          -6.1204    0.1334   -0.5477 H.spc      1 <1>        0.000
     15 H          -6.0531    2.4891    0.2717 H.spc      1 <1>        0.000
@<TRIPOS>BOND
     1    1    2 am 
     2    2    3 1  
     3    2    4 2  
     4    3    6 ar 
     5    5    7 ar 
     6    3    5 ar 
     7    6    8 ar 
     8    7    9 ar 
     9    8    9 ar 
    10    1   10 1  
    11    1   11 1  
    12    5   12 1  
    13    7   13 1  
    14    8   14 1  
    15    9   15 1  
# Name:          frag5-608-96/138278 -- energy: -0.475085
# Creation time: Sat Jun  5 12:53:46 2010


@<TRIPOS>MOLECULE
frag5-608-96/138278 -- energy: -0.475085
   15    15     1     1     1
SMALL
USER_CHARGES


@<TRIPOS>ATOM
      1 N3         -0.5067   -0.5328    0.5480 N.am       1 <1>        0.000
      2 C18        -1.6510   -0.5472   -0.1804 C.2        1 <1>        0.000
      3 C20        -2.8511    0.3309    0.1278 C.ar       1 <1>        0.000
      4 O7         -1.7567   -1.2792   -1.1466 O.2        1 <1>        0.000
      5 C22        -2.7807    1.6035    0.7068 C.ar       1 <1>        0.000
      6 N4         -4.0594   -0.1737   -0.2115 N.ar       1 <1>        0.000
      7 C24        -3.9266    2.3974    0.7555 C.ar       1 <1>        0.000
      8 C25        -5.1878    0.5720   -0.1674 C.ar       1 <1>        0.000
      9 C26        -5.1417    1.8909    0.2862 C.ar       1 <1>        0.000
     10 H           0.2717   -1.1380    0.2869 H.spc      1 <1>        0.000
     11 H          -0.4247    0.0832    1.3568 H.spc      1 <1>        0.000
     12 H          -1.8393    1.9706    1.1157 H.spc      1 <1>        0.000
     13 H          -3.8745    3.4090    1.1581 H.spc      1 <1>        0.000
     14 H          -6.1364    0.1408   -0.4874 H.spc      1 <1>        0.000
     15 H          -6.0360    2.5140    0.2747 H.spc      1 <1>        0.000
@<TRIPOS>BOND
     1    1    2 am 
     2    2    3 1  
     3    2    4 2  
     4    3    6 ar 
     5    5    7 ar 
     6    3    5 ar 
     7    6    8 ar 
     8    7    9 ar 
     9    8    9 ar 
    10    1   10 1  
    11    1   11 1  
    12    5   12 1  
    13    7   13 1  
    14    8   14 1  
    15    9   15 1  
# Name:          frag5-608-96/138278 -- energy: -0.485359
# Creation time: Sat Jun  5 12:53:46 2010


@<TRIPOS>MOLECULE
frag5-608-96/138278 -- energy: -0.485359
   15    15     1     1     1
SMALL
USER_CHARGES


@<TRIPOS>ATOM
      1 N3         -0.8567   -0.4674   -1.2588 N.am       1 <1>        0.000
      2 C18        -1.6449   -0.5448   -0.1582 C.2        1 <1>        0.000
      3 C20        -2.8225    0.3792    0.0966 C.ar       1 <1>        0.000
      4 O7         -1.4360   -1.3909    0.6916 O.2        1 <1>        0.000
      5 C22        -2.8251    1.7564   -0.1555 C.ar       1 <1>        0.000
      6 N4         -3.9420   -0.2032    0.5836 N.ar       1 <1>        0.000
      7 C24        -4.0245    2.4645   -0.0760 C.ar       1 <1>        0.000
      8 C25        -5.1164    0.4612    0.6785 C.ar       1 <1>        0.000
      9 C26        -5.1935    1.8068    0.3166 C.ar       1 <1>        0.000
     10 H          -0.0827   -1.1208   -1.3788 H.spc      1 <1>        0.000
     11 H          -1.0378    0.2442   -1.9667 H.spc      1 <1>        0.000
     12 H          -1.8987    2.2705   -0.4115 H.spc      1 <1>        0.000
     13 H          -4.0498    3.5267   -0.3192 H.spc      1 <1>        0.000
     14 H          -6.0056   -0.0561    1.0389 H.spc      1 <1>        0.000
     15 H          -6.1469    2.3346    0.3397 H.spc      1 <1>        0.000
@<TRIPOS>BOND
     1    1    2 am 
     2    2    3 1  
     3    2    4 2  
     4    3    6 ar 
     5    5    7 ar 
     6    3    5 ar 
     7    6    8 ar 
     8    7    9 ar 
     9    8    9 ar 
    10    1   10 1  
    11    1   11 1  
    12    5   12 1  
    13    7   13 1  
    14    8   14 1  
    15    9   15 1  
