REMARK  Name = =
REMARK  4 active torsions:
REMARK  status: ('A' for Active; 'I' for Inactive)
REMARK    1  A    between atoms: C_1  and  N_26
REMARK    2  A    between atoms: N_26  and  S_27
REMARK    3  A    between atoms: S_27  and  N_30
REMARK    4  A    between atoms: C_31  and  O_33
REMARK                            x       y       z     vdW  Elec       q    Type
REMARK                         _______ _______ _______ _____ _____    ______ ____
ROOT
ATOM      1  C   UNL     1      49.899 158.308  30.085  0.00  0.00    +0.077 C 
ATOM      2  C   UNL     1      49.153 158.108  28.759  0.00  0.00    +0.017 C 
ATOM      3  C   UNL     1      48.865 156.641  28.780  0.00  0.00    +0.001 C 
ATOM      4  C   UNL     1      50.164 156.072  29.294  0.00  0.00    +0.001 C 
ATOM      5  C   UNL     1      50.664 157.069  30.332  0.00  0.00    +0.016 C 
ATOM      6  C   UNL     1      52.150 157.158  30.296  0.00  0.00    +0.001 C 
ATOM      7  C   UNL     1      52.769 155.767  30.020  0.00  0.00    +0.000 C 
ATOM      8  C   UNL     1      52.492 155.487  28.583  0.00  0.00    +0.001 C 
ATOM      9  C   UNL     1      51.159 156.079  28.163  0.00  0.00    +0.000 C 
ATOM     10  C   UNL     1      51.015 154.870  27.265  0.00  0.00    +0.005 C 
ATOM     11  C   UNL     1      52.000 154.161  28.149  0.00  0.00    +0.015 C 
ATOM     12  C   UNL     1      51.314 153.266  29.119  0.00  0.00    +0.068 C 
ATOM     13  N   UNL     1      51.956 152.024  29.399  0.00  0.00    -0.297 NA
ATOM     14  C   UNL     1      51.566 150.943  28.557  0.00  0.00    +0.069 C 
ATOM     15  C   UNL     1      52.408 150.926  27.300  0.00  0.00    +0.017 C 
ATOM     16  C   UNL     1      52.215 152.270  26.628  0.00  0.00    +0.002 C 
ATOM     17  C   UNL     1      53.010 153.324  27.365  0.00  0.00    +0.009 C 
ATOM     18  C   UNL     1      51.458 155.242  25.898  0.00  0.00    +0.022 C 
ATOM     19  C   UNL     1      52.642 154.569  25.373  0.00  0.00    -0.037 C 
ATOM     20  C   UNL     1      52.755 154.336  24.097  0.00  0.00    +0.034 C 
ATOM     21  C   UNL     1      53.920 153.666  23.543  0.00  0.00    +0.195 C 
ATOM     22  O   UNL     1      54.041 153.433  22.308  0.00  0.00    -0.287 OA
ATOM     23  C   UNL     1      54.976 153.250  24.451  0.00  0.00    +0.038 C 
ATOM     24  C   UNL     1      54.825 153.509  25.746  0.00  0.00    -0.019 C 
ATOM     25  C   UNL     1      53.682 154.182  26.325  0.00  0.00    +0.040 C 
ATOM     26  H   UNL     1      51.743 151.768  30.363  0.00  0.00    +0.123 HD
ENDROOT
BRANCH   1  27
ATOM     27  N   UNL     1      50.677 159.520  30.051  0.00  0.00    -0.168 NA
ATOM     28  H   UNL     1      50.501 160.015  29.177  0.00  0.00    +0.150 HD
BRANCH  27  29
ATOM     29  S   UNL     1      50.222 160.519  31.382  0.00  0.00    +0.114 S 
ATOM     30  O   UNL     1      49.062 161.367  30.874  0.00  0.00    -0.138 OA
ATOM     31  O   UNL     1      49.628 159.690  32.510  0.00  0.00    -0.138 OA
BRANCH  29  32
ATOM     32  N   UNL     1      51.464 161.547  31.930  0.00  0.00    -0.141 N 
ATOM     33  C   UNL     1      52.681 161.709  31.278  0.00  0.00    +0.418 C 
ATOM     34  O   UNL     1      52.902 161.065  30.210  0.00  0.00    -0.225 OA
ATOM     35  H   UNL     1      51.311 162.057  32.758  0.00  0.00    +0.181 HD
BRANCH  33  36
ATOM     36  O   UNL     1      53.715 162.538  31.697  0.00  0.00    -0.465 OA
ATOM     37  H   UNL     1      53.621 163.045  32.479  0.00  0.00    +0.297 HD
ENDBRANCH  33  36
ENDBRANCH  29  32
ENDBRANCH  27  29
ENDBRANCH   1  27
TORSDOF 4
