MODEL 1
REMARK VINA RESULT:   -12.295      0.000      0.000
REMARK INTER + INTRA:         -18.867
REMARK INTER:                 -17.686
REMARK INTRA:                  -1.181
REMARK UNBOUND:                -1.181
REMARK  Name = =
REMARK  8 active torsions:
REMARK  status: ('A' for Active; 'I' for Inactive)
REMARK    1  A    between atoms: C_1  and  C_10
REMARK    2  A    between atoms: C_1  and  N_34
REMARK    3  A    between atoms: C_6  and  C_15
REMARK    4  A    between atoms: C_17  and  O_21
REMARK    5  A    between atoms: C_18  and  O_22
REMARK    6  A    between atoms: O_22  and  C_23
REMARK    7  A    between atoms: N_34  and  O_35
REMARK    8  A    between atoms: O_35  and  S_36
REMARK                            x       y       z     vdW  Elec       q    Type
REMARK                         _______ _______ _______ _____ _____    ______ ____
ROOT
ATOM      1  C   UNL     1      -8.655 -42.548  29.746  0.00  0.00    +0.142 C 
ATOM      2  C   UNL     1      -8.929 -43.694  28.761  0.00  0.00    +0.026 C 
ATOM      3  C   UNL     1      -9.999 -44.442  29.516  0.00  0.00    +0.006 C 
ATOM      4  C   UNL     1     -10.829 -45.358  28.696  0.00  0.00    +0.022 C 
ATOM      5  C   UNL     1     -11.909 -44.546  28.117  0.00  0.00    -0.044 C 
ATOM      6  C   UNL     1     -12.865 -45.059  27.360  0.00  0.00    -0.008 C 
ATOM      7  C   UNL     1     -11.742 -43.155  28.586  0.00  0.00    +0.022 C 
ATOM      8  C   UNL     1     -10.941 -43.325  29.906  0.00  0.00    +0.006 C 
ATOM      9  C   UNL     1     -10.061 -42.118  30.125  0.00  0.00    +0.026 C 
ENDROOT
BRANCH   1  10
ATOM     10  C   UNL     1      -7.974 -43.180  30.896  0.00  0.00    +0.174 A 
ATOM     11  N   UNL     1      -8.252 -42.925  32.182  0.00  0.00    -0.111 NA
ATOM     12  N   UNL     1      -7.438 -43.682  32.887  0.00  0.00    -0.023 NA
ATOM     13  N   UNL     1      -6.675 -44.387  32.076  0.00  0.00    -0.047 NA
ATOM     14  N   UNL     1      -6.999 -44.082  30.818  0.00  0.00    -0.241 N 
ATOM     15  H   UNL     1      -6.596 -44.450  29.999  0.00  0.00    +0.192 HD
ENDBRANCH   1  10
BRANCH   6  16
ATOM     16  C   UNL     1     -13.886 -44.173  26.829  0.00  0.00    +0.003 C 
ATOM     17  C   UNL     1     -14.007 -44.078  25.469  0.00  0.00    +0.040 C 
ATOM     18  C   UNL     1     -14.961 -43.229  24.889  0.00  0.00    +0.168 C 
ATOM     19  C   UNL     1     -15.789 -42.477  25.690  0.00  0.00    +0.173 C 
ATOM     20  C   UNL     1     -15.667 -42.572  27.043  0.00  0.00    +0.040 C 
ATOM     21  C   UNL     1     -14.719 -43.416  27.620  0.00  0.00    +0.003 C 
BRANCH  18  22
ATOM     22  O   UNL     1     -15.011 -43.196  23.515  0.00  0.00    -0.503 OA
ATOM     23  H   UNL     1     -15.509 -42.533  23.079  0.00  0.00    +0.292 HD
ENDBRANCH  18  22
BRANCH  19  24
ATOM     24  O   UNL     1     -16.712 -41.659  25.114  0.00  0.00    -0.461 OA
BRANCH  24  25
ATOM     25  C   UNL     1     -18.079 -41.900  24.909  0.00  0.00    +0.307 C 
ATOM     26  C   UNL     1     -18.890 -41.067  25.830  0.00  0.00    +0.263 C 
ATOM     27  O   UNL     1     -19.809 -41.738  26.635  0.00  0.00    -0.444 OA
ATOM     28  C   UNL     1     -21.113 -42.001  26.364  0.00  0.00    +0.317 C 
ATOM     29  O   UNL     1     -22.028 -41.998  27.220  0.00  0.00    -0.250 OA
ATOM     30  C   UNL     1     -21.511 -42.318  24.961  0.00  0.00    +0.113 C 
ATOM     31  C   UNL     1     -21.696 -41.096  24.132  0.00  0.00    +0.059 C 
ATOM     32  C   UNL     1     -20.832 -41.088  22.891  0.00  0.00    +0.209 C 
ATOM     33  O   UNL     1     -19.681 -41.800  23.045  0.00  0.00    -0.446 OA
ATOM     34  C   UNL     1     -18.425 -41.636  23.441  0.00  0.00    +0.362 C 
ATOM     35  O   UNL     1     -17.439 -41.281  22.744  0.00  0.00    -0.246 OA
ENDBRANCH  24  25
ENDBRANCH  19  24
ENDBRANCH   6  16
BRANCH   1  36
ATOM     36  N   UNL     1      -7.916 -41.474  29.150  0.00  0.00    -0.054 NA
BRANCH  36  37
ATOM     37  O   UNL     1      -8.716 -40.907  28.214  0.00  0.00    -0.147 OA
BRANCH  37  38
ATOM     38  S   UNL     1      -7.916 -40.730  26.761  0.00  0.00    -0.011 S 
ATOM     39  O   UNL     1      -6.841 -39.688  26.860  0.00  0.00    -0.074 OA
ATOM     40  O   UNL     1      -7.223 -42.051  26.484  0.00  0.00    -0.074 OA
ATOM     41  H   UNL     1      -8.804 -40.370  25.796  0.00  0.00    +0.216 HD
ENDBRANCH  37  38
ENDBRANCH  36  37
ENDBRANCH   1  36
TORSDOF 8
ENDMDL
