REMARK  Name = =
REMARK  8 active torsions:
REMARK  status: ('A' for Active; 'I' for Inactive)
REMARK    1  A    between atoms: C_1  and  C_10
REMARK    2  A    between atoms: C_1  and  N_34
REMARK    3  A    between atoms: C_6  and  C_15
REMARK    4  A    between atoms: C_17  and  O_21
REMARK    5  A    between atoms: C_18  and  O_22
REMARK    6  A    between atoms: O_22  and  C_23
REMARK    7  A    between atoms: N_34  and  O_35
REMARK    8  A    between atoms: O_35  and  S_36
REMARK                            x       y       z     vdW  Elec       q    Type
REMARK                         _______ _______ _______ _____ _____    ______ ____
ROOT
ATOM      1  C   UNL     1     -13.015 -43.669  28.740  0.00  0.00    +0.142 C 
ATOM      2  C   UNL     1     -12.879 -42.417  27.861  0.00  0.00    +0.026 C 
ATOM      3  C   UNL     1     -12.754 -43.059  26.503  0.00  0.00    +0.006 C 
ATOM      4  C   UNL     1     -13.048 -42.169  25.352  0.00  0.00    +0.022 C 
ATOM      5  C   UNL     1     -14.504 -42.203  25.153  0.00  0.00    -0.044 C 
ATOM      6  C   UNL     1     -15.109 -41.550  24.174  0.00  0.00    -0.008 C 
ATOM      7  C   UNL     1     -15.087 -43.108  26.164  0.00  0.00    +0.022 C 
ATOM      8  C   UNL     1     -13.901 -44.045  26.520  0.00  0.00    +0.006 C 
ATOM      9  C   UNL     1     -14.021 -44.493  27.957  0.00  0.00    +0.026 C 
ENDROOT
BRANCH   1  10
ATOM     10  C   UNL     1     -11.682 -44.307  28.714  0.00  0.00    +0.174 A 
ATOM     11  N   UNL     1     -11.465 -45.614  28.509  0.00  0.00    -0.111 NA
ATOM     12  N   UNL     1     -10.160 -45.778  28.558  0.00  0.00    -0.023 NA
ATOM     13  N   UNL     1      -9.576 -44.619  28.786  0.00  0.00    -0.047 NA
ATOM     14  N   UNL     1     -10.520 -43.682  28.888  0.00  0.00    -0.241 N 
ATOM     15  H   UNL     1     -10.384 -42.722  29.058  0.00  0.00    +0.192 HD
ENDBRANCH   1  10
BRANCH   6  16
ATOM     16  C   UNL     1     -16.554 -41.640  24.063  0.00  0.00    +0.003 C 
ATOM     17  C   UNL     1     -17.279 -41.760  25.218  0.00  0.00    +0.040 C 
ATOM     18  C   UNL     1     -18.677 -41.868  25.181  0.00  0.00    +0.168 C 
ATOM     19  C   UNL     1     -19.336 -41.856  23.974  0.00  0.00    +0.173 C 
ATOM     20  C   UNL     1     -18.613 -41.738  22.826  0.00  0.00    +0.040 C 
ATOM     21  C   UNL     1     -17.223 -41.630  22.861  0.00  0.00    +0.003 C 
BRANCH  18  22
ATOM     22  O   UNL     1     -19.323 -41.986  26.390  0.00  0.00    -0.503 OA
ATOM     23  H   UNL     1     -18.830 -41.989  27.187  0.00  0.00    +0.292 HD
ENDBRANCH  18  22
BRANCH  19  24
ATOM     24  O   UNL     1     -20.693 -41.960  23.954  0.00  0.00    -0.461 OA
BRANCH  24  25
ATOM     25  C   UNL     1     -21.535 -42.125  22.843  0.00  0.00    +0.307 C 
ATOM     26  C   UNL     1     -22.256 -43.418  22.933  0.00  0.00    +0.263 C 
ATOM     27  O   UNL     1     -22.138 -44.277  21.842  0.00  0.00    -0.444 OA
ATOM     28  C   UNL     1     -22.949 -44.356  20.757  0.00  0.00    +0.317 C 
ATOM     29  O   UNL     1     -23.237 -45.422  20.165  0.00  0.00    -0.250 OA
ATOM     30  C   UNL     1     -23.551 -43.105  20.210  0.00  0.00    +0.113 C 
ATOM     31  C   UNL     1     -24.769 -42.686  20.956  0.00  0.00    +0.059 C 
ATOM     32  C   UNL     1     -24.669 -41.282  21.510  0.00  0.00    +0.209 C 
ATOM     33  O   UNL     1     -23.386 -40.909  21.772  0.00  0.00    -0.446 OA
ATOM     34  C   UNL     1     -22.496 -40.936  22.757  0.00  0.00    +0.362 C 
ATOM     35  O   UNL     1     -22.327 -40.081  23.665  0.00  0.00    -0.246 OA
ENDBRANCH  24  25
ENDBRANCH  19  24
ENDBRANCH   6  16
BRANCH   1  36
ATOM     36  N   UNL     1     -13.490 -43.367  30.058  0.00  0.00    -0.054 NA
BRANCH  36  37
ATOM     37  O   UNL     1     -14.224 -44.428  30.474  0.00  0.00    -0.147 OA
BRANCH  37  38
ATOM     38  S   UNL     1     -13.526 -45.166  31.796  0.00  0.00    -0.011 S 
ATOM     39  O   UNL     1     -12.602 -44.226  32.514  0.00  0.00    -0.074 OA
ATOM     40  O   UNL     1     -14.654 -45.492  32.757  0.00  0.00    -0.074 OA
ATOM     41  H   UNL     1     -12.827 -46.259  31.388  0.00  0.00    +0.216 HD
ENDBRANCH  37  38
ENDBRANCH  36  37
ENDBRANCH   1  36
TORSDOF 8
