REMARK  Name = =
REMARK  10 active torsions:
REMARK  status: ('A' for Active; 'I' for Inactive)
REMARK    1  A    between atoms: C_1  and  C_6
REMARK    2  A    between atoms: C_1  and  C_27
REMARK    3  A    between atoms: C_7  and  N_16
REMARK    4  A    between atoms: N_16  and  C_19
REMARK    5  A    between atoms: C_22  and  O_25
REMARK    6  A    between atoms: C_26  and  O_32
REMARK    7  A    between atoms: O_32  and  N_33
REMARK    8  A    between atoms: N_33  and  C_34
REMARK    9  A    between atoms: C_34  and  C_35
REMARK   10  A    between atoms: C_36  and  O_47
REMARK                            x       y       z     vdW  Elec       q    Type
REMARK                         _______ _______ _______ _____ _____    ______ ____
ROOT
ATOM      1  C   UNL     1     -10.121 -43.047  29.107  0.00  0.00    +0.043 C 
ATOM      2  C   UNL     1     -10.599 -41.783  28.335  0.00  0.00    +0.008 C 
ATOM      3  C   UNL     1      -9.616 -41.023  27.972  0.00  0.00    +0.001 C 
ATOM      4  C   UNL     1      -8.321 -41.558  28.387  0.00  0.00    +0.001 C 
ATOM      5  C   UNL     1      -8.677 -42.935  28.873  0.00  0.00    +0.008 C 
ENDROOT
BRANCH   1   6
ATOM      6  C   UNL     1     -10.532 -42.718  30.495  0.00  0.00    -0.005 C 
ATOM      7  C   UNL     1      -9.744 -42.991  31.618  0.00  0.00    +0.055 C 
ATOM      8  C   UNL     1     -10.107 -42.521  32.903  0.00  0.00    +0.014 C 
ATOM      9  C   UNL     1     -11.275 -41.785  33.053  0.00  0.00    +0.001 C 
ATOM     10  C   UNL     1     -12.061 -41.514  31.975  0.00  0.00    -0.000 C 
ATOM     11  C   UNL     1     -11.683 -41.973  30.742  0.00  0.00    -0.003 C 
ATOM     12  C   UNL     1     -11.750 -41.256  34.364  0.00  0.00    +0.000 C 
ATOM     13  C   UNL     1     -10.805 -41.396  35.486  0.00  0.00    +0.000 C 
ATOM     14  C   UNL     1      -9.611 -42.178  35.211  0.00  0.00    +0.000 C 
ATOM     15  C   UNL     1      -9.247 -42.711  34.058  0.00  0.00    +0.001 C 
BRANCH   7  16
ATOM     16  N   UNL     1      -8.618 -43.844  31.546  0.00  0.00    -0.230 N 
ATOM     17  C   UNL     1      -8.579 -45.069  30.924  0.00  0.00    +0.311 C 
ATOM     18  O   UNL     1      -7.608 -45.899  30.981  0.00  0.00    -0.264 OA
BRANCH  16  19
ATOM     19  C   UNL     1      -7.361 -43.438  32.105  0.00  0.00    +0.059 C 
ATOM     20  C   UNL     1      -6.848 -43.969  33.275  0.00  0.00    +0.018 C 
ATOM     21  C   UNL     1      -5.637 -43.530  33.767  0.00  0.00    +0.038 C 
ATOM     22  C   UNL     1      -4.882 -42.569  33.146  0.00  0.00    +0.134 C 
ATOM     23  C   UNL     1      -5.414 -42.050  31.969  0.00  0.00    +0.038 C 
ATOM     24  C   UNL     1      -6.612 -42.478  31.476  0.00  0.00    +0.018 C 
BRANCH  22  25
ATOM     25  O   UNL     1      -3.669 -42.134  33.644  0.00  0.00    -0.506 OA
ATOM     26  H   UNL     1      -3.331 -42.498  34.438  0.00  0.00    +0.292 HD
ENDBRANCH  22  25
ENDBRANCH  16  19
ENDBRANCH   7  16
ENDBRANCH   1   6
BRANCH   1  28
ATOM     27  C   UNL     1     -12.033 -43.822  27.675  0.00  0.00    +0.164 C 
ATOM     28  C   UNL     1     -10.913 -44.046  28.396  0.00  0.00    +0.037 C 
ATOM     29  C   UNL     1     -10.544 -45.373  28.616  0.00  0.00    +0.098 C 
ATOM     30  N   UNL     1     -11.271 -46.385  28.128  0.00  0.00    -0.242 NA
ATOM     31  C   UNL     1     -12.390 -46.190  27.407  0.00  0.00    +0.102 C 
ATOM     32  C   UNL     1     -12.776 -44.892  27.178  0.00  0.00    +0.060 C 
BRANCH  27  33
ATOM     33  O   UNL     1     -12.457 -42.570  27.419  0.00  0.00    -0.405 OA
BRANCH  33  34
ATOM     34  N   UNL     1     -13.644 -42.141  26.864  0.00  0.00    -0.140 NA
ATOM     35  H   UNL     1     -13.852 -41.198  27.194  0.00  0.00    +0.168 HD
BRANCH  34  36
ATOM     36  C   UNL     1     -14.723 -43.044  27.259  0.00  0.00    +0.142 C 
BRANCH  36  37
ATOM     37  C   UNL     1     -16.004 -42.512  26.786  0.00  0.00    +0.073 C 
ATOM     38  C   UNL     1     -16.945 -42.163  27.633  0.00  0.00    +0.173 C 
ATOM     39  C   UNL     1     -18.220 -41.630  27.148  0.00  0.00    +0.229 C 
ATOM     40  O   UNL     1     -19.096 -41.309  27.993  0.00  0.00    -0.283 OA
ATOM     41  C   UNL     1     -18.410 -41.499  25.719  0.00  0.00    +0.045 C 
ATOM     42  C   UNL     1     -17.428 -41.864  24.831  0.00  0.00    +0.042 C 
ATOM     43  C   UNL     1     -17.578 -41.751  23.462  0.00  0.00    +0.003 C 
ATOM     44  C   UNL     1     -18.774 -41.250  23.003  0.00  0.00    +0.000 C 
ATOM     45  C   UNL     1     -19.793 -40.869  23.859  0.00  0.00    +0.000 C 
ATOM     46  C   UNL     1     -19.584 -41.005  25.216  0.00  0.00    +0.003 C 
ATOM     47  C   UNL     1     -16.187 -42.384  25.341  0.00  0.00    +0.196 C 
ATOM     48  O   UNL     1     -15.227 -42.746  24.587  0.00  0.00    -0.287 OA
BRANCH  38  49
ATOM     49  O   UNL     1     -16.804 -42.274  29.023  0.00  0.00    -0.503 OA
ATOM     50  H   UNL     1     -16.009 -42.609  29.388  0.00  0.00    +0.292 HD
ENDBRANCH  38  49
ENDBRANCH  36  37
ENDBRANCH  34  36
ENDBRANCH  33  34
ENDBRANCH  27  33
ENDBRANCH   1  28
TORSDOF 10
