REMARK  Name = =
REMARK  2 active torsions:
REMARK  status: ('A' for Active; 'I' for Inactive)
REMARK    1  A    between atoms: C_1  and  C_8
REMARK    2  A    between atoms: C_2  and  O_10
REMARK                            x       y       z     vdW  Elec       q    Type
REMARK                         _______ _______ _______ _____ _____    ______ ____
ROOT
ATOM      1  C   UNL     1      49.390 157.050  28.346  0.00  0.00    +0.087 C 
ATOM      2  C   UNL     1      48.455 158.058  28.344  0.00  0.00    +0.138 C 
ATOM      3  C   UNL     1      47.115 157.763  28.686  0.00  0.00    +0.037 C 
ATOM      4  C   UNL     1      46.741 156.489  29.018  0.00  0.00    +0.003 C 
ATOM      5  C   UNL     1      47.658 155.459  29.029  0.00  0.00    +0.000 C 
ATOM      6  C   UNL     1      48.953 155.758  28.695  0.00  0.00    +0.008 C 
ENDROOT
BRANCH   1   8
ATOM      7  N   UNL     1      51.684 156.172  28.035  0.00  0.00    -0.325 N 
ATOM      8  C   UNL     1      50.771 157.273  28.009  0.00  0.00    +0.246 C 
ATOM      9  O   UNL     1      51.227 158.368  27.695  0.00  0.00    -0.270 OA
ATOM     10  H   UNL     1      51.365 155.274  28.281  0.00  0.00    +0.145 HD
ATOM     11  H   UNL     1      52.631 156.313  27.807  0.00  0.00    +0.145 HD
ENDBRANCH   1   8
BRANCH   2  12
ATOM     12  O   UNL     1      48.748 159.352  28.025  0.00  0.00    -0.505 OA
ATOM     13  H   UNL     1      49.624 159.590  27.792  0.00  0.00    +0.292 HD
ENDBRANCH   2  12
TORSDOF 2
