REMARK  Name = =
REMARK  3 active torsions:
REMARK  status: ('A' for Active; 'I' for Inactive)
REMARK    1  A    between atoms: N_1  and  C_14
REMARK    2  A    between atoms: C_2  and  C_4
REMARK    3  A    between atoms: C_5  and  O_10
REMARK                            x       y       z     vdW  Elec       q    Type
REMARK                         _______ _______ _______ _____ _____    ______ ____
ROOT
ATOM      1  N   UNL     1      47.854 159.415  28.201  0.00  0.00    -0.290 N 
ATOM      2  C   UNL     1      47.768 158.042  28.492  0.00  0.00    +0.250 C 
ATOM      3  O   UNL     1      46.627 157.572  28.827  0.00  0.00    -0.270 OA
ATOM      4  H   UNL     1      48.719 159.805  27.940  0.00  0.00    +0.151 HD
ENDROOT
BRANCH   2   5
ATOM      5  C   UNL     1      48.885 157.132  28.437  0.00  0.00    +0.087 C 
ATOM      6  C   UNL     1      48.726 155.791  28.737  0.00  0.00    +0.138 C 
ATOM      7  C   UNL     1      49.756 154.892  28.697  0.00  0.00    +0.037 C 
ATOM      8  C   UNL     1      51.017 155.329  28.343  0.00  0.00    +0.003 C 
ATOM      9  C   UNL     1      51.217 156.657  28.037  0.00  0.00    +0.000 C 
ATOM     10  C   UNL     1      50.145 157.560  28.085  0.00  0.00    +0.008 C 
BRANCH   6  11
ATOM     11  O   UNL     1      47.463 155.362  29.089  0.00  0.00    -0.505 OA
ATOM     12  H   UNL     1      46.752 155.972  29.119  0.00  0.00    +0.292 HD
ENDBRANCH   6  11
ENDBRANCH   2   5
BRANCH   1  16
ATOM     13  N   UNL     1      46.539 161.092  27.102  0.00  0.00    -0.283 NA
ATOM     14  C   UNL     1      46.427 162.277  27.892  0.00  0.00    +0.073 C 
ATOM     15  C   UNL     1      46.942 161.508  29.085  0.00  0.00    +0.053 C 
ATOM     16  C   UNL     1      46.681 160.261  28.282  0.00  0.00    +0.131 C 
ATOM     17  H   UNL     1      47.357 161.082  26.493  0.00  0.00    +0.125 HD
ENDBRANCH   1  16
TORSDOF 3
