REMARK  Name = =
REMARK  6 active torsions:
REMARK  status: ('A' for Active; 'I' for Inactive)
REMARK    1  A    between atoms: N_1  and  C_10
REMARK    2  A    between atoms: C_4  and  N_15
REMARK    3  A    between atoms: C_5  and  O_11
REMARK    4  A    between atoms: O_11  and  C_13
REMARK    5  A    between atoms: C_16  and  C_18
REMARK    6  A    between atoms: C_19  and  O_24
REMARK                            x       y       z     vdW  Elec       q    Type
REMARK                         _______ _______ _______ _____ _____    ______ ____
ROOT
ATOM      1  N   UNL     1      53.056 157.092  28.218  0.00  0.00    -0.291 N 
ATOM      2  C   UNL     1      53.755 156.969  29.477  0.00  0.00    +0.096 C 
ATOM      3  C   UNL     1      53.749 158.463  29.637  0.00  0.00    +0.062 C 
ATOM      4  C   UNL     1      52.631 158.407  28.620  0.00  0.00    +0.151 C 
ENDROOT
BRANCH   1  10
ATOM      5  C   UNL     1      52.002 155.174  27.154  0.00  0.00    +0.163 C 
ATOM      6  C   UNL     1      51.840 154.297  26.113  0.00  0.00    +0.039 C 
ATOM      7  C   UNL     1      52.605 154.422  24.975  0.00  0.00    +0.003 C 
ATOM      8  C   UNL     1      53.522 155.435  24.914  0.00  0.00    +0.001 C 
ATOM      9  C   UNL     1      53.672 156.307  25.969  0.00  0.00    +0.018 C 
ATOM     10  C   UNL     1      52.923 156.211  27.122  0.00  0.00    +0.084 C 
BRANCH   5  11
ATOM     11  O   UNL     1      51.232 155.050  28.302  0.00  0.00    -0.409 OA
BRANCH  11  13
ATOM     12  N   UNL     1      51.384 154.480  30.673  0.00  0.00    -0.295 N 
ATOM     13  C   UNL     1      51.594 154.165  29.309  0.00  0.00    +0.403 C 
ATOM     14  O   UNL     1      52.123 153.058  29.013  0.00  0.00    -0.226 OA
ATOM     15  H   UNL     1      50.973 155.339  30.922  0.00  0.00    +0.148 HD
ATOM     16  H   UNL     1      51.649 153.840  31.372  0.00  0.00    +0.148 HD
ENDBRANCH  11  13
ENDBRANCH   5  11
ENDBRANCH   1  10
BRANCH   4  17
ATOM     17  N   UNL     1      51.347 158.428  29.342  0.00  0.00    -0.287 N 
ATOM     18  C   UNL     1      50.862 159.593  29.967  0.00  0.00    +0.250 C 
ATOM     19  O   UNL     1      51.635 160.610  29.845  0.00  0.00    -0.270 OA
ATOM     20  H   UNL     1      50.812 157.603  29.389  0.00  0.00    +0.151 HD
BRANCH  18  21
ATOM     21  C   UNL     1      49.619 159.737  30.704  0.00  0.00    +0.087 C 
ATOM     22  C   UNL     1      48.616 158.815  30.749  0.00  0.00    +0.138 C 
ATOM     23  C   UNL     1      47.488 159.075  31.485  0.00  0.00    +0.037 C 
ATOM     24  C   UNL     1      47.318 160.244  32.195  0.00  0.00    +0.003 C 
ATOM     25  C   UNL     1      48.342 161.176  32.144  0.00  0.00    +0.000 C 
ATOM     26  C   UNL     1      49.465 160.938  31.421  0.00  0.00    +0.008 C 
BRANCH  22  27
ATOM     27  O   UNL     1      48.726 157.626  30.061  0.00  0.00    -0.505 OA
ATOM     28  H   UNL     1      49.495 157.446  29.557  0.00  0.00    +0.292 HD
ENDBRANCH  22  27
ENDBRANCH  18  21
ENDBRANCH   4  17
TORSDOF 6
