REMARK  Name = =
REMARK  0 active torsions:
REMARK  status: ('A' for Active; 'I' for Inactive)
REMARK                            x       y       z     vdW  Elec       q    Type
REMARK                         _______ _______ _______ _____ _____    ______ ____
ROOT
ATOM      1  C   UNL     1      51.805 156.174  29.292  0.00  0.00    +0.466 C 
ATOM      2  O   UNL     1      51.728 154.999  28.855  0.00  0.00    -0.233 OA
ATOM      3  O   UNL     1      52.909 156.989  29.130  0.00  0.00    -0.233 OA
ENDROOT
TORSDOF 0
