REMARK  Name = =
REMARK  0 active torsions:
REMARK  status: ('A' for Active; 'I' for Inactive)
REMARK                            x       y       z     vdW  Elec       q    Type
REMARK                         _______ _______ _______ _____ _____    ______ ____
ROOT
ATOM      1  N   UNL     1      51.911 155.557  29.490  0.00  0.00    -0.189 N 
ATOM      2  N   UNL     1      52.248 156.755  29.048  0.00  0.00    -0.160 NA
ATOM      3  C   UNL     1      52.820 156.703  27.833  0.00  0.00    +0.186 C 
ATOM      4  N   UNL     1      52.835 155.378  27.512  0.00  0.00    -0.249 N 
ATOM      5  C   UNL     1      52.280 154.703  28.530  0.00  0.00    +0.325 C 
ATOM      6  O   UNL     1      52.141 153.463  28.553  0.00  0.00    -0.251 OA
ATOM      7  H   UNL     1      51.479 155.339  30.347  0.00  0.00    +0.179 HD
ATOM      8  H   UNL     1      53.190 154.986  26.681  0.00  0.00    +0.158 HD
ENDROOT
TORSDOF 0
