REMARK  Name = =
REMARK  1 active torsions:
REMARK  status: ('A' for Active; 'I' for Inactive)
REMARK    1  A    between atoms: C_1  and  N_17
REMARK                            x       y       z     vdW  Elec       q    Type
REMARK                         _______ _______ _______ _____ _____    ______ ____
ROOT
ATOM      1  C   UNL     1      53.163 154.853  27.274  0.00  0.00    +0.125 C 
ATOM      2  C   UNL     1      52.556 156.001  27.998  0.00  0.00    -0.003 C 
ATOM      3  C   UNL     1      53.035 157.252  27.673  0.00  0.00    -0.021 C 
ATOM      4  C   UNL     1      52.492 158.348  28.329  0.00  0.00    +0.036 C 
ATOM      5  C   UNL     1      51.491 158.184  29.288  0.00  0.00    +0.176 C 
ATOM      6  C   UNL     1      51.013 156.929  29.612  0.00  0.00    +0.176 C 
ATOM      7  C   UNL     1      51.567 155.834  28.946  0.00  0.00    +0.037 C 
ATOM      8  O   UNL     1      50.039 157.102  30.584  0.00  0.00    -0.435 OA
ATOM      9  C   UNL     1      49.749 158.484  30.741  0.00  0.00    +0.429 C 
ATOM     10  O   UNL     1      50.809 159.124  30.062  0.00  0.00    -0.435 OA
ATOM     11  C   UNL     1      54.100 157.351  26.644  0.00  0.00    +0.029 C 
ATOM     12  C   UNL     1      53.916 156.399  25.511  0.00  0.00    +0.038 C 
ATOM     13  C   UNL     1      53.111 155.184  25.814  0.00  0.00    +0.057 C 
ATOM     14  C   UNL     1      53.746 154.137  24.944  0.00  0.00    +0.144 C 
ATOM     15  O   UNL     1      55.000 154.548  24.598  0.00  0.00    -0.354 OA
ATOM     16  C   UNL     1      55.230 155.814  25.047  0.00  0.00    +0.143 C 
ENDROOT
BRANCH   1  17
ATOM     17  N   UNL     1      52.533 153.603  27.600  0.00  0.00    -0.161 N 
ATOM     18  N   UNL     1      53.105 152.663  28.336  0.00  0.00    -0.156 NA
ATOM     19  C   UNL     1      52.242 151.619  28.450  0.00  0.00    +0.187 C 
ATOM     20  N   UNL     1      51.147 151.957  27.767  0.00  0.00    -0.249 N 
ATOM     21  C   UNL     1      51.313 153.179  27.238  0.00  0.00    +0.328 C 
ATOM     22  O   UNL     1      50.528 153.851  26.533  0.00  0.00    -0.250 OA
ATOM     23  H   UNL     1      50.343 151.398  27.667  0.00  0.00    +0.158 HD
ENDBRANCH   1  17
TORSDOF 1
