REMARK  Name = =
REMARK  1 active torsions:
REMARK  status: ('A' for Active; 'I' for Inactive)
REMARK    1  A    between atoms: C_1  and  C_7
REMARK                            x       y       z     vdW  Elec       q    Type
REMARK                         _______ _______ _______ _____ _____    ______ ____
ROOT
ATOM      1  C   UNL     1      51.895 157.107  28.419  0.00  0.00    +0.111 C 
ATOM      2  C   UNL     1      50.538 157.610  28.804  0.00  0.00    +0.076 C 
ATOM      3  C   UNL     1      50.874 158.542  29.913  0.00  0.00    +0.151 C 
ATOM      4  O   UNL     1      50.050 158.921  30.789  0.00  0.00    -0.296 OA
ATOM      5  C   UNL     1      52.279 158.897  29.769  0.00  0.00    +0.065 C 
ATOM      6  C   UNL     1      52.884 158.091  28.921  0.00  0.00    +0.019 C 
ENDROOT
BRANCH   1   7
ATOM      7  C   UNL     1      52.167 155.831  29.160  0.00  0.00    +0.365 C 
ATOM      8  O   UNL     1      53.121 155.140  28.729  0.00  0.00    -0.246 OA
ATOM      9  O   UNL     1      51.391 155.488  30.234  0.00  0.00    -0.246 OA
ENDBRANCH   1   7
TORSDOF 1
