REMARK  Name = =
REMARK  2 active torsions:
REMARK  status: ('A' for Active; 'I' for Inactive)
REMARK    1  A    between atoms: C_1  and  C_7
REMARK    2  A    between atoms: C_1  and  C_12
REMARK                            x       y       z     vdW  Elec       q    Type
REMARK                         _______ _______ _______ _____ _____    ______ ____
ROOT
ATOM      1  C   UNL     1      52.256 153.953  27.619  0.00  0.00    +0.171 C 
ATOM      2  C   UNL     1      51.098 154.734  28.194  0.00  0.00    +0.084 C 
ATOM      3  C   UNL     1      51.850 155.876  28.833  0.00  0.00    +0.152 C 
ATOM      4  O   UNL     1      51.504 157.063  28.908  0.00  0.00    -0.296 OA
ATOM      5  C   UNL     1      53.071 155.217  29.329  0.00  0.00    +0.066 C 
ATOM      6  C   UNL     1      53.296 154.124  28.634  0.00  0.00    +0.028 C 
ENDROOT
BRANCH   1   7
ATOM      7  C   UNL     1      52.763 154.615  26.369  0.00  0.00    +0.236 C 
ATOM      8  O   UNL     1      53.491 155.701  26.298  0.00  0.00    -0.415 OA
ATOM      9  C   UNL     1      53.753 155.998  25.053  0.00  0.00    +0.306 C 
ATOM     10  N   UNL     1      53.154 155.046  24.321  0.00  0.00    -0.102 NA
ATOM     11  N   UNL     1      52.538 154.184  25.124  0.00  0.00    -0.111 NA
ENDBRANCH   1   7
BRANCH   1  12
ATOM     12  C   UNL     1      51.917 152.553  27.339  0.00  0.00    +0.373 C 
ATOM     13  O   UNL     1      52.028 151.642  28.196  0.00  0.00    -0.245 OA
ATOM     14  O   UNL     1      51.455 152.227  26.077  0.00  0.00    -0.245 OA
ENDBRANCH   1  12
TORSDOF 2
