REMARK  Name = =
REMARK  2 active torsions:
REMARK  status: ('A' for Active; 'I' for Inactive)
REMARK    1  A    between atoms: C_1  and  N_17
REMARK    2  A    between atoms: C_1  and  C_25
REMARK                            x       y       z     vdW  Elec       q    Type
REMARK                         _______ _______ _______ _____ _____    ______ ____
ROOT
ATOM      1  C   UNL     1      54.265 153.343  26.638  0.00  0.00    +0.140 C 
ATOM      2  C   UNL     1      53.440 154.399  27.292  0.00  0.00    +0.000 C 
ATOM      3  C   UNL     1      53.273 155.639  26.791  0.00  0.00    -0.021 C 
ATOM      4  C   UNL     1      52.494 156.565  27.453  0.00  0.00    +0.036 C 
ATOM      5  C   UNL     1      51.861 156.245  28.657  0.00  0.00    +0.176 C 
ATOM      6  C   UNL     1      52.036 154.982  29.163  0.00  0.00    +0.176 C 
ATOM      7  C   UNL     1      52.814 154.062  28.497  0.00  0.00    +0.038 C 
ATOM      8  O   UNL     1      51.295 154.964  30.350  0.00  0.00    -0.435 OA
ATOM      9  C   UNL     1      50.321 155.988  30.286  0.00  0.00    +0.429 C 
ATOM     10  O   UNL     1      51.035 156.971  29.518  0.00  0.00    -0.435 OA
ATOM     11  C   UNL     1      53.904 156.041  25.541  0.00  0.00    +0.029 C 
ATOM     12  C   UNL     1      54.793 155.083  24.881  0.00  0.00    +0.039 C 
ATOM     13  C   UNL     1      55.116 153.821  25.544  0.00  0.00    +0.060 C 
ATOM     14  C   UNL     1      55.414 152.896  24.426  0.00  0.00    +0.145 C 
ATOM     15  O   UNL     1      55.213 153.596  23.230  0.00  0.00    -0.354 OA
ATOM     16  C   UNL     1      54.351 154.644  23.496  0.00  0.00    +0.143 C 
ENDROOT
BRANCH   1  17
ATOM     17  N   UNL     1      53.378 152.245  26.309  0.00  0.00    -0.158 N 
ATOM     18  N   UNL     1      53.571 150.949  26.377  0.00  0.00    -0.156 NA
ATOM     19  C   UNL     1      52.498 150.257  25.978  0.00  0.00    +0.187 C 
ATOM     20  N   UNL     1      51.570 151.172  25.637  0.00  0.00    -0.249 N 
ATOM     21  C   UNL     1      52.108 152.372  25.840  0.00  0.00    +0.328 C 
ATOM     22  O   UNL     1      51.523 153.470  25.628  0.00  0.00    -0.250 OA
ATOM     23  H   UNL     1      50.663 150.987  25.301  0.00  0.00    +0.158 HD
ENDBRANCH   1  17
BRANCH   1  26
ATOM     24  S   UNL     1      56.278 152.209  29.957  0.00  0.00    +0.013 S 
ATOM     25  N   UNL     1      54.845 152.965  29.079  0.00  0.00    -0.212 NA
ATOM     26  C   UNL     1      55.206 152.816  27.713  0.00  0.00    +0.089 C 
ATOM     27  C   UNL     1      56.374 152.225  27.513  0.00  0.00    +0.026 C 
ATOM     28  C   UNL     1      57.132 151.810  28.544  0.00  0.00    +0.056 C 
ENDBRANCH   1  26
TORSDOF 2
