REMARK  Name = =
REMARK  3 active torsions:
REMARK  status: ('A' for Active; 'I' for Inactive)
REMARK    1  A    between atoms: C_1  and  N_17
REMARK    2  A    between atoms: C_1  and  C_25
REMARK    3  A    between atoms: S_23  and  C_28
REMARK                            x       y       z     vdW  Elec       q    Type
REMARK                         _______ _______ _______ _____ _____    ______ ____
ROOT
ATOM      1  C   UNL     1      53.376 152.667  27.278  0.00  0.00    +0.140 C 
ATOM      2  C   UNL     1      53.706 153.493  26.099  0.00  0.00    +0.000 C 
ATOM      3  C   UNL     1      53.630 153.052  24.806  0.00  0.00    -0.021 C 
ATOM      4  C   UNL     1      53.958 153.890  23.755  0.00  0.00    +0.036 C 
ATOM      5  C   UNL     1      54.369 155.186  23.950  0.00  0.00    +0.176 C 
ATOM      6  C   UNL     1      54.446 155.635  25.249  0.00  0.00    +0.176 C 
ATOM      7  C   UNL     1      54.122 154.807  26.299  0.00  0.00    +0.038 C 
ATOM      8  O   UNL     1      54.878 156.949  25.175  0.00  0.00    -0.435 OA
ATOM      9  C   UNL     1      55.504 157.132  23.941  0.00  0.00    +0.429 C 
ATOM     10  O   UNL     1      54.758 156.243  23.105  0.00  0.00    -0.435 OA
ATOM     11  C   UNL     1      53.205 151.694  24.486  0.00  0.00    +0.029 C 
ATOM     12  C   UNL     1      53.576 150.779  25.634  0.00  0.00    +0.039 C 
ATOM     13  C   UNL     1      53.045 151.264  26.961  0.00  0.00    +0.060 C 
ATOM     14  C   UNL     1      51.575 150.964  26.795  0.00  0.00    +0.145 C 
ATOM     15  O   UNL     1      51.580 149.716  26.226  0.00  0.00    -0.354 OA
ATOM     16  C   UNL     1      52.692 149.535  25.454  0.00  0.00    +0.143 C 
ENDROOT
BRANCH   1  17
ATOM     17  N   UNL     1      54.591 152.649  28.111  0.00  0.00    -0.158 N 
ATOM     18  N   UNL     1      54.613 152.798  29.435  0.00  0.00    -0.156 NA
ATOM     19  C   UNL     1      55.870 152.730  29.880  0.00  0.00    +0.187 C 
ATOM     20  N   UNL     1      56.669 152.536  28.837  0.00  0.00    -0.249 N 
ATOM     21  C   UNL     1      55.858 152.488  27.743  0.00  0.00    +0.328 C 
ATOM     22  O   UNL     1      56.248 152.315  26.559  0.00  0.00    -0.250 OA
ATOM     23  H   UNL     1      57.649 152.445  28.851  0.00  0.00    +0.158 HD
ENDBRANCH   1  17
BRANCH   1  26
ATOM     24  S   UNL     1      50.390 154.716  28.873  0.00  0.00    -0.081 S 
ATOM     25  N   UNL     1      51.473 154.136  27.558  0.00  0.00    -0.230 NA
ATOM     26  C   UNL     1      52.307 153.343  28.115  0.00  0.00    +0.088 C 
ATOM     27  C   UNL     1      52.181 153.139  29.509  0.00  0.00    +0.024 C 
ATOM     28  C   UNL     1      51.231 153.762  30.141  0.00  0.00    +0.036 C 
ATOM     29  H   UNL     1      49.050 154.529  28.737  0.00  0.00    +0.116 HD
BRANCH  24  30
ATOM     30  C   UNL     1      50.142 156.386  29.074  0.00  0.00    +0.123 C 
ATOM     31  N   UNL     1      50.885 157.078  29.850  0.00  0.00    -0.290 NA
ATOM     32  H   UNL     1      50.725 158.044  29.953  0.00  0.00    +0.187 HD
ENDBRANCH  24  30
ENDBRANCH   1  26
TORSDOF 3
