REMARK  Name = =
REMARK  3 active torsions:
REMARK  status: ('A' for Active; 'I' for Inactive)
REMARK    1  A    between atoms: C_1  and  C_13
REMARK    2  A    between atoms: C_3  and  C_6
REMARK    3  A    between atoms: C_13  and  C_19
REMARK                            x       y       z     vdW  Elec       q    Type
REMARK                         _______ _______ _______ _____ _____    ______ ____
ROOT
ATOM      1  C   UNL     1      51.661 154.973  28.417  0.00  0.00    +0.236 A 
ATOM      2  O   UNL     1      50.810 155.970  28.412  0.00  0.00    -0.418 OA
ATOM      3  C   UNL     1      50.495 156.322  29.617  0.00  0.00    +0.269 A 
ATOM      4  N   UNL     1      51.180 155.506  30.431  0.00  0.00    -0.106 NA
ATOM      5  N   UNL     1      51.901 154.671  29.706  0.00  0.00    -0.111 NA
ENDROOT
BRANCH   3   6
ATOM      6  C   UNL     1      49.595 157.372  30.067  0.00  0.00    +0.154 C 
ATOM      7  N   UNL     1      49.540 157.794  31.338  0.00  0.00    -0.174 NA
ATOM      8  N   UNL     1      48.716 158.748  31.728  0.00  0.00    -0.202 N 
ATOM      9  C   UNL     1      47.894 159.334  30.843  0.00  0.00    +0.265 C 
ATOM     10  O   UNL     1      47.094 160.263  31.231  0.00  0.00    -0.268 OA
ATOM     11  C   UNL     1      47.913 158.936  29.530  0.00  0.00    +0.061 C 
ATOM     12  C   UNL     1      48.769 157.945  29.127  0.00  0.00    +0.030 C 
ATOM     13  H   UNL     1      48.704 159.031  32.671  0.00  0.00    +0.178 HD
ENDBRANCH   3   6
BRANCH   1  14
ATOM     14  C   UNL     1      52.283 154.259  27.274  0.00  0.00    +0.171 C 
ATOM     15  C   UNL     1      53.694 154.736  27.014  0.00  0.00    +0.084 C 
ATOM     16  C   UNL     1      53.839 154.397  25.578  0.00  0.00    +0.152 C 
ATOM     17  O   UNL     1      54.871 154.002  25.008  0.00  0.00    -0.296 OA
ATOM     18  C   UNL     1      52.512 154.638  25.027  0.00  0.00    +0.066 C 
ATOM     19  C   UNL     1      51.607 154.562  25.992  0.00  0.00    +0.028 C 
BRANCH  14  20
ATOM     20  C   UNL     1      52.225 152.791  27.449  0.00  0.00    +0.373 C 
ATOM     21  O   UNL     1      51.665 152.237  28.422  0.00  0.00    -0.245 OA
ATOM     22  O   UNL     1      52.823 152.005  26.480  0.00  0.00    -0.245 OA
ENDBRANCH  14  20
ENDBRANCH   1  14
TORSDOF 3
