REMARK  Name = =
REMARK  5 active torsions:
REMARK  status: ('A' for Active; 'I' for Inactive)
REMARK    1  A    between atoms: C_1  and  N_20
REMARK    2  A    between atoms: C_1  and  S_26
REMARK    3  A    between atoms: C_5  and  C_10
REMARK    4  A    between atoms: C_8  and  O_25
REMARK    5  A    between atoms: S_26  and  C_27
REMARK                            x       y       z     vdW  Elec       q    Type
REMARK                         _______ _______ _______ _____ _____    ______ ____
ROOT
ATOM      1  C   UNL     1     -20.337 -41.302  25.057  0.00  0.00    +0.188 C 
ATOM      2  C   UNL     1     -19.083 -41.559  25.796  0.00  0.00    +0.046 C 
ATOM      3  C   UNL     1     -19.218 -41.075  27.076  0.00  0.00    +0.138 C 
ATOM      4  O   UNL     1     -20.496 -40.522  27.193  0.00  0.00    -0.472 OA
ATOM      5  C   UNL     1     -21.120 -40.380  25.942  0.00  0.00    +0.220 C 
ATOM      6  C   UNL     1     -18.163 -41.204  27.956  0.00  0.00    +0.040 C 
ATOM      7  C   UNL     1     -16.962 -41.809  27.592  0.00  0.00    +0.040 C 
ATOM      8  C   UNL     1     -16.844 -42.287  26.310  0.00  0.00    +0.134 C 
ATOM      9  C   UNL     1     -17.903 -42.157  25.428  0.00  0.00    +0.038 C 
ENDROOT
BRANCH   5  10
ATOM     10  C   UNL     1     -22.568 -40.778  26.009  0.00  0.00    +0.022 C 
ATOM     11  C   UNL     1     -23.186 -40.985  27.223  0.00  0.00    +0.018 C 
ATOM     12  C   UNL     1     -24.517 -41.352  27.312  0.00  0.00    +0.081 C 
ATOM     13  N   UNL     1     -25.110 -41.551  28.512  0.00  0.00    -0.244 NA
ATOM     14  C   UNL     1     -26.401 -41.907  28.632  0.00  0.00    +0.099 C 
ATOM     15  C   UNL     1     -27.158 -42.078  27.487  0.00  0.00    +0.021 C 
ATOM     16  C   UNL     1     -26.617 -41.892  26.227  0.00  0.00    +0.003 C 
ATOM     17  C   UNL     1     -25.284 -41.527  26.180  0.00  0.00    +0.018 C 
ATOM     18  C   UNL     1     -24.669 -41.320  24.963  0.00  0.00    +0.001 C 
ATOM     19  C   UNL     1     -23.334 -40.953  24.876  0.00  0.00    -0.001 C 
ENDBRANCH   5  10
BRANCH   1  20
ATOM     20  N   UNL     1     -20.047 -40.654  23.775  0.00  0.00    -0.176 N 
ATOM     21  N   UNL     1     -18.808 -40.542  23.292  0.00  0.00    -0.153 NA
ATOM     22  C   UNL     1     -18.809 -39.914  22.111  0.00  0.00    +0.219 C 
ATOM     23  N   UNL     1     -20.098 -39.630  21.859  0.00  0.00    -0.203 NA
ATOM     24  C   UNL     1     -20.860 -40.092  22.893  0.00  0.00    +0.187 C 
ENDBRANCH   1  20
BRANCH   8  25
ATOM     25  O   UNL     1     -15.671 -42.889  25.920  0.00  0.00    -0.506 OA
ATOM     26  H   UNL     1     -14.962 -42.971  26.527  0.00  0.00    +0.292 HD
ENDBRANCH   8  25
BRANCH   1  27
ATOM     27  S   UNL     1     -21.189 -42.877  24.792  0.00  0.00    -0.047 S 
BRANCH  27  28
ATOM     28  C   UNL     1     -21.514 -43.690  26.357  0.00  0.00    +0.209 A 
ATOM     29  N   UNL     1     -22.651 -44.273  26.756  0.00  0.00    -0.234 N 
ATOM     30  N   UNL     1     -22.462 -44.742  27.962  0.00  0.00    -0.046 NA
ATOM     31  N   UNL     1     -21.233 -44.475  28.349  0.00  0.00    -0.022 NA
ATOM     32  N   UNL     1     -20.647 -43.827  27.363  0.00  0.00    -0.102 NA
ATOM     33  H   UNL     1     -23.483 -44.337  26.234  0.00  0.00    +0.193 HD
ENDBRANCH  27  28
ENDBRANCH   1  27
TORSDOF 5
