REMARK  Name = =
REMARK  8 active torsions:
REMARK  status: ('A' for Active; 'I' for Inactive)
REMARK    1  A    between atoms: C_1  and  N_20
REMARK    2  A    between atoms: C_1  and  S_25
REMARK    3  A    between atoms: C_5  and  C_10
REMARK    4  A    between atoms: C_8  and  O_43
REMARK    5  A    between atoms: S_25  and  C_26
REMARK    6  A    between atoms: S_25  and  N_31
REMARK    7  A    between atoms: N_31  and  C_32
REMARK    8  A    between atoms: C_40  and  O_42
REMARK                            x       y       z     vdW  Elec       q    Type
REMARK                         _______ _______ _______ _____ _____    ______ ____
ROOT
ATOM      1  C   UNL     1     -20.541 -42.022  25.473  0.00  0.00    +0.184 C 
ATOM      2  C   UNL     1     -20.813 -41.179  24.254  0.00  0.00    +0.046 C 
ATOM      3  C   UNL     1     -21.469 -40.034  24.617  0.00  0.00    +0.138 C 
ATOM      4  O   UNL     1     -21.672 -40.032  25.987  0.00  0.00    -0.472 OA
ATOM      5  C   UNL     1     -21.338 -41.300  26.524  0.00  0.00    +0.220 C 
ATOM      6  C   UNL     1     -21.826 -39.094  23.678  0.00  0.00    +0.040 C 
ATOM      7  C   UNL     1     -21.532 -39.275  22.327  0.00  0.00    +0.040 C 
ATOM      8  C   UNL     1     -20.871 -40.427  21.961  0.00  0.00    +0.134 C 
ATOM      9  C   UNL     1     -20.518 -41.370  22.934  0.00  0.00    +0.038 C 
ENDROOT
BRANCH   5  10
ATOM     10  C   UNL     1     -22.473 -42.014  27.086  0.00  0.00    +0.022 C 
ATOM     11  C   UNL     1     -23.757 -41.584  26.838  0.00  0.00    +0.018 C 
ATOM     12  C   UNL     1     -24.866 -42.255  27.364  0.00  0.00    +0.081 C 
ATOM     13  N   UNL     1     -26.117 -41.831  27.119  0.00  0.00    -0.244 NA
ATOM     14  C   UNL     1     -27.176 -42.485  27.631  0.00  0.00    +0.099 C 
ATOM     15  C   UNL     1     -27.028 -43.608  28.421  0.00  0.00    +0.021 C 
ATOM     16  C   UNL     1     -25.750 -44.028  28.663  0.00  0.00    +0.003 C 
ATOM     17  C   UNL     1     -24.642 -43.361  28.139  0.00  0.00    +0.018 C 
ATOM     18  C   UNL     1     -23.376 -43.808  28.401  0.00  0.00    +0.001 C 
ATOM     19  C   UNL     1     -22.291 -43.125  27.867  0.00  0.00    -0.001 C 
ENDBRANCH   5  10
BRANCH   1  20
ATOM     20  N   UNL     1     -21.145 -43.304  25.219  0.00  0.00    -0.177 N 
ATOM     21  N   UNL     1     -22.162 -43.603  24.445  0.00  0.00    -0.153 NA
ATOM     22  C   UNL     1     -22.421 -44.915  24.471  0.00  0.00    +0.219 C 
ATOM     23  N   UNL     1     -21.534 -45.483  25.292  0.00  0.00    -0.203 NA
ATOM     24  C   UNL     1     -20.734 -44.480  25.763  0.00  0.00    +0.187 C 
ENDBRANCH   1  20
BRANCH   1  25
ATOM     25  S   UNL     1     -18.956 -42.093  25.803  0.00  0.00    -0.092 S 
ATOM     26  H   UNL     1     -18.720 -40.784  25.520  0.00  0.00    +0.111 HD
BRANCH  25  27
ATOM     27  C   UNL     1     -18.437 -42.055  27.366  0.00  0.00    +0.204 A 
ATOM     28  N   UNL     1     -17.978 -41.040  28.127  0.00  0.00    -0.234 N 
ATOM     29  N   UNL     1     -17.666 -41.436  29.342  0.00  0.00    -0.046 NA
ATOM     30  N   UNL     1     -17.916 -42.730  29.401  0.00  0.00    -0.022 NA
ATOM     31  N   UNL     1     -18.377 -43.113  28.228  0.00  0.00    -0.102 NA
ATOM     32  H   UNL     1     -17.887 -40.112  27.810  0.00  0.00    +0.193 HD
ENDBRANCH  25  27
BRANCH  25  33
ATOM     33  N   UNL     1     -17.998 -42.845  24.735  0.00  0.00    -0.297 N 
ATOM     34  H   UNL     1     -18.309 -43.683  24.322  0.00  0.00    +0.159 HD
BRANCH  33  35
ATOM     35  C   UNL     1     -16.723 -42.332  24.377  0.00  0.00    +0.074 C 
ATOM     36  C   UNL     1     -15.584 -42.511  25.127  0.00  0.00    +0.095 C 
ATOM     37  N   UNL     1     -15.644 -43.222  26.265  0.00  0.00    -0.243 NA
ATOM     38  C   UNL     1     -14.541 -43.415  27.015  0.00  0.00    +0.099 C 
ATOM     39  C   UNL     1     -13.319 -42.874  26.609  0.00  0.00    +0.021 C 
ATOM     40  C   UNL     1     -13.240 -42.147  25.454  0.00  0.00    +0.003 C 
ATOM     41  C   UNL     1     -14.375 -41.958  24.700  0.00  0.00    +0.022 C 
ATOM     42  C   UNL     1     -14.302 -41.230  23.534  0.00  0.00    +0.038 C 
ATOM     43  C   UNL     1     -15.436 -41.048  22.779  0.00  0.00    +0.135 C 
ATOM     44  C   UNL     1     -16.622 -41.592  23.199  0.00  0.00    +0.053 C 
BRANCH  43  45
ATOM     45  O   UNL     1     -15.343 -40.315  21.612  0.00  0.00    -0.505 OA
ATOM     46  H   UNL     1     -16.104 -40.179  21.082  0.00  0.00    +0.292 HD
ENDBRANCH  43  45
ENDBRANCH  33  35
ENDBRANCH  25  33
ENDBRANCH   1  25
BRANCH   8  47
ATOM     47  O   UNL     1     -20.563 -40.636  20.619  0.00  0.00    -0.506 OA
ATOM     48  H   UNL     1     -20.805 -39.997  19.978  0.00  0.00    +0.292 HD
ENDBRANCH   8  47
TORSDOF 8
