REMARK  Name = =
REMARK  3 active torsions:
REMARK  status: ('A' for Active; 'I' for Inactive)
REMARK    1  A    between atoms: C_1  and  C_12
REMARK    2  A    between atoms: C_2  and  C_6
REMARK    3  A    between atoms: C_4  and  S_18
REMARK                            x       y       z     vdW  Elec       q    Type
REMARK                         _______ _______ _______ _____ _____    ______ ____
ROOT
ATOM      1  C   UNL     1      52.469 158.151  29.428  0.00  0.00    +0.076 A 
ATOM      2  C   UNL     1      53.350 157.458  28.595  0.00  0.00    +0.099 A 
ATOM      3  N   UNL     1      54.509 158.136  28.653  0.00  0.00    -0.222 NA
ATOM      4  C   UNL     1      54.421 159.199  29.459  0.00  0.00    +0.164 A 
ATOM      5  N   UNL     1      53.143 159.200  29.938  0.00  0.00    -0.333 N 
ATOM      6  H   UNL     1      52.771 159.865  30.561  0.00  0.00    +0.168 HD
ENDROOT
BRANCH   2   7
ATOM      7  C   UNL     1      53.001 156.255  27.849  0.00  0.00    +0.019 C 
ATOM      8  C   UNL     1      52.989 154.997  28.415  0.00  0.00    +0.002 C 
ATOM      9  C   UNL     1      52.655 153.880  27.675  0.00  0.00    +0.000 C 
ATOM     10  C   UNL     1      52.321 153.987  26.337  0.00  0.00    +0.000 C 
ATOM     11  C   UNL     1      52.328 155.228  25.762  0.00  0.00    +0.000 C 
ATOM     12  C   UNL     1      52.661 156.323  26.503  0.00  0.00    +0.002 C 
ENDBRANCH   2   7
BRANCH   1  13
ATOM     13  C   UNL     1      51.083 157.744  29.655  0.00  0.00    +0.017 C 
ATOM     14  C   UNL     1      50.724 156.422  29.438  0.00  0.00    +0.001 C 
ATOM     15  C   UNL     1      49.450 155.963  29.627  0.00  0.00    +0.000 C 
ATOM     16  C   UNL     1      48.478 156.857  30.052  0.00  0.00    +0.000 C 
ATOM     17  C   UNL     1      48.814 158.192  30.278  0.00  0.00    +0.000 C 
ATOM     18  C   UNL     1      50.111 158.616  30.075  0.00  0.00    +0.001 C 
ENDBRANCH   1  13
BRANCH   4  19
ATOM     19  S   UNL     1      55.710 160.377  29.835  0.00  0.00    -0.105 S 
ATOM     20  H   UNL     1      56.843 160.038  29.164  0.00  0.00    +0.110 HD
ENDBRANCH   4  19
TORSDOF 3
