REMARK  Name = =
REMARK  4 active torsions:
REMARK  status: ('A' for Active; 'I' for Inactive)
REMARK    1  A    between atoms: C_1  and  C_15
REMARK    2  A    between atoms: C_2  and  N_7
REMARK    3  A    between atoms: C_16  and  C_20
REMARK    4  A    between atoms: C_18  and  S_26
REMARK                            x       y       z     vdW  Elec       q    Type
REMARK                         _______ _______ _______ _____ _____    ______ ____
ROOT
ATOM      1  C   UNL     1      52.418 156.265  27.672  0.00  0.00    +0.031 C 
ATOM      2  C   UNL     1      51.741 155.186  28.133  0.00  0.00    +0.061 C 
ATOM      3  C   UNL     1      50.930 155.326  29.265  0.00  0.00    +0.015 C 
ATOM      4  C   UNL     1      50.780 156.513  29.944  0.00  0.00    +0.001 C 
ATOM      5  C   UNL     1      51.473 157.611  29.469  0.00  0.00    +0.000 C 
ATOM      6  C   UNL     1      52.277 157.499  28.359  0.00  0.00    +0.003 C 
ENDROOT
BRANCH   2   7
ATOM      7  N   UNL     1      51.831 153.920  27.511  0.00  0.00    -0.220 N 
ATOM      8  C   UNL     1      52.028 152.870  28.371  0.00  0.00    +0.078 C 
ATOM      9  C   UNL     1      52.119 151.608  27.841  0.00  0.00    +0.075 C 
ATOM     10  C   UNL     1      52.013 151.407  26.482  0.00  0.00    +0.254 C 
ATOM     11  O   UNL     1      52.103 150.219  26.021  0.00  0.00    -0.270 OA
ATOM     12  N   UNL     1      51.821 152.455  25.668  0.00  0.00    -0.235 N 
ATOM     13  C   UNL     1      51.733 153.693  26.200  0.00  0.00    +0.318 C 
ATOM     14  O   UNL     1      51.548 154.696  25.434  0.00  0.00    -0.251 OA
ATOM     15  H   UNL     1      51.745 152.324  24.695  0.00  0.00    +0.159 HD
ENDBRANCH   2   7
BRANCH   1  16
ATOM     16  C   UNL     1      53.259 156.188  26.509  0.00  0.00    +0.077 A 
ATOM     17  C   UNL     1      54.246 155.324  26.177  0.00  0.00    +0.099 A 
ATOM     18  N   UNL     1      54.757 155.697  24.962  0.00  0.00    -0.222 NA
ATOM     19  C   UNL     1      54.094 156.775  24.548  0.00  0.00    +0.164 A 
ATOM     20  N   UNL     1      53.190 157.073  25.478  0.00  0.00    -0.333 N 
ATOM     21  H   UNL     1      52.560 157.828  25.427  0.00  0.00    +0.168 HD
BRANCH  17  22
ATOM     22  C   UNL     1      54.711 154.184  26.948  0.00  0.00    +0.019 C 
ATOM     23  C   UNL     1      55.409 153.163  26.294  0.00  0.00    +0.002 C 
ATOM     24  C   UNL     1      55.871 152.058  26.971  0.00  0.00    +0.000 C 
ATOM     25  C   UNL     1      55.671 151.896  28.327  0.00  0.00    +0.000 C 
ATOM     26  C   UNL     1      54.985 152.900  28.972  0.00  0.00    +0.000 C 
ATOM     27  C   UNL     1      54.514 154.017  28.302  0.00  0.00    +0.002 C 
ENDBRANCH  17  22
BRANCH  19  28
ATOM     28  S   UNL     1      54.413 157.620  23.009  0.00  0.00    -0.105 S 
ATOM     29  H   UNL     1      55.422 156.992  22.348  0.00  0.00    +0.110 HD
ENDBRANCH  19  28
ENDBRANCH   1  16
TORSDOF 4
