REMARK  Name = =
REMARK  8 active torsions:
REMARK  status: ('A' for Active; 'I' for Inactive)
REMARK    1  A    between atoms: C_1  and  C_24
REMARK    2  A    between atoms: C_2  and  C_6
REMARK    3  A    between atoms: C_4  and  S_38
REMARK    4  A    between atoms: C_8  and  N_12
REMARK    5  A    between atoms: N_12  and  C_15
REMARK    6  A    between atoms: C_18  and  C_21
REMARK    7  A    between atoms: C_21  and  O_23
REMARK    8  A    between atoms: C_25  and  N_30
REMARK                            x       y       z     vdW  Elec       q    Type
REMARK                         _______ _______ _______ _____ _____    ______ ____
ROOT
ATOM      1  C   UNL     1      52.849 153.796  26.882  0.00  0.00    +0.077 A 
ATOM      2  C   UNL     1      52.193 154.206  28.035  0.00  0.00    +0.099 A 
ATOM      3  N   UNL     1      51.665 153.098  28.569  0.00  0.00    -0.222 NA
ATOM      4  C   UNL     1      51.956 152.040  27.816  0.00  0.00    +0.164 A 
ATOM      5  N   UNL     1      52.688 152.464  26.769  0.00  0.00    -0.333 N 
ATOM      6  H   UNL     1      53.044 151.898  26.046  0.00  0.00    +0.168 HD
ENDROOT
BRANCH   2   7
ATOM      7  C   UNL     1      52.095 155.562  28.556  0.00  0.00    +0.020 C 
ATOM      8  C   UNL     1      50.922 156.134  28.992  0.00  0.00    +0.017 C 
ATOM      9  C   UNL     1      50.829 157.416  29.482  0.00  0.00    +0.059 C 
ATOM     10  C   UNL     1      52.002 158.178  29.537  0.00  0.00    +0.015 C 
ATOM     11  C   UNL     1      53.193 157.640  29.109  0.00  0.00    +0.001 C 
ATOM     12  C   UNL     1      53.233 156.330  28.620  0.00  0.00    +0.002 C 
BRANCH   9  13
ATOM     13  N   UNL     1      49.607 158.001  29.925  0.00  0.00    -0.230 N 
ATOM     14  C   UNL     1      48.366 157.440  29.522  0.00  0.00    +0.311 C 
ATOM     15  O   UNL     1      47.269 157.954  29.917  0.00  0.00    -0.264 OA
BRANCH  13  16
ATOM     16  C   UNL     1      49.604 159.129  30.757  0.00  0.00    +0.059 C 
ATOM     17  C   UNL     1      50.138 160.351  30.408  0.00  0.00    +0.015 C 
ATOM     18  C   UNL     1      50.112 161.439  31.253  0.00  0.00    +0.008 C 
ATOM     19  C   UNL     1      49.536 161.313  32.492  0.00  0.00    +0.076 C 
ATOM     20  C   UNL     1      48.993 160.108  32.879  0.00  0.00    +0.008 C 
ATOM     21  C   UNL     1      49.031 159.028  32.006  0.00  0.00    +0.015 C 
BRANCH  19  22
ATOM     22  C   UNL     1      49.486 162.431  33.429  0.00  0.00    +0.338 C 
ATOM     23  O   UNL     1      50.187 163.426  33.223  0.00  0.00    -0.245 OA
BRANCH  22  24
ATOM     24  O   UNL     1      48.661 162.406  34.552  0.00  0.00    -0.477 OA
ATOM     25  H   UNL     1      48.123 161.658  34.722  0.00  0.00    +0.295 HD
ENDBRANCH  22  24
ENDBRANCH  19  22
ENDBRANCH  13  16
ENDBRANCH   9  13
ENDBRANCH   2   7
BRANCH   1  26
ATOM     26  C   UNL     1      53.557 154.699  26.007  0.00  0.00    +0.031 C 
ATOM     27  C   UNL     1      54.408 154.229  25.058  0.00  0.00    +0.061 C 
ATOM     28  C   UNL     1      55.104 155.114  24.218  0.00  0.00    +0.015 C 
ATOM     29  C   UNL     1      54.926 156.460  24.351  0.00  0.00    +0.001 C 
ATOM     30  C   UNL     1      54.058 156.942  25.317  0.00  0.00    +0.000 C 
ATOM     31  C   UNL     1      53.381 156.051  26.138  0.00  0.00    +0.003 C 
BRANCH  27  32
ATOM     32  N   UNL     1      54.607 152.841  24.896  0.00  0.00    -0.220 N 
ATOM     33  C   UNL     1      55.437 152.206  25.741  0.00  0.00    +0.078 C 
ATOM     34  C   UNL     1      55.690 150.849  25.646  0.00  0.00    +0.075 C 
ATOM     35  C   UNL     1      55.073 150.118  24.653  0.00  0.00    +0.254 C 
ATOM     36  O   UNL     1      55.285 148.870  24.540  0.00  0.00    -0.270 OA
ATOM     37  N   UNL     1      54.250 150.786  23.824  0.00  0.00    -0.235 N 
ATOM     38  C   UNL     1      54.020 152.102  23.936  0.00  0.00    +0.318 C 
ATOM     39  O   UNL     1      53.239 152.652  23.126  0.00  0.00    -0.251 OA
ATOM     40  H   UNL     1      53.798 150.288  23.105  0.00  0.00    +0.159 HD
ENDBRANCH  27  32
ENDBRANCH   1  26
BRANCH   4  41
ATOM     41  S   UNL     1      51.462 150.339  28.133  0.00  0.00    -0.105 S 
ATOM     42  H   UNL     1      50.732 150.285  29.279  0.00  0.00    +0.110 HD
ENDBRANCH   4  41
TORSDOF 8
