MODEL 1
REMARK VINA RESULT:   -10.014      0.000      0.000
REMARK INTER + INTRA:         -16.132
REMARK INTER:                 -14.697
REMARK INTRA:                  -1.434
REMARK UNBOUND:                -1.434
REMARK  Name = =
REMARK  9 active torsions:
REMARK  status: ('A' for Active; 'I' for Inactive)
REMARK    1  A    between atoms: N_1  and  C_6
REMARK    2  A    between atoms: C_2  and  C_17
REMARK    3  A    between atoms: N_5  and  CA_36
REMARK    4  A    between atoms: C_18  and  O_23
REMARK    5  A    between atoms: C_19  and  O_24
REMARK    6  A    between atoms: O_24  and  N_25
REMARK    7  A    between atoms: C_32  and  C_34
REMARK    8  A    between atoms: CA_36  and  C_38
REMARK    9  A    between atoms: C_38  and  O_40
REMARK                            x       y       z     vdW  Elec       q    Type
REMARK                         _______ _______ _______ _____ _____    ______ ____
ROOT
ATOM      1  N   UNL     1      -1.367  -7.584  29.840  0.00  0.00    -0.215 N 
ATOM      2  C   UNL     1      -2.513  -7.878  30.594  0.00  0.00    +0.261 C 
ATOM      3  O   UNL     1      -3.203  -8.904  30.168  0.00  0.00    -0.269 OA
ATOM      4  C   ACE A   0      -1.053  -8.481  28.767  0.00  0.00    +0.174 C 
ATOM      5  N   UNL     1      -0.114  -8.427  27.989  0.00  0.00    -0.221 NA
ENDROOT
BRANCH   1   6
ATOM      6  C   UNL     1      -0.479  -6.504  30.025  0.00  0.00    +0.076 C 
ATOM      7  C   UNL     1      -0.400  -5.319  29.276  0.00  0.00    +0.088 C 
ATOM      8  N   UNL     1       0.586  -4.551  29.758  0.00  0.00    -0.228 N 
ATOM      9  C   UNL     1       1.187  -5.163  30.807  0.00  0.00    +0.060 C 
ATOM     10  C   UNL     1       0.535  -6.361  30.973  0.00  0.00    +0.029 C 
ATOM     11  C   UNL     1       0.950  -7.181  31.984  0.00  0.00    +0.003 C 
ATOM     12  C   UNL     1       1.985  -6.819  32.805  0.00  0.00    +0.000 C 
ATOM     13  C   UNL     1       2.647  -5.620  32.649  0.00  0.00    +0.001 C 
ATOM     14  C   UNL     1       2.241  -4.786  31.635  0.00  0.00    +0.015 C 
ATOM     15  C   UNL     1       0.979  -3.282  29.274  0.00  0.00    +0.311 C 
ATOM     16  O   UNL     1       0.399  -2.726  28.288  0.00  0.00    -0.264 OA
ENDBRANCH   1   6
BRANCH   2  17
ATOM     17  C   UNL     1      -3.067  -7.244  31.760  0.00  0.00    +0.091 C 
ATOM     18  C   UNL     1      -3.684  -5.980  31.636  0.00  0.00    +0.175 C 
ATOM     19  C   UNL     1      -4.249  -5.345  32.714  0.00  0.00    +0.199 C 
ATOM     20  C   UNL     1      -4.206  -5.975  33.963  0.00  0.00    +0.043 C 
ATOM     21  C   UNL     1      -3.617  -7.198  34.121  0.00  0.00    +0.004 C 
ATOM     22  C   UNL     1      -3.054  -7.818  33.013  0.00  0.00    +0.008 C 
BRANCH  18  23
ATOM     23  O   UNL     1      -3.675  -5.444  30.377  0.00  0.00    -0.503 OA
ATOM     24  H   UNL     1      -4.467  -5.113  30.003  0.00  0.00    +0.292 HD
ENDBRANCH  18  23
BRANCH  19  25
ATOM     25  O   UNL     1      -4.853  -4.134  32.643  0.00  0.00    -0.398 OA
BRANCH  25  26
ATOM     26  N   UNL     1      -5.272  -3.421  31.581  0.00  0.00    -0.112 NA
ATOM     27  C   UNL     1      -6.594  -2.894  31.717  0.00  0.00    +0.140 C 
ATOM     28  C   UNL     1      -6.496  -1.427  31.633  0.00  0.00    -0.006 C 
ATOM     29  C   UNL     1      -5.207  -1.106  31.345  0.00  0.00    -0.005 C 
ATOM     30  C   UNL     1      -4.402  -2.346  31.225  0.00  0.00    +0.140 C 
ATOM     31  C   UNL     1      -4.834   0.225  31.209  0.00  0.00    -0.003 C 
ATOM     32  C   UNL     1      -5.792   1.195  31.372  0.00  0.00    -0.005 C 
ATOM     33  C   UNL     1      -7.111   0.886  31.666  0.00  0.00    -0.022 C 
ATOM     34  C   UNL     1      -7.465  -0.438  31.797  0.00  0.00    -0.007 C 
BRANCH  33  35
ATOM     35  C   UNL     1      -8.094   1.987  31.828  0.00  0.00    +0.026 C 
ATOM     36  C   UNL     1      -7.773   3.175  30.939  0.00  0.00    +0.005 C 
ENDBRANCH  33  35
ENDBRANCH  25  26
ENDBRANCH  19  25
ENDBRANCH   2  17
BRANCH   5  37
ATOM     37  CA  UNL     1       0.992  -7.677  27.683  0.00  0.00    +0.158 C 
ATOM     38  CB  UNL     1       0.848  -6.611  26.902  0.00  0.00    +0.028 C 
BRANCH  37  39
ATOM     39  C   UNL     1       2.348  -7.993  28.158  0.00  0.00    +0.356 C 
ATOM     40  OXT UNL     1       2.882  -9.118  28.033  0.00  0.00    -0.243 OA
BRANCH  39  41
ATOM     41  O   UNL     1       3.072  -6.995  28.777  0.00  0.00    -0.476 OA
ATOM     42  H   UNL     1       3.622  -7.200  29.508  0.00  0.00    +0.295 HD
ENDBRANCH  39  41
ENDBRANCH  37  39
ENDBRANCH   5  37
TORSDOF 9
ENDMDL
