MODEL 1
REMARK VINA RESULT:    -9.496      0.000      0.000
REMARK INTER + INTRA:         -13.459
REMARK INTER:                 -13.382
REMARK INTRA:                  -0.078
REMARK UNBOUND:                -0.078
REMARK  Name = =
REMARK  8 active torsions:
REMARK  status: ('A' for Active; 'I' for Inactive)
REMARK    1  A    between atoms: C_1  and  C_14
REMARK    2  A    between atoms: C_1  and  N_26
REMARK    3  A    between atoms: C_8  and  N_31
REMARK    4  A    between atoms: N_12  and  N_16
REMARK    5  A    between atoms: C_17  and  N_22
REMARK    6  A    between atoms: N_22  and  O_25
REMARK    7  A    between atoms: C_32  and  C_34
REMARK    8  A    between atoms: C_38  and  N_40
REMARK                            x       y       z     vdW  Elec       q    Type
REMARK                         _______ _______ _______ _____ _____    ______ ____
ROOT
ATOM      1  C   UNL     1      -0.395  -5.711  29.771  0.00  0.00    +0.121 C 
ATOM      2  C   UNL     1       0.862  -5.489  30.628  0.00  0.00    +0.073 C 
ATOM      3  C   UNL     1       1.127  -6.744  31.442  0.00  0.00    +0.208 C 
ATOM      4  O   UNL     1      -0.121  -7.411  31.729  0.00  0.00    -0.476 OA
ATOM      5  C   UNL     1      -1.300  -6.676  31.791  0.00  0.00    +0.136 C 
ATOM      6  C   UNL     1      -1.500  -5.750  30.774  0.00  0.00    +0.032 C 
ATOM      7  C   UNL     1      -2.624  -4.963  30.728  0.00  0.00    +0.015 C 
ATOM      8  C   UNL     1      -3.613  -5.043  31.677  0.00  0.00    +0.051 C 
ATOM      9  C   UNL     1      -3.386  -5.983  32.685  0.00  0.00    +0.018 C 
ATOM     10  C   UNL     1      -2.262  -6.776  32.743  0.00  0.00    +0.038 C 
ENDROOT
BRANCH   1  14
ATOM     11  C   UNL     1       0.874  -5.029  26.947  0.00  0.00    +0.164 C 
ATOM     12  N   UNL     1       1.534  -4.068  27.831  0.00  0.00    -0.178 NA
ATOM     13  C   UNL     1       0.551  -3.632  28.794  0.00  0.00    +0.112 C 
ATOM     14  C   UNL     1      -0.559  -4.651  28.758  0.00  0.00    +0.096 C 
ATOM     15  N   UNL     1      -0.461  -5.224  27.424  0.00  0.00    -0.281 NA
ATOM     16  H   UNL     1      -0.671  -6.222  27.461  0.00  0.00    +0.125 HD
BRANCH  12  17
ATOM     17  N   UNL     1       2.864  -3.670  27.731  0.00  0.00    -0.165 N 
ATOM     18  C   UNL     1       3.303  -2.523  27.241  0.00  0.00    +0.167 C 
ATOM     19  C   UNL     1       4.704  -2.489  27.309  0.00  0.00    +0.100 C 
ATOM     20  N   UNL     1       5.067  -3.656  27.857  0.00  0.00    -0.264 N 
ATOM     21  C   UNL     1       3.963  -4.373  28.113  0.00  0.00    +0.326 C 
ATOM     22  O   UNL     1       3.956  -5.508  28.625  0.00  0.00    -0.251 OA
ATOM     23  H   UNL     1       5.992  -3.942  28.040  0.00  0.00    +0.157 HD
BRANCH  18  24
ATOM     24  N   UNL     1       2.600  -1.420  26.701  0.00  0.00    -0.125 N 
ATOM     25  C   UNL     1       2.005  -0.473  27.545  0.00  0.00    +0.332 C 
ATOM     26  O   UNL     1       2.109  -0.619  28.795  0.00  0.00    -0.262 OA
BRANCH  24  27
ATOM     27  O   UNL     1       2.497  -1.291  25.373  0.00  0.00    -0.286 OA
ATOM     28  H   UNL     1       3.141  -1.874  24.941  0.00  0.00    +0.242 HD
ENDBRANCH  24  27
ENDBRANCH  18  24
ENDBRANCH  12  17
ENDBRANCH   1  14
BRANCH   1  29
ATOM     29  N   UNL     1      -0.356  -7.057  29.200  0.00  0.00    -0.189 N 
ATOM     30  N   UNL     1       0.691  -7.711  28.699  0.00  0.00    -0.154 NA
ATOM     31  C   UNL     1       0.333  -8.913  28.271  0.00  0.00    +0.218 C 
ATOM     32  N   UNL     1      -0.968  -9.062  28.492  0.00  0.00    -0.203 NA
ATOM     33  C   UNL     1      -1.390  -7.904  29.068  0.00  0.00    +0.186 C 
ENDBRANCH   1  29
BRANCH   8  34
ATOM     34  N   UNL     1      -4.794  -4.283  31.737  0.00  0.00    -0.279 N 
ATOM     35  C   UNL     1      -4.929  -2.881  31.696  0.00  0.00    +0.267 C 
ATOM     36  O   UNL     1      -3.873  -2.201  31.596  0.00  0.00    -0.268 OA
ATOM     37  H   UNL     1      -5.631  -4.794  31.818  0.00  0.00    +0.155 HD
BRANCH  35  38
ATOM     38  C   UNL     1      -6.228  -2.200  31.765  0.00  0.00    +0.139 C 
ATOM     39  N   UNL     1      -6.231  -0.856  31.788  0.00  0.00    -0.219 NA
ATOM     40  C   UNL     1      -7.399  -0.151  31.848  0.00  0.00    +0.200 C 
ATOM     41  N   UNL     1      -8.569  -0.791  31.887  0.00  0.00    -0.209 NA
ATOM     42  C   UNL     1      -8.653  -2.128  31.867  0.00  0.00    +0.129 C 
ATOM     43  C   UNL     1      -7.443  -2.829  31.805  0.00  0.00    +0.058 C 
BRANCH  42  44
ATOM     44  N   UNL     1      -9.894  -2.817  31.906  0.00  0.00    -0.343 N 
ATOM     45  H   UNL     1     -10.739  -2.314  31.855  0.00  0.00    +0.144 HD
ATOM     46  H   UNL     1      -9.910  -3.799  31.986  0.00  0.00    +0.144 HD
ENDBRANCH  42  44
ENDBRANCH  35  38
ENDBRANCH   8  34
TORSDOF 8
ENDMDL
