REMARK  Name = =
REMARK  8 active torsions:
REMARK  status: ('A' for Active; 'I' for Inactive)
REMARK    1  A    between atoms: C_1  and  C_14
REMARK    2  A    between atoms: C_1  and  N_26
REMARK    3  A    between atoms: C_8  and  N_31
REMARK    4  A    between atoms: N_12  and  N_16
REMARK    5  A    between atoms: C_17  and  N_22
REMARK    6  A    between atoms: N_22  and  O_25
REMARK    7  A    between atoms: C_32  and  C_34
REMARK    8  A    between atoms: C_38  and  N_40
REMARK                            x       y       z     vdW  Elec       q    Type
REMARK                         _______ _______ _______ _____ _____    ______ ____
ROOT
ATOM      1  C   UNL     1     -14.643   3.844  26.034  0.00  0.00    +0.121 C 
ATOM      2  C   UNL     1     -15.358   3.274  24.798  0.00  0.00    +0.073 C 
ATOM      3  C   UNL     1     -16.849   3.211  25.082  0.00  0.00    +0.208 C 
ATOM      4  O   UNL     1     -17.068   3.003  26.494  0.00  0.00    -0.476 OA
ATOM      5  C   UNL     1     -16.101   2.356  27.256  0.00  0.00    +0.136 C 
ATOM      6  C   UNL     1     -14.787   2.760  27.051  0.00  0.00    +0.032 C 
ATOM      7  C   UNL     1     -13.744   2.194  27.742  0.00  0.00    +0.015 C 
ATOM      8  C   UNL     1     -13.934   1.201  28.671  0.00  0.00    +0.051 C 
ATOM      9  C   UNL     1     -15.264   0.817  28.857  0.00  0.00    +0.018 C 
ATOM     10  C   UNL     1     -16.318   1.376  28.169  0.00  0.00    +0.038 C 
ENDROOT
BRANCH   1  14
ATOM     11  C   UNL     1     -13.027   6.495  25.394  0.00  0.00    +0.164 C 
ATOM     12  N   UNL     1     -13.135   5.865  24.078  0.00  0.00    -0.178 NA
ATOM     13  C   UNL     1     -12.993   4.442  24.275  0.00  0.00    +0.112 C 
ATOM     14  C   UNL     1     -13.239   4.190  25.741  0.00  0.00    +0.096 C 
ATOM     15  N   UNL     1     -12.902   5.458  26.372  0.00  0.00    -0.281 NA
ATOM     16  H   UNL     1     -13.540   5.637  27.148  0.00  0.00    +0.125 HD
BRANCH  12  17
ATOM     17  N   UNL     1     -13.336   6.543  22.879  0.00  0.00    -0.165 N 
ATOM     18  C   UNL     1     -13.508   5.993  21.689  0.00  0.00    +0.167 C 
ATOM     19  C   UNL     1     -13.679   7.000  20.727  0.00  0.00    +0.100 C 
ATOM     20  N   UNL     1     -13.601   8.157  21.398  0.00  0.00    -0.264 N 
ATOM     21  C   UNL     1     -13.394   7.888  22.696  0.00  0.00    +0.326 C 
ATOM     22  O   UNL     1     -13.276   8.748  23.589  0.00  0.00    -0.251 OA
ATOM     23  H   UNL     1     -13.682   9.056  21.004  0.00  0.00    +0.157 HD
BRANCH  18  24
ATOM     24  N   UNL     1     -13.537   4.634  21.295  0.00  0.00    -0.125 N 
ATOM     25  C   UNL     1     -12.360   3.981  20.905  0.00  0.00    +0.332 C 
ATOM     26  O   UNL     1     -11.274   4.625  20.913  0.00  0.00    -0.262 OA
BRANCH  24  27
ATOM     27  O   UNL     1     -14.701   3.975  21.288  0.00  0.00    -0.286 OA
ATOM     28  H   UNL     1     -15.410   4.568  21.583  0.00  0.00    +0.242 HD
ENDBRANCH  24  27
ENDBRANCH  18  24
ENDBRANCH  12  17
ENDBRANCH   1  14
BRANCH   1  29
ATOM     29  N   UNL     1     -15.418   4.965  26.565  0.00  0.00    -0.189 N 
ATOM     30  N   UNL     1     -15.484   5.399  27.823  0.00  0.00    -0.154 NA
ATOM     31  C   UNL     1     -16.297   6.441  27.917  0.00  0.00    +0.218 C 
ATOM     32  N   UNL     1     -16.777   6.705  26.707  0.00  0.00    -0.203 NA
ATOM     33  C   UNL     1     -16.227   5.782  25.872  0.00  0.00    +0.186 C 
ENDBRANCH   1  29
BRANCH   8  34
ATOM     34  N   UNL     1     -12.946   0.544  29.424  0.00  0.00    -0.279 N 
ATOM     35  C   UNL     1     -11.560   0.793  29.446  0.00  0.00    +0.267 C 
ATOM     36  O   UNL     1     -11.126   1.714  28.703  0.00  0.00    -0.268 OA
ATOM     37  H   UNL     1     -13.262  -0.181  30.010  0.00  0.00    +0.155 HD
BRANCH  35  38
ATOM     38  C   UNL     1     -10.623   0.034  30.284  0.00  0.00    +0.139 C 
ATOM     39  N   UNL     1      -9.484   0.642  30.660  0.00  0.00    -0.219 NA
ATOM     40  C   UNL     1      -8.565   0.002  31.442  0.00  0.00    +0.200 C 
ATOM     41  N   UNL     1      -8.784  -1.250  31.849  0.00  0.00    -0.209 NA
ATOM     42  C   UNL     1      -9.893  -1.925  31.519  0.00  0.00    +0.129 C 
ATOM     43  C   UNL     1     -10.820  -1.249  30.717  0.00  0.00    +0.058 C 
BRANCH  42  44
ATOM     44  N   UNL     1     -10.134  -3.256  31.949  0.00  0.00    -0.343 N 
ATOM     45  H   UNL     1      -9.473  -3.719  32.513  0.00  0.00    +0.144 HD
ATOM     46  H   UNL     1     -10.963  -3.717  31.683  0.00  0.00    +0.144 HD
ENDBRANCH  42  44
ENDBRANCH  35  38
ENDBRANCH   8  34
TORSDOF 8
