REMARK  Name = =
REMARK  6 active torsions:
REMARK  status: ('A' for Active; 'I' for Inactive)
REMARK    1  A    between atoms: N_1  and  O_12
REMARK    2  A    between atoms: C_2  and  C_8
REMARK    3  A    between atoms: C_2  and  C_10
REMARK    4  A    between atoms: O_12  and  C_13
REMARK    5  A    between atoms: C_14  and  O_21
REMARK    6  A    between atoms: C_16  and  C_19
REMARK                            x       y       z     vdW  Elec       q    Type
REMARK                         _______ _______ _______ _____ _____    ______ ____
ROOT
ATOM      1  N   UNL     1      -8.659  -8.091  21.491  0.00  0.00    -0.113 NA
ATOM      2  C   UNL     1      -7.814  -7.132  20.868  0.00  0.00    +0.151 C 
ATOM      3  C   UNL     1      -7.044  -7.616  19.698  0.00  0.00    +0.029 C 
ATOM      4  C   UNL     1      -7.830  -8.138  18.560  0.00  0.00    +0.002 C 
ATOM      5  C   UNL     1      -9.138  -8.782  18.941  0.00  0.00    +0.002 C 
ATOM      6  C   UNL     1      -8.916  -9.894  19.919  0.00  0.00    +0.021 C 
ATOM      7  C   UNL     1      -8.372  -9.459  21.237  0.00  0.00    +0.114 C 
ENDROOT
BRANCH   2   8
ATOM      8  C   UNL     1      -6.847  -6.673  21.894  0.00  0.00    +0.085 C 
ATOM      9  N   UNL     1      -6.463  -5.467  21.967  0.00  0.00    -0.300 NA
ATOM     10  H   UNL     1      -5.819  -5.196  22.661  0.00  0.00    +0.186 HD
ENDBRANCH   2   8
BRANCH   2  11
ATOM     11  C   UNL     1      -8.656  -5.925  20.528  0.00  0.00    +0.085 C 
ATOM     12  N   UNL     1      -8.320  -5.150  19.564  0.00  0.00    -0.300 NA
ATOM     13  H   UNL     1      -8.873  -4.365  19.348  0.00  0.00    +0.186 HD
ENDBRANCH   2  11
BRANCH   1  14
ATOM     14  O   UNL     1      -9.072  -7.791  22.738  0.00  0.00    -0.398 OA
BRANCH  14  15
ATOM     15  C   UNL     1     -10.393  -7.515  22.995  0.00  0.00    +0.199 C 
ATOM     16  C   UNL     1     -10.766  -7.004  24.243  0.00  0.00    +0.170 C 
ATOM     17  C   UNL     1     -12.083  -6.723  24.514  0.00  0.00    +0.043 C 
ATOM     18  C   UNL     1     -13.085  -6.926  23.593  0.00  0.00    +0.045 C 
ATOM     19  C   UNL     1     -12.736  -7.429  22.360  0.00  0.00    +0.007 C 
ATOM     20  C   UNL     1     -11.416  -7.709  22.090  0.00  0.00    +0.043 C 
BRANCH  18  21
ATOM     21  C   UNL     1     -14.451  -6.604  23.960  0.00  0.00    +0.234 C 
ATOM     22  O   UNL     1     -14.674  -6.033  25.049  0.00  0.00    -0.283 OA
ENDBRANCH  18  21
BRANCH  16  23
ATOM     23  O   UNL     1      -9.759  -6.801  25.164  0.00  0.00    -0.503 OA
ATOM     24  H   UNL     1      -8.872  -7.005  24.941  0.00  0.00    +0.292 HD
ENDBRANCH  16  23
ENDBRANCH  14  15
ENDBRANCH   1  14
TORSDOF 6
