REMARK  Name = =
REMARK  7 active torsions:
REMARK  status: ('A' for Active; 'I' for Inactive)
REMARK    1  A    between atoms: C_1  and  O_18
REMARK    2  A    between atoms: C_2  and  O_17
REMARK    3  A    between atoms: C_4  and  C_8
REMARK    4  A    between atoms: C_8  and  C_10
REMARK    5  A    between atoms: O_18  and  N_19
REMARK    6  A    between atoms: C_20  and  C_26
REMARK    7  A    between atoms: C_20  and  C_28
REMARK                            x       y       z     vdW  Elec       q    Type
REMARK                         _______ _______ _______ _____ _____    ______ ____
ROOT
ATOM      1  C   UNL     1     -12.606  -6.153  22.576  0.00  0.00    +0.200 C 
ATOM      2  C   UNL     1     -11.755  -7.229  22.533  0.00  0.00    +0.170 C 
ATOM      3  C   UNL     1     -10.498  -7.154  21.914  0.00  0.00    +0.044 C 
ATOM      4  C   UNL     1     -10.086  -5.986  21.329  0.00  0.00    +0.055 C 
ATOM      5  C   UNL     1     -10.951  -4.915  21.380  0.00  0.00    +0.095 C 
ATOM      6  N   UNL     1     -10.504  -3.694  20.761  0.00  0.00    -0.128 NA
ATOM      7  C   UNL     1     -12.196  -4.975  21.988  0.00  0.00    +0.061 C 
ENDROOT
BRANCH   4   8
ATOM      8  C   UNL     1      -8.808  -5.896  20.678  0.00  0.00    +0.174 C 
ATOM      9  O   UNL     1      -8.736  -5.192  19.634  0.00  0.00    -0.291 OA
BRANCH   8  10
ATOM     10  C   UNL     1      -7.628  -6.576  21.174  0.00  0.00    +0.062 C 
ATOM     11  C   UNL     1      -7.034  -6.038  22.445  0.00  0.00    +0.008 C 
ATOM     12  C   UNL     1      -5.520  -5.908  22.171  0.00  0.00    +0.000 C 
ATOM     13  C   UNL     1      -5.364  -7.048  21.147  0.00  0.00    +0.000 C 
ATOM     14  C   UNL     1      -6.475  -6.586  20.177  0.00  0.00    +0.007 C 
ATOM     15  C   UNL     1      -5.953  -5.196  19.905  0.00  0.00    +0.000 C 
ATOM     16  C   UNL     1      -5.395  -4.710  21.250  0.00  0.00    +0.000 C 
ENDBRANCH   8  10
ENDBRANCH   4   8
BRANCH   2  17
ATOM     17  O   UNL     1     -12.167  -8.430  23.128  0.00  0.00    -0.503 OA
ATOM     18  H   UNL     1     -13.006  -8.484  23.542  0.00  0.00    +0.292 HD
ENDBRANCH   2  17
BRANCH   1  19
ATOM     19  O   UNL     1     -13.838  -6.286  23.203  0.00  0.00    -0.398 OA
BRANCH  19  20
ATOM     20  N   UNL     1     -14.541  -5.211  23.683  0.00  0.00    -0.113 NA
ATOM     21  C   UNL     1     -15.826  -5.127  23.069  0.00  0.00    +0.151 C 
ATOM     22  C   UNL     1     -16.951  -4.789  24.017  0.00  0.00    +0.029 C 
ATOM     23  C   UNL     1     -16.847  -3.419  24.610  0.00  0.00    +0.002 C 
ATOM     24  C   UNL     1     -16.032  -3.380  25.883  0.00  0.00    +0.002 C 
ATOM     25  C   UNL     1     -14.598  -3.780  25.645  0.00  0.00    +0.021 C 
ATOM     26  C   UNL     1     -14.527  -5.194  25.111  0.00  0.00    +0.114 C 
BRANCH  21  27
ATOM     27  C   UNL     1     -15.828  -4.212  21.902  0.00  0.00    +0.085 C 
ATOM     28  N   UNL     1     -16.918  -3.945  21.301  0.00  0.00    -0.300 NA
ATOM     29  H   UNL     1     -16.917  -3.337  20.526  0.00  0.00    +0.186 HD
ENDBRANCH  21  27
BRANCH  21  30
ATOM     30  C   UNL     1     -16.140  -6.499  22.523  0.00  0.00    +0.085 C 
ATOM     31  N   UNL     1     -15.906  -6.653  21.266  0.00  0.00    -0.300 NA
ATOM     32  H   UNL     1     -16.085  -7.520  20.835  0.00  0.00    +0.186 HD
ENDBRANCH  21  30
ENDBRANCH  19  20
ENDBRANCH   1  19
TORSDOF 7
