MODEL 1
REMARK VINA RESULT:    -9.190      0.000      0.000
REMARK INTER + INTRA:         -15.021
REMARK INTER:                 -12.681
REMARK INTRA:                  -2.339
REMARK UNBOUND:                -2.339
REMARK  Name = =
REMARK  8 active torsions:
REMARK  status: ('A' for Active; 'I' for Inactive)
REMARK    1  A    between atoms: C_1  and  C_29
REMARK    2  A    between atoms: C_2  and  C_33
REMARK    3  A    between atoms: C_7  and  O_38
REMARK    4  A    between atoms: C_10  and  C_12
REMARK    5  A    between atoms: C_13  and  O_19
REMARK    6  A    between atoms: O_19  and  C_20
REMARK    7  A    between atoms: C_21  and  O_27
REMARK    8  A    between atoms: C_24  and  O_26
REMARK                            x       y       z     vdW  Elec       q    Type
REMARK                         _______ _______ _______ _____ _____    ______ ____
ROOT
ATOM      1  C   UNL     1     -17.641 -41.984  25.103  0.00  0.00    +0.024 A 
ATOM      2  C   UNL     1     -18.928 -41.829  25.549  0.00  0.00    +0.082 A 
ATOM      3  N   UNL     1     -19.545 -40.981  24.690  0.00  0.00    -0.273 N 
ATOM      4  C   UNL     1     -18.641 -40.615  23.714  0.00  0.00    +0.067 A 
ATOM      5  C   UNL     1     -17.442 -41.232  23.947  0.00  0.00    +0.019 A 
ATOM      6  C   UNL     1     -16.344 -41.051  23.112  0.00  0.00    +0.038 C 
ATOM      7  C   UNL     1     -16.451 -40.230  22.013  0.00  0.00    +0.134 C 
ATOM      8  C   UNL     1     -17.616 -39.606  21.751  0.00  0.00    +0.038 C 
ATOM      9  C   UNL     1     -18.694 -39.804  22.600  0.00  0.00    +0.021 C 
ATOM     10  C   UNL     1     -20.879 -40.537  24.588  0.00  0.00    +0.268 C 
ATOM     11  O   UNL     1     -21.143 -39.565  23.742  0.00  0.00    -0.267 OA
ENDROOT
BRANCH  10  12
ATOM     12  C   UNL     1     -22.080 -40.945  25.243  0.00  0.00    +0.091 C 
ATOM     13  C   UNL     1     -22.810 -42.027  24.748  0.00  0.00    +0.151 C 
ATOM     14  C   UNL     1     -23.925 -42.493  25.407  0.00  0.00    +0.049 C 
ATOM     15  C   UNL     1     -24.349 -41.890  26.583  0.00  0.00    +0.061 C 
ATOM     16  C   UNL     1     -23.640 -40.825  27.080  0.00  0.00    +0.012 C 
ATOM     17  C   UNL     1     -22.511 -40.365  26.400  0.00  0.00    +0.009 C 
ATOM     18 CL   UNL     1     -25.781 -42.484  27.428  0.00  0.00    -0.082 Cl
BRANCH  13  19
ATOM     19  O   UNL     1     -22.381 -42.620  23.572  0.00  0.00    -0.450 OA
BRANCH  19  20
ATOM     20  C   UNL     1     -22.565 -42.115  22.305  0.00  0.00    +0.182 C 
ATOM     21  C   UNL     1     -21.565 -42.197  21.336  0.00  0.00    +0.169 C 
ATOM     22  C   UNL     1     -21.717 -41.702  20.057  0.00  0.00    +0.043 C 
ATOM     23  C   UNL     1     -22.907 -41.097  19.712  0.00  0.00    +0.040 C 
ATOM     24  C   UNL     1     -23.920 -40.995  20.632  0.00  0.00    +0.137 C 
ATOM     25  C   UNL     1     -23.734 -41.500  21.900  0.00  0.00    +0.077 C 
BRANCH  24  26
ATOM     26  O   UNL     1     -25.100 -40.378  20.236  0.00  0.00    -0.505 OA
ATOM     27  H   UNL     1     -25.303 -40.296  19.325  0.00  0.00    +0.292 HD
ENDBRANCH  24  26
BRANCH  21  28
ATOM     28  O   UNL     1     -20.357 -42.799  21.651  0.00  0.00    -0.503 OA
ATOM     29  H   UNL     1     -20.271 -43.731  21.600  0.00  0.00    +0.292 HD
ENDBRANCH  21  28
ENDBRANCH  19  20
ENDBRANCH  13  19
ENDBRANCH  10  12
BRANCH   1  31
ATOM     30  O   UNL     1     -15.471 -43.038  24.913  0.00  0.00    -0.352 OA
ATOM     31  C   UNL     1     -16.536 -42.709  25.751  0.00  0.00    +0.139 C 
ATOM     32  C   UNL     1     -15.852 -41.924  26.800  0.00  0.00    +0.037 C 
ATOM     33  C   UNL     1     -14.589 -42.388  26.877  0.00  0.00    +0.035 C 
ATOM     34  C   UNL     1     -14.501 -43.472  25.857  0.00  0.00    +0.143 C 
ENDBRANCH   1  31
BRANCH   2  35
ATOM     35  C   UNL     1     -19.578 -42.523  26.695  0.00  0.00    +0.117 C 
ATOM     36  N   UNL     1     -19.666 -42.104  27.891  0.00  0.00    -0.086 NA
ATOM     37  O   UNL     1     -20.338 -42.977  28.727  0.00  0.00    -0.377 OA
ATOM     38  C   UNL     1     -21.303 -43.623  27.863  0.00  0.00    +0.245 C 
ATOM     39  C   UNL     1     -20.324 -43.804  26.664  0.00  0.00    +0.101 C 
ENDBRANCH   2  35
BRANCH   7  40
ATOM     40  O   UNL     1     -15.374 -40.044  21.179  0.00  0.00    -0.506 OA
ATOM     41  H   UNL     1     -14.891 -39.242  21.211  0.00  0.00    +0.292 HD
ENDBRANCH   7  40
TORSDOF 8
ENDMDL
