MODEL 1
REMARK VINA RESULT:    -9.918      0.000      0.000
REMARK INTER + INTRA:         -16.278
REMARK INTER:                 -13.686
REMARK INTRA:                  -2.592
REMARK UNBOUND:                -2.592
REMARK  Name = =
REMARK  8 active torsions:
REMARK  status: ('A' for Active; 'I' for Inactive)
REMARK    1  A    between atoms: C_1  and  C_26
REMARK    2  A    between atoms: C_2  and  C_7
REMARK    3  A    between atoms: C_3  and  O_35
REMARK    4  A    between atoms: C_4  and  O_34
REMARK    5  A    between atoms: C_5  and  O_33
REMARK    6  A    between atoms: C_13  and  O_25
REMARK    7  A    between atoms: C_16  and  C_18
REMARK    8  A    between atoms: O_35  and  C_36
REMARK                            x       y       z     vdW  Elec       q    Type
REMARK                         _______ _______ _______ _____ _____    ______ ____
ROOT
ATOM      1  C   UNL     1       3.761  -2.664  25.443  0.00  0.00    -0.015 C 
ATOM      2  C   UNL     1       3.588  -3.335  26.632  0.00  0.00    +0.035 C 
ATOM      3  C   UNL     1       2.877  -2.777  27.700  0.00  0.00    +0.181 C 
ATOM      4  C   UNL     1       2.331  -1.520  27.563  0.00  0.00    +0.203 C 
ATOM      5  C   UNL     1       2.493  -0.834  26.382  0.00  0.00    +0.170 C 
ATOM      6  C   UNL     1       3.209  -1.412  25.328  0.00  0.00    +0.036 C 
ENDROOT
BRANCH   2   7
ATOM      7  C   UNL     1       4.150  -4.678  26.763  0.00  0.00    +0.019 C 
ATOM      8  C   UNL     1       5.446  -5.023  27.017  0.00  0.00    +0.072 C 
ATOM      9  N   UNL     1       5.608  -6.386  27.088  0.00  0.00    -0.233 N 
ATOM     10  C   UNL     1       4.381  -6.901  26.872  0.00  0.00    +0.059 C 
ATOM     11  C   UNL     1       3.468  -5.860  26.669  0.00  0.00    +0.018 C 
ATOM     12  C   UNL     1       2.155  -6.187  26.421  0.00  0.00    +0.038 C 
ATOM     13  C   UNL     1       1.721  -7.498  26.368  0.00  0.00    +0.134 C 
ATOM     14  C   UNL     1       2.634  -8.516  26.570  0.00  0.00    +0.038 C 
ATOM     15  C   UNL     1       3.974  -8.215  26.824  0.00  0.00    +0.018 C 
ATOM     16  C   UNL     1       6.844  -7.022  27.333  0.00  0.00    +0.257 C 
ATOM     17  O   UNL     1       7.886  -6.319  27.486  0.00  0.00    -0.269 OA
BRANCH  16  18
ATOM     18  C   UNL     1       7.022  -8.447  27.425  0.00  0.00    +0.054 C 
ATOM     19  C   UNL     1       7.331  -9.199  26.291  0.00  0.00    +0.005 C 
ATOM     20  C   UNL     1       7.493 -10.556  26.329  0.00  0.00    +0.012 C 
ATOM     21  C   UNL     1       7.348 -11.232  27.531  0.00  0.00    +0.058 C 
ATOM     22  C   UNL     1       7.042 -10.498  28.657  0.00  0.00    +0.012 C 
ATOM     23  C   UNL     1       6.877  -9.135  28.628  0.00  0.00    +0.005 C 
ATOM     24 CL   UNL     1       7.556 -12.977  27.581  0.00  0.00    -0.082 Cl
ENDBRANCH  16  18
BRANCH  13  25
ATOM     25  O   UNL     1       0.389  -7.800  26.116  0.00  0.00    -0.506 OA
ATOM     26  H   UNL     1      -0.152  -8.138  26.802  0.00  0.00    +0.292 HD
ENDBRANCH  13  25
ENDBRANCH   2   7
BRANCH   1  27
ATOM     27  C   UNL     1       4.537  -3.252  24.326  0.00  0.00    +0.038 C 
ATOM     28  C   UNL     1       3.523  -3.943  23.409  0.00  0.00    +0.073 C 
ATOM     29  N   UNL     1       4.159  -5.014  22.663  0.00  0.00    -0.297 NA
ATOM     30  C   UNL     1       5.466  -4.627  22.175  0.00  0.00    +0.069 C 
ATOM     31  C   UNL     1       5.320  -3.388  21.341  0.00  0.00    +0.017 C 
ATOM     32  C   UNL     1       4.973  -2.153  22.088  0.00  0.00    +0.002 C 
ATOM     33  C   UNL     1       5.293  -2.191  23.551  0.00  0.00    +0.006 C 
ATOM     34  H   UNL     1       3.569  -5.258  21.868  0.00  0.00    +0.123 HD
ENDBRANCH   1  27
BRANCH   5  35
ATOM     35  O   UNL     1       1.942   0.446  26.233  0.00  0.00    -0.503 OA
ATOM     36  H   UNL     1       2.471   1.148  25.909  0.00  0.00    +0.292 HD
ENDBRANCH   5  35
BRANCH   4  37
ATOM     37  O   UNL     1       1.626  -0.986  28.642  0.00  0.00    -0.501 OA
ATOM     38  H   UNL     1       0.845  -0.489  28.492  0.00  0.00    +0.292 HD
ENDBRANCH   4  37
BRANCH   3  39
ATOM     39  O   UNL     1       2.758  -3.528  28.857  0.00  0.00    -0.450 OA
BRANCH  39  40
ATOM     40  C   UNL     1       1.525  -4.189  29.033  0.00  0.00    +0.145 C 
ATOM     41  C   UNL     1       1.403  -5.046  30.124  0.00  0.00    +0.035 C 
ATOM     42  C   UNL     1       0.186  -5.710  30.313  0.00  0.00    +0.003 C 
ATOM     43  C   UNL     1       0.043  -6.569  31.397  0.00  0.00    +0.000 C 
ATOM     44  C   UNL     1       1.140  -6.724  32.255  0.00  0.00    +0.000 C 
ATOM     45  C   UNL     1       0.989  -7.582  33.333  0.00  0.00    +0.000 C 
ATOM     46  C   UNL     1      -0.201  -8.245  33.537  0.00  0.00    +0.000 C 
ATOM     47  C   UNL     1      -1.265  -8.096  32.710  0.00  0.00    +0.000 C 
ATOM     48  C   UNL     1      -1.134  -7.237  31.615  0.00  0.00    +0.000 C 
ATOM     49  C   UNL     1       2.335  -6.063  32.057  0.00  0.00    +0.000 C 
ATOM     50  C   UNL     1       2.469  -5.221  30.987  0.00  0.00    +0.003 C 
ATOM     51  C   UNL     1      -0.859  -5.521  29.447  0.00  0.00    +0.000 C 
ATOM     52  C   UNL     1      -0.732  -4.659  28.351  0.00  0.00    +0.003 C 
ATOM     53  C   UNL     1       0.467  -4.010  28.170  0.00  0.00    +0.037 C 
ENDBRANCH  39  40
ENDBRANCH   3  39
TORSDOF 8
ENDMDL
