MODEL 1
REMARK VINA RESULT:    -7.573      0.000      0.000
REMARK INTER + INTRA:         -13.623
REMARK INTER:                 -13.106
REMARK INTRA:                  -0.517
REMARK UNBOUND:                -0.517
REMARK  Name = =
REMARK  15 active torsions:
REMARK  status: ('A' for Active; 'I' for Inactive)
REMARK    1  A    between atoms: C_2  and  N_26
REMARK    2  A    between atoms: C_3  and  C_14
REMARK    3  A    between atoms: C_3  and  N_16
REMARK    4  A    between atoms: N_16  and  N_17
REMARK    5  A    between atoms: N_16  and  O_18
REMARK    6  A    between atoms: O_18  and  S_19
REMARK    7  A    between atoms: S_19  and  N_22
REMARK    8  A    between atoms: N_26  and  P_27
REMARK    9  A    between atoms: N_26  and  C_31
REMARK   10  A    between atoms: P_27  and  N_29
REMARK   11  A    between atoms: P_27  and  O_30
REMARK   12  A    between atoms: C_31  and  N_33
REMARK   13  A    between atoms: C_32  and  C_38
REMARK   14  A    between atoms: N_33  and  O_36
REMARK   15  A    between atoms: C_34  and  O_37
REMARK                            x       y       z     vdW  Elec       q    Type
REMARK                         _______ _______ _______ _____ _____    ______ ____
ROOT
ATOM      1  N   UNL     1       0.924  -2.818  28.422  0.00  0.00    -0.260 NA
ATOM      2  C   UNL     1       1.285  -4.065  27.754  0.00  0.00    +0.132 C 
ATOM      3  C   UNL     1       2.183  -4.377  28.868  0.00  0.00    +0.130 C 
ATOM      4  C   UNL     1       1.225  -3.487  29.679  0.00  0.00    +0.095 C 
ATOM      5  C   UNL     1      -0.034  -4.728  27.587  0.00  0.00    +0.037 C 
ATOM      6  C   UNL     1      -0.898  -3.508  27.255  0.00  0.00    +0.017 C 
ATOM      7  C   UNL     1      -0.480  -2.624  28.403  0.00  0.00    +0.054 C 
ATOM      8  C   UNL     1      -1.226  -2.967  29.693  0.00  0.00    +0.023 C 
ATOM      9  C   UNL     1      -2.543  -2.170  29.622  0.00  0.00    +0.066 C 
ATOM     10  C   UNL     1      -2.141  -1.015  28.796  0.00  0.00    +0.152 C 
ATOM     11  O   UNL     1      -2.527   0.122  28.908  0.00  0.00    -0.296 OA
ATOM     12  C   UNL     1      -1.175  -1.513  27.807  0.00  0.00    +0.071 C 
ATOM     13  C   UNL     1      -1.702  -2.545  26.875  0.00  0.00    +0.010 C 
ENDROOT
BRANCH   3  14
ATOM     14  C   UNL     1       3.513  -3.730  28.982  0.00  0.00    +0.023 C 
ATOM     15  C   UNL     1       4.702  -4.371  28.413  0.00  0.00    +0.002 C 
ENDBRANCH   3  14
BRANCH   3  16
ATOM     16  N   UNL     1       2.155  -5.711  29.470  0.00  0.00    -0.086 NA
BRANCH  16  17
ATOM     17  N   UNL     1       2.793  -6.619  28.655  0.00  0.00    -0.242 NA
ATOM     18  H   UNL     1       2.125  -7.324  28.343  0.00  0.00    +0.139 HD
ATOM     19  H   UNL     1       3.547  -7.070  29.173  0.00  0.00    +0.139 HD
ENDBRANCH  16  17
BRANCH  16  20
ATOM     20  O   UNL     1       2.799  -5.709  30.639  0.00  0.00    -0.130 OA
BRANCH  20  21
ATOM     21  S   UNL     1       1.808  -6.104  31.928  0.00  0.00    +0.083 S 
ATOM     22  O   UNL     1       0.418  -6.272  31.410  0.00  0.00    -0.051 OA
ATOM     23  O   UNL     1       2.269  -7.427  32.468  0.00  0.00    -0.051 OA
BRANCH  21  24
ATOM     24  N   UNL     1       1.866  -4.892  33.156  0.00  0.00    -0.168 N 
ATOM     25  C   UNL     1       3.089  -4.610  33.821  0.00  0.00    +0.316 C 
ATOM     26  O   UNL     1       4.119  -5.248  33.508  0.00  0.00    -0.251 OA
ATOM     27  N   UNL     1       3.104  -3.604  34.832  0.00  0.00    -0.312 N 
ATOM     28  H   UNL     1       1.051  -4.396  33.396  0.00  0.00    +0.178 HD
ATOM     29  H   UNL     1       2.277  -3.119  35.056  0.00  0.00    +0.147 HD
ATOM     30  H   UNL     1       3.941  -3.395  35.306  0.00  0.00    +0.147 HD
ENDBRANCH  21  24
ENDBRANCH  20  21
ENDBRANCH  16  20
ENDBRANCH   3  16
BRANCH   2  31
ATOM     31  N   UNL     1       1.878  -3.908  26.445  0.00  0.00    -0.211 N 
BRANCH  31  32
ATOM     32  P   UNL     1       2.304  -5.289  25.445  0.00  0.00    +0.360 P 
ATOM     33  O   UNL     1       3.703  -5.726  25.795  0.00  0.00    -0.250 OA
BRANCH  32  34
ATOM     34  N   UNL     1       1.263  -6.650  25.770  0.00  0.00    -0.244 NA
ATOM     35  H   UNL     1       0.509  -6.361  26.392  0.00  0.00    +0.129 HD
ATOM     36  H   UNL     1       1.804  -7.394  26.213  0.00  0.00    +0.129 HD
ENDBRANCH  32  34
BRANCH  32  37
ATOM     37  O   UNL     1       2.308  -4.852  23.808  0.00  0.00    -0.319 OA
ATOM     38  H   UNL     1       1.540  -4.291  23.621  0.00  0.00    +0.220 HD
ENDBRANCH  32  37
ENDBRANCH  31  32
BRANCH  31  39
ATOM     39  C   UNL     1       2.134  -2.618  25.938  0.00  0.00    +0.146 C 
ATOM     40  C   UNL     1       1.348  -1.926  25.131  0.00  0.00    +0.078 C 
BRANCH  39  41
ATOM     41  N   UNL     1       3.297  -1.865  26.361  0.00  0.00    -0.101 N 
ATOM     42  C   UNL     1       4.508  -2.027  25.644  0.00  0.00    +0.429 C 
ATOM     43  O   UNL     1       4.556  -2.798  24.650  0.00  0.00    -0.224 OA
BRANCH  41  44
ATOM     44  O   UNL     1       3.219  -1.079  27.416  0.00  0.00    -0.284 OA
ATOM     45  H   UNL     1       2.931  -1.597  28.184  0.00  0.00    +0.242 HD
ENDBRANCH  41  44
BRANCH  42  46
ATOM     46  O   UNL     1       5.673  -1.361  25.998  0.00  0.00    -0.465 OA
ATOM     47  H   UNL     1       6.220  -1.702  26.677  0.00  0.00    +0.297 HD
ENDBRANCH  42  46
ENDBRANCH  39  41
BRANCH  40  48
ATOM     48  C   UNL     1       1.592  -0.614  24.596  0.00  0.00    +0.237 C 
ATOM     49  O   UNL     1       1.575   0.408  25.291  0.00  0.00    -0.283 OA
ENDBRANCH  40  48
ENDBRANCH  31  39
ENDBRANCH   2  31
TORSDOF 15
ENDMDL
