REMARK  Name = =
REMARK  2 active torsions:
REMARK  status: ('A' for Active; 'I' for Inactive)
REMARK    1  A    between atoms: N_1  and  N_4
REMARK    2  A    between atoms: C_2  and  O_5
REMARK                            x       y       z     vdW  Elec       q    Type
REMARK                         _______ _______ _______ _____ _____    ______ ____
ROOT
ATOM      1  N   UNL     1      -3.243  -3.215  30.727  0.00  0.00    -0.219 N 
ATOM      2  C   UNL     1      -2.181  -3.971  30.203  0.00  0.00    +0.412 C 
ATOM      3  O   UNL     1      -2.459  -4.915  29.404  0.00  0.00    -0.225 OA
ATOM      4  H   UNL     1      -3.037  -2.480  31.349  0.00  0.00    +0.172 HD
ENDROOT
BRANCH   1   5
ATOM      5  N   UNL     1      -4.581  -3.462  30.403  0.00  0.00    -0.252 NA
ATOM      6  H   UNL     1      -4.634  -4.247  29.754  0.00  0.00    +0.141 HD
ATOM      7  H   UNL     1      -4.984  -2.633  29.967  0.00  0.00    +0.141 HD
ENDBRANCH   1   5
BRANCH   2   8
ATOM      8  O   UNL     1      -0.845  -3.754  30.502  0.00  0.00    -0.465 OA
ATOM      9  H   UNL     1      -0.602  -3.065  31.089  0.00  0.00    +0.297 HD
ENDBRANCH   2   8
TORSDOF 2
