REMARK  Name = =
REMARK  10 active torsions:
REMARK  status: ('A' for Active; 'I' for Inactive)
REMARK    1  A    between atoms: N_1  and  N_2
REMARK    2  A    between atoms: N_1  and  N_15
REMARK    3  A    between atoms: N_1  and  N_21
REMARK    4  A    between atoms: C_7  and  C_10
REMARK    5  A    between atoms: N_12  and  N_13
REMARK    6  A    between atoms: N_21  and  C_24
REMARK    7  A    between atoms: C_22  and  O_30
REMARK    8  A    between atoms: C_24  and  P_26
REMARK    9  A    between atoms: P_26  and  O_28
REMARK   10  A    between atoms: P_26  and  O_29
REMARK                            x       y       z     vdW  Elec       q    Type
REMARK                         _______ _______ _______ _____ _____    ______ ____
ROOT
ATOM      1  N   UNL     1     -12.092  -5.366  21.300  0.00  0.00    -0.056 NA
ENDROOT
BRANCH   1   2
ATOM      2  N   UNL     1     -13.007  -4.962  22.236  0.00  0.00    -0.192 N 
ATOM      3  C   UNL     1     -13.254  -3.565  22.420  0.00  0.00    +0.241 C 
ATOM      4  O   UNL     1     -12.819  -2.816  21.536  0.00  0.00    -0.273 OA
ATOM      5  C   UNL     1     -13.975  -2.879  23.550  0.00  0.00    +0.087 C 
ATOM      6  C   UNL     1     -13.373  -3.430  24.805  0.00  0.00    +0.019 C 
ATOM      7  C   UNL     1     -13.940  -4.767  25.230  0.00  0.00    +0.080 C 
ATOM      8  C   UNL     1     -13.407  -5.926  24.473  0.00  0.00    +0.032 C 
ATOM      9  C   UNL     1     -13.707  -5.990  23.022  0.00  0.00    +0.115 C 
BRANCH   7  10
ATOM     10  C   UNL     1     -15.394  -4.695  25.375  0.00  0.00    +0.241 C 
ATOM     11  O   UNL     1     -16.137  -5.483  24.748  0.00  0.00    -0.273 OA
ATOM     12  N   UNL     1     -15.994  -3.734  26.221  0.00  0.00    -0.206 N 
ATOM     13  H   UNL     1     -15.410  -3.113  26.714  0.00  0.00    +0.177 HD
BRANCH  12  14
ATOM     14  N   UNL     1     -17.376  -3.623  26.391  0.00  0.00    -0.176 NA
ATOM     15  C   UNL     1     -17.837  -3.370  27.549  0.00  0.00    +0.140 C 
ENDBRANCH  12  14
ENDBRANCH   7  10
ENDBRANCH   1   2
BRANCH   1  16
ATOM     16  N   UNL     1     -10.960  -4.692  21.321  0.00  0.00    -0.180 NA
ATOM     17  C   UNL     1     -10.010  -4.926  22.364  0.00  0.00    +0.124 C 
ATOM     18  C   UNL     1      -9.417  -3.552  22.697  0.00  0.00    +0.161 C 
ATOM     19  O   UNL     1      -8.738  -3.115  21.573  0.00  0.00    -0.351 OA
ATOM     20  C   UNL     1      -9.629  -2.891  20.528  0.00  0.00    +0.161 C 
ATOM     21  C   UNL     1     -10.321  -4.211  20.164  0.00  0.00    +0.124 C 
ENDBRANCH   1  16
BRANCH   1  22
ATOM     22  N   UNL     1     -12.499  -6.015  20.191  0.00  0.00    -0.128 N 
ATOM     23  C   UNL     1     -13.503  -5.536  19.272  0.00  0.00    +0.422 C 
ATOM     24  O   UNL     1     -13.839  -6.187  18.235  0.00  0.00    -0.225 OA
BRANCH  22  25
ATOM     25  C   UNL     1     -11.953  -7.298  19.835  0.00  0.00    +0.155 C 
ATOM     26  C   UNL     1     -10.936  -7.452  19.015  0.00  0.00    +0.026 C 
BRANCH  25  27
ATOM     27  P   UNL     1     -12.765  -8.712  20.591  0.00  0.00    +0.375 P 
ATOM     28  O   UNL     1     -12.368  -8.732  22.044  0.00  0.00    -0.252 OA
BRANCH  27  29
ATOM     29  O   UNL     1     -12.308 -10.155  19.886  0.00  0.00    -0.320 OA
ATOM     30  H   UNL     1     -11.351 -10.277  19.989  0.00  0.00    +0.220 HD
ENDBRANCH  27  29
BRANCH  27  31
ATOM     31  O   UNL     1     -14.427  -8.445  20.442  0.00  0.00    -0.320 OA
ATOM     32  H   UNL     1     -14.658  -7.601  20.861  0.00  0.00    +0.220 HD
ENDBRANCH  27  31
ENDBRANCH  25  27
ENDBRANCH  22  25
BRANCH  23  33
ATOM     33  O   UNL     1     -14.172  -4.333  19.453  0.00  0.00    -0.465 OA
ATOM     34  H   UNL     1     -13.978  -3.796  20.196  0.00  0.00    +0.297 HD
ENDBRANCH  23  33
ENDBRANCH   1  22
TORSDOF 10
