REMARK  Name = =
REMARK  1 active torsions:
REMARK  status: ('A' for Active; 'I' for Inactive)
REMARK    1  A    between atoms: S_1  and  N_4
REMARK                            x       y       z     vdW  Elec       q    Type
REMARK                         _______ _______ _______ _____ _____    ______ ____
ROOT
ATOM      1  S   UNL     1      51.942 155.384  28.239  0.00  0.00    +0.035 S 
ATOM      2  O   UNL     1      52.197 156.382  29.345  0.00  0.00    -0.158 OA
ATOM      3  O   UNL     1      52.323 153.998  28.712  0.00  0.00    -0.158 OA
ATOM      4  H   UNL     1      50.629 155.443  27.891  0.00  0.00    +0.233 HD
ENDROOT
BRANCH   1   5
ATOM      5  N   UNL     1      52.969 155.746  26.904  0.00  0.00    -0.184 N 
ATOM      6  C   UNL     1      52.990 154.962  25.724  0.00  0.00    +0.319 C 
ATOM      7  O   UNL     1      52.249 153.961  25.611  0.00  0.00    -0.264 OA
ATOM      8  H   UNL     1      53.564 156.528  26.963  0.00  0.00    +0.176 HD
ENDBRANCH   1   5
TORSDOF 1
