REMARK  Name = =
REMARK  6 active torsions:
REMARK  status: ('A' for Active; 'I' for Inactive)
REMARK    1  A    between atoms: O_1  and  P_2
REMARK    2  A    between atoms: O_1  and  P_6
REMARK    3  A    between atoms: P_2  and  O_4
REMARK    4  A    between atoms: P_2  and  O_5
REMARK    5  A    between atoms: P_6  and  O_8
REMARK    6  A    between atoms: P_6  and  O_9
REMARK                            x       y       z     vdW  Elec       q    Type
REMARK                         _______ _______ _______ _____ _____    ______ ____
ROOT
ATOM      1  O   UNL     1      51.349 158.721  28.609  0.00  0.00    -0.186 OA
ENDROOT
BRANCH   1   2
ATOM      2  P   UNL     1      51.978 157.201  28.929  0.00  0.00    +0.481 P 
ATOM      3  O   UNL     1      52.945 157.184  30.075  0.00  0.00    -0.227 OA
BRANCH   2   4
ATOM      4  O   UNL     1      50.698 156.155  29.339  0.00  0.00    -0.302 OA
ATOM      5  H   UNL     1      50.238 156.498  30.122  0.00  0.00    +0.222 HD
ENDBRANCH   2   4
BRANCH   2   6
ATOM      6  O   UNL     1      52.730 156.555  27.573  0.00  0.00    -0.302 OA
ATOM      7  H   UNL     1      52.111 156.562  26.826  0.00  0.00    +0.222 HD
ENDBRANCH   2   6
ENDBRANCH   1   2
BRANCH   1   8
ATOM      8  P   UNL     1      50.769 159.432  30.047  0.00  0.00    +0.481 P 
ATOM      9  O   UNL     1      49.881 160.603  29.679  0.00  0.00    -0.227 OA
BRANCH   8  10
ATOM     10  O   UNL     1      49.851 158.200  30.795  0.00  0.00    -0.302 OA
ATOM     11  H   UNL     1      50.432 157.458  31.025  0.00  0.00    +0.222 HD
ENDBRANCH   8  10
BRANCH   8  12
ATOM     12  O   UNL     1      52.024 159.944  31.034  0.00  0.00    -0.302 OA
ATOM     13  H   UNL     1      52.585 159.187  31.263  0.00  0.00    +0.222 HD
ENDBRANCH   8  12
ENDBRANCH   1   8
TORSDOF 6
