REMARK  Name = =
REMARK  2 active torsions:
REMARK  status: ('A' for Active; 'I' for Inactive)
REMARK    1  A    between atoms: C_1  and  C_14
REMARK    2  A    between atoms: N_13  and  S_16
REMARK                            x       y       z     vdW  Elec       q    Type
REMARK                         _______ _______ _______ _____ _____    ______ ____
ROOT
ATOM      1  C   UNL     1      52.999 155.358  26.794  0.00  0.00    +0.304 C 
ATOM      2  O   UNL     1      52.977 156.602  27.001  0.00  0.00    -0.265 OA
ATOM      3  N   UNL     1      53.158 154.851  25.481  0.00  0.00    -0.268 N 
ATOM      4  C   UNL     1      53.190 153.462  25.157  0.00  0.00    +0.099 C 
ATOM      5  C   UNL     1      53.153 153.222  23.665  0.00  0.00    +0.048 C 
ATOM      6  C   UNL     1      54.256 154.014  23.040  0.00  0.00    -0.023 C 
ATOM      7  C   UNL     1      54.321 155.340  23.412  0.00  0.00    -0.006 C 
ATOM      8  C   UNL     1      55.288 156.152  22.899  0.00  0.00    -0.003 C 
ATOM      9  C   UNL     1      56.213 155.623  21.991  0.00  0.00    -0.000 C 
ATOM     10  C   UNL     1      56.153 154.297  21.614  0.00  0.00    -0.000 C 
ATOM     11  C   UNL     1      55.163 153.507  22.152  0.00  0.00    -0.004 C 
ATOM     12  C   UNL     1      53.304 155.813  24.378  0.00  0.00    +0.120 C 
ENDROOT
BRANCH   1  14
ATOM     13  N   UNL     1      52.118 154.875  29.088  0.00  0.00    -0.184 N 
ATOM     14  C   UNL     1      52.853 154.457  27.946  0.00  0.00    +0.318 C 
ATOM     15  O   UNL     1      53.368 153.310  27.954  0.00  0.00    -0.264 OA
ATOM     16  H   UNL     1      51.702 155.767  29.115  0.00  0.00    +0.176 HD
BRANCH  13  17
ATOM     17  S   UNL     1      51.967 153.808  30.411  0.00  0.00    +0.035 S 
ATOM     18  O   UNL     1      50.816 154.246  31.286  0.00  0.00    -0.158 OA
ATOM     19  O   UNL     1      51.751 152.405  29.926  0.00  0.00    -0.158 OA
ATOM     20  H   UNL     1      53.115 153.836  31.140  0.00  0.00    +0.233 HD
ENDBRANCH  13  17
ENDBRANCH   1  14
TORSDOF 2
