REMARK  Name = =
REMARK  7 active torsions:
REMARK  status: ('A' for Active; 'I' for Inactive)
REMARK    1  A    between atoms: P_1  and  O_3
REMARK    2  A    between atoms: P_1  and  O_4
REMARK    3  A    between atoms: P_1  and  O_11
REMARK    4  A    between atoms: O_4  and  C_5
REMARK    5  A    between atoms: O_11  and  P_12
REMARK    6  A    between atoms: P_12  and  O_14
REMARK    7  A    between atoms: P_12  and  O_15
REMARK                            x       y       z     vdW  Elec       q    Type
REMARK                         _______ _______ _______ _____ _____    ______ ____
ROOT
ATOM      1  P   UNL     1      51.722 156.977  28.889  0.00  0.00    +0.484 P 
ATOM      2  O   UNL     1      52.310 158.136  28.086  0.00  0.00    -0.227 OA
ENDROOT
BRANCH   1   3
ATOM      3  O   UNL     1      52.821 156.572  30.121  0.00  0.00    -0.302 OA
ATOM      4  H   UNL     1      52.963 157.342  30.694  0.00  0.00    +0.222 HD
ENDBRANCH   1   3
BRANCH   1   5
ATOM      5  O   UNL     1      51.441 155.662  27.860  0.00  0.00    -0.276 OA
BRANCH   5   6
ATOM      6  C   UNL     1      52.351 154.647  28.067  0.00  0.00    +0.126 C 
ATOM      7  C   UNL     1      51.851 153.296  27.600  0.00  0.00    +0.030 C 
ATOM      8  C   UNL     1      52.118 153.073  26.122  0.00  0.00    +0.003 C 
ATOM      9  C   UNL     1      51.960 154.392  25.365  0.00  0.00    +0.000 C 
ATOM     10  C   UNL     1      52.939 155.418  25.853  0.00  0.00    +0.003 C 
ATOM     11  C   UNL     1      53.562 154.963  27.178  0.00  0.00    +0.030 C 
ENDBRANCH   5   6
ENDBRANCH   1   5
BRANCH   1  12
ATOM     12  O   UNL     1      50.219 157.404  29.542  0.00  0.00    -0.186 OA
BRANCH  12  13
ATOM     13  P   UNL     1      50.325 159.004  30.093  0.00  0.00    +0.481 P 
ATOM     14  O   UNL     1      49.739 159.976  29.085  0.00  0.00    -0.227 OA
BRANCH  13  15
ATOM     15  O   UNL     1      51.974 159.327  30.324  0.00  0.00    -0.302 OA
ATOM     16  H   UNL     1      52.339 158.701  30.969  0.00  0.00    +0.222 HD
ENDBRANCH  13  15
BRANCH  13  17
ATOM     17  O   UNL     1      49.500 159.223  31.539  0.00  0.00    -0.302 OA
ATOM     18  H   UNL     1      49.852 158.614  32.207  0.00  0.00    +0.222 HD
ENDBRANCH  13  17
ENDBRANCH  12  13
ENDBRANCH   1  12
TORSDOF 7
