REMARK  Name = =
REMARK  8 active torsions:
REMARK  status: ('A' for Active; 'I' for Inactive)
REMARK    1  A    between atoms: C_1  and  C_7
REMARK    2  A    between atoms: C_1  and  O_13
REMARK    3  A    between atoms: O_13  and  P_14
REMARK    4  A    between atoms: P_14  and  O_16
REMARK    5  A    between atoms: P_14  and  O_17
REMARK    6  A    between atoms: O_17  and  P_18
REMARK    7  A    between atoms: P_18  and  O_20
REMARK    8  A    between atoms: P_18  and  O_21
REMARK                            x       y       z     vdW  Elec       q    Type
REMARK                         _______ _______ _______ _____ _____    ______ ____
ROOT
ATOM      1  C   UNL     1      53.174 154.316  27.185  0.00  0.00    +0.103 C 
ATOM      2  C   UNL     1      53.282 154.767  28.621  0.00  0.00    +0.028 C 
ATOM      3  C   UNL     1      51.927 155.094  29.207  0.00  0.00    +0.002 C 
ATOM      4  C   UNL     1      51.130 153.812  29.194  0.00  0.00    +0.000 C 
ATOM      5  C   UNL     1      50.925 153.441  27.742  0.00  0.00    +0.002 C 
ATOM      6  C   UNL     1      52.240 153.135  27.078  0.00  0.00    +0.028 C 
ENDROOT
BRANCH   1   7
ATOM      7  C   UNL     1      52.553 155.410  26.318  0.00  0.00    +0.026 C 
ATOM      8  C   UNL     1      53.244 156.723  26.558  0.00  0.00    +0.002 C 
ATOM      9  C   UNL     1      54.337 156.941  25.499  0.00  0.00    +0.000 C 
ATOM     10  C   UNL     1      53.654 157.217  24.171  0.00  0.00    +0.000 C 
ATOM     11  C   UNL     1      52.380 156.395  24.095  0.00  0.00    +0.000 C 
ATOM     12  C   UNL     1      52.693 155.092  24.849  0.00  0.00    +0.002 C 
ENDBRANCH   1   7
BRANCH   1  13
ATOM     13  O   UNL     1      54.427 154.125  26.698  0.00  0.00    -0.278 OA
BRANCH  13  14
ATOM     14  P   UNL     1      54.976 152.598  26.432  0.00  0.00    +0.484 P 
ATOM     15  O   UNL     1      55.898 152.049  27.506  0.00  0.00    -0.227 OA
BRANCH  14  16
ATOM     16  O   UNL     1      55.976 152.668  25.032  0.00  0.00    -0.302 OA
ATOM     17  H   UNL     1      56.727 153.259  25.200  0.00  0.00    +0.222 HD
ENDBRANCH  14  16
BRANCH  14  18
ATOM     18  O   UNL     1      53.713 151.569  26.068  0.00  0.00    -0.186 OA
BRANCH  18  19
ATOM     19  P   UNL     1      54.090 150.465  24.850  0.00  0.00    +0.481 P 
ATOM     20  O   UNL     1      53.147 149.277  24.900  0.00  0.00    -0.227 OA
BRANCH  19  21
ATOM     21  O   UNL     1      55.687 149.882  25.033  0.00  0.00    -0.302 OA
ATOM     22  H   UNL     1      55.789 149.488  25.914  0.00  0.00    +0.222 HD
ENDBRANCH  19  21
BRANCH  19  23
ATOM     23  O   UNL     1      53.924 151.150  23.309  0.00  0.00    -0.302 OA
ATOM     24  H   UNL     1      54.148 150.489  22.635  0.00  0.00    +0.222 HD
ENDBRANCH  19  23
ENDBRANCH  18  19
ENDBRANCH  14  18
ENDBRANCH  13  14
ENDBRANCH   1  13
TORSDOF 8
