REMARK  Name = =
REMARK  11 active torsions:
REMARK  status: ('A' for Active; 'I' for Inactive)
REMARK    1  A    between atoms: C_1  and  C_7
REMARK    2  A    between atoms: C_1  and  O_16
REMARK    3  A    between atoms: C_12  and  S_13
REMARK    4  A    between atoms: S_13  and  S_14
REMARK    5  A    between atoms: S_13  and  S_15
REMARK    6  A    between atoms: O_16  and  P_17
REMARK    7  A    between atoms: P_17  and  O_19
REMARK    8  A    between atoms: P_17  and  O_20
REMARK    9  A    between atoms: O_20  and  P_21
REMARK   10  A    between atoms: P_21  and  O_23
REMARK   11  A    between atoms: P_21  and  O_24
REMARK                            x       y       z     vdW  Elec       q    Type
REMARK                         _______ _______ _______ _____ _____    ______ ____
ROOT
ATOM      1  C   UNL     1      53.114 155.959  27.355  0.00  0.00    +0.104 C 
ATOM      2  C   UNL     1      54.294 156.408  26.513  0.00  0.00    +0.028 C 
ATOM      3  C   UNL     1      53.988 157.248  25.341  0.00  0.00    +0.002 C 
ATOM      4  C   UNL     1      53.414 156.369  24.216  0.00  0.00    +0.000 C 
ATOM      5  C   UNL     1      52.673 155.240  24.954  0.00  0.00    +0.002 C 
ATOM      6  C   UNL     1      52.037 155.833  26.138  0.00  0.00    +0.028 C 
ENDROOT
BRANCH   1   7
ATOM      7  C   UNL     1      52.541 157.024  28.182  0.00  0.00    +0.040 C 
ATOM      8  C   UNL     1      53.268 157.398  29.460  0.00  0.00    +0.029 C 
ATOM      9  C   UNL     1      52.805 158.775  29.830  0.00  0.00    -0.031 C 
ATOM     10  C   UNL     1      51.506 159.260  29.368  0.00  0.00    -0.030 C 
ATOM     11  C   UNL     1      50.639 158.388  28.512  0.00  0.00    +0.036 C 
ATOM     12  C   UNL     1      51.118 156.898  28.655  0.00  0.00    +0.052 C 
BRANCH  12  13
ATOM     13  S   UNL     1      50.751 156.535  30.220  0.00  0.00    -0.152 S 
ATOM     14  H   UNL     1      51.698 156.744  31.174  0.00  0.00    +0.104 HD
BRANCH  13  15
ATOM     15  S   UNL     1      49.288 157.680  30.406  0.00  0.00    -0.123 S 
ATOM     16  H   UNL     1      48.382 157.420  29.426  0.00  0.00    +0.113 HD
ENDBRANCH  13  15
BRANCH  13  17
ATOM     17  S   UNL     1      50.770 155.076  30.675  0.00  0.00    -0.123 S 
ATOM     18  H   UNL     1      49.882 154.359  29.936  0.00  0.00    +0.113 HD
ENDBRANCH  13  17
ENDBRANCH  12  13
ENDBRANCH   1   7
BRANCH   1  19
ATOM     19  O   UNL     1      53.305 154.764  27.807  0.00  0.00    -0.278 OA
BRANCH  19  20
ATOM     20  P   UNL     1      52.617 153.361  27.671  0.00  0.00    +0.484 P 
ATOM     21  O   UNL     1      51.306 153.244  26.914  0.00  0.00    -0.227 OA
BRANCH  20  22
ATOM     22  O   UNL     1      52.342 152.610  29.146  0.00  0.00    -0.302 OA
ATOM     23  H   UNL     1      51.789 153.181  29.702  0.00  0.00    +0.222 HD
ENDBRANCH  20  22
BRANCH  20  24
ATOM     24  O   UNL     1      53.613 152.181  26.845  0.00  0.00    -0.186 OA
BRANCH  24  25
ATOM     25  P   UNL     1      52.526 150.983  26.347  0.00  0.00    +0.481 P 
ATOM     26  O   UNL     1      53.167 149.969  25.458  0.00  0.00    -0.227 OA
BRANCH  25  27
ATOM     27  O   UNL     1      51.819 150.241  27.709  0.00  0.00    -0.302 OA
ATOM     28  H   UNL     1      52.502 149.768  28.210  0.00  0.00    +0.222 HD
ENDBRANCH  25  27
BRANCH  25  29
ATOM     29  O   UNL     1      51.267 151.792  25.519  0.00  0.00    -0.302 OA
ATOM     30  H   UNL     1      50.861 152.447  26.108  0.00  0.00    +0.222 HD
ENDBRANCH  25  29
ENDBRANCH  24  25
ENDBRANCH  20  24
ENDBRANCH  19  20
ENDBRANCH   1  19
TORSDOF 11
