REMARK  Name = =
REMARK  12 active torsions:
REMARK  status: ('A' for Active; 'I' for Inactive)
REMARK    1  A    between atoms: C_1  and  C_14
REMARK    2  A    between atoms: C_1  and  O_23
REMARK    3  A    between atoms: C_5  and  C_7
REMARK    4  A    between atoms: C_19  and  S_20
REMARK    5  A    between atoms: S_20  and  S_21
REMARK    6  A    between atoms: S_20  and  S_22
REMARK    7  A    between atoms: O_23  and  P_24
REMARK    8  A    between atoms: P_24  and  O_26
REMARK    9  A    between atoms: P_24  and  O_27
REMARK   10  A    between atoms: O_27  and  P_28
REMARK   11  A    between atoms: P_28  and  O_30
REMARK   12  A    between atoms: P_28  and  O_31
REMARK                            x       y       z     vdW  Elec       q    Type
REMARK                         _______ _______ _______ _____ _____    ______ ____
ROOT
ATOM      1  C   UNL     1      51.127 158.091  29.668  0.00  0.00    +0.104 C 
ATOM      2  C   UNL     1      50.676 156.672  30.063  0.00  0.00    +0.028 C 
ATOM      3  C   UNL     1      51.996 155.883  30.081  0.00  0.00    +0.002 C 
ATOM      4  C   UNL     1      52.361 155.687  28.627  0.00  0.00    +0.001 C 
ATOM      5  C   UNL     1      52.404 156.946  27.841  0.00  0.00    +0.009 C 
ATOM      6  C   UNL     1      51.320 157.932  28.157  0.00  0.00    +0.028 C 
ENDROOT
BRANCH   5   7
ATOM      7  C   UNL     1      52.330 156.623  26.362  0.00  0.00    +0.051 C 
ATOM      8  C   UNL     1      53.623 156.920  25.652  0.00  0.00    +0.146 C 
ATOM      9  O   UNL     1      53.705 156.588  24.302  0.00  0.00    -0.353 OA
ATOM     10  C   UNL     1      54.544 155.970  25.361  0.00  0.00    +0.147 C 
ATOM     11  C   UNL     1      54.274 154.503  25.387  0.00  0.00    +0.058 C 
ATOM     12  C   UNL     1      52.838 154.278  25.692  0.00  0.00    -0.028 C 
ATOM     13  C   UNL     1      51.993 155.201  26.116  0.00  0.00    -0.028 C 
ENDBRANCH   5   7
BRANCH   1  14
ATOM     14  C   UNL     1      50.028 159.107  29.906  0.00  0.00    +0.040 C 
ATOM     15  C   UNL     1      48.767 158.531  29.312  0.00  0.00    +0.008 C 
ATOM     16  C   UNL     1      47.535 159.274  29.777  0.00  0.00    +0.026 C 
ATOM     17  C   UNL     1      47.414 159.044  31.244  0.00  0.00    -0.030 C 
ATOM     18  C   UNL     1      48.664 159.112  32.031  0.00  0.00    -0.020 C 
ATOM     19  C   UNL     1      49.891 159.487  31.339  0.00  0.00    +0.069 C 
BRANCH  19  20
ATOM     20  S   UNL     1      50.212 161.276  31.577  0.00  0.00    -0.148 S 
ATOM     21  H   UNL     1      51.287 161.723  30.874  0.00  0.00    +0.104 HD
BRANCH  20  22
ATOM     22  S   UNL     1      49.946 161.150  33.416  0.00  0.00    -0.122 S 
ATOM     23  H   UNL     1      48.709 160.641  33.661  0.00  0.00    +0.113 HD
ENDBRANCH  20  22
BRANCH  20  24
ATOM     24  S   UNL     1      48.868 162.232  31.376  0.00  0.00    -0.122 S 
ATOM     25  H   UNL     1      47.838 161.725  32.105  0.00  0.00    +0.113 HD
ENDBRANCH  20  24
ENDBRANCH  19  20
ENDBRANCH   1  14
BRANCH   1  26
ATOM     26  O   UNL     1      52.274 158.328  30.334  0.00  0.00    -0.278 OA
BRANCH  26  27
ATOM     27  P   UNL     1      53.190 159.643  30.062  0.00  0.00    +0.484 P 
ATOM     28  O   UNL     1      54.507 159.299  29.349  0.00  0.00    -0.227 OA
BRANCH  27  29
ATOM     29  O   UNL     1      52.513 160.917  29.233  0.00  0.00    -0.302 OA
ATOM     30  H   UNL     1      52.205 160.611  28.365  0.00  0.00    +0.222 HD
ENDBRANCH  27  29
BRANCH  27  31
ATOM     31  O   UNL     1      53.711 160.251  31.582  0.00  0.00    -0.186 OA
BRANCH  31  32
ATOM     32  P   UNL     1      54.411 161.779  31.357  0.00  0.00    +0.481 P 
ATOM     33  O   UNL     1      55.368 161.773  30.184  0.00  0.00    -0.227 OA
BRANCH  32  34
ATOM     34  O   UNL     1      53.176 162.863  31.007  0.00  0.00    -0.302 OA
ATOM     35  H   UNL     1      52.547 162.886  31.745  0.00  0.00    +0.222 HD
ENDBRANCH  32  34
BRANCH  32  36
ATOM     36  O   UNL     1      55.218 162.179  32.780  0.00  0.00    -0.302 OA
ATOM     37  H   UNL     1      55.921 161.531  32.946  0.00  0.00    +0.222 HD
ENDBRANCH  32  36
ENDBRANCH  31  32
ENDBRANCH  27  31
ENDBRANCH  26  27
ENDBRANCH   1  26
TORSDOF 12
