MODEL 1
REMARK VINA RESULT:    -7.656      0.000      0.000
REMARK INTER + INTRA:         -10.612
REMARK INTER:                 -11.236
REMARK INTRA:                   0.624
REMARK UNBOUND:                 0.624
REMARK  Name = =
REMARK  10 active torsions:
REMARK  status: ('A' for Active; 'I' for Inactive)
REMARK    1  A    between atoms: C_1  and  C_14
REMARK    2  A    between atoms: C_1  and  N_20
REMARK    3  A    between atoms: C_2  and  C_4
REMARK    4  A    between atoms: N_16  and  O_17
REMARK    5  A    between atoms: C_18  and  C_21
REMARK    6  A    between atoms: N_20  and  O_29
REMARK    7  A    between atoms: C_22  and  C_23
REMARK    8  A    between atoms: C_23  and  P_25
REMARK    9  A    between atoms: P_25  and  O_27
REMARK   10  A    between atoms: P_25  and  O_28
REMARK                            x       y       z     vdW  Elec       q    Type
REMARK                         _______ _______ _______ _____ _____    ______ ____
ROOT
ATOM      1  C   UNL     1      51.735 157.480  29.514  0.00  0.00    +0.141 C 
ATOM      2  C   UNL     1      50.444 157.670  29.773  0.00  0.00    +0.047 C 
ATOM      3  I   UNL     1      49.058 156.086  29.365  0.00  0.00    -0.041 I 
ENDROOT
BRANCH   2   4
ATOM      4  C   UNL     1      49.836 158.844  30.324  0.00  0.00    -0.011 C 
ATOM      5  C   UNL     1      49.750 159.082  31.679  0.00  0.00    +0.056 C 
ATOM      6  C   UNL     1      49.261 160.245  32.214  0.00  0.00    +0.017 C 
ATOM      7  C   UNL     1      48.831 161.231  31.352  0.00  0.00    +0.142 C 
ATOM      8  C   UNL     1      48.915 161.000  29.991  0.00  0.00    +0.037 C 
ATOM      9  C   UNL     1      49.402 159.840  29.441  0.00  0.00    -0.000 C 
ATOM     10  O   UNL     1      48.331 162.424  31.887  0.00  0.00    -0.451 OA
ATOM     11  C   UNL     1      48.236 162.684  33.254  0.00  0.00    +0.179 C 
ATOM     12  C   UNL     1      48.699 161.618  34.142  0.00  0.00    +0.040 C 
ATOM     13  C   UNL     1      49.178 160.480  33.643  0.00  0.00    +0.002 C 
ENDBRANCH   2   4
BRANCH   1  14
ATOM     14  C   UNL     1      52.737 158.510  29.554  0.00  0.00    +0.284 C 
ATOM     15  O   UNL     1      53.864 158.335  29.039  0.00  0.00    -0.267 OA
ATOM     16  N   UNL     1      52.566 159.774  30.141  0.00  0.00    -0.192 N 
ATOM     17  H   UNL     1      51.707 160.016  30.556  0.00  0.00    +0.183 HD
BRANCH  16  18
ATOM     18  O   UNL     1      53.628 160.690  30.131  0.00  0.00    -0.295 OA
ATOM     19  H   UNL     1      53.622 161.200  30.956  0.00  0.00    +0.241 HD
ENDBRANCH  16  18
ENDBRANCH   1  14
BRANCH   1  22
ATOM     20  C   UNL     1      52.529 155.859  27.695  0.00  0.00    +0.275 C 
ATOM     21  O   UNL     1      52.711 156.594  26.705  0.00  0.00    -0.267 OA
ATOM     22  N   UNL     1      52.120 156.220  28.979  0.00  0.00    -0.141 N 
BRANCH  20  23
ATOM     23  C   UNL     1      52.799 154.418  27.406  0.00  0.00    +0.061 C 
ATOM     24  C   UNL     1      52.885 154.025  26.171  0.00  0.00    +0.012 C 
BRANCH  24  25
ATOM     25  C   UNL     1      53.148 152.625  25.874  0.00  0.00    +0.080 C 
ATOM     26  C   UNL     1      52.418 151.696  26.428  0.00  0.00    +0.008 C 
BRANCH  25  27
ATOM     27  P   UNL     1      54.465 152.184  24.758  0.00  0.00    +0.359 P 
ATOM     28  O   UNL     1      54.552 150.664  24.635  0.00  0.00    -0.253 OA
BRANCH  27  29
ATOM     29  O   UNL     1      55.899 152.827  25.380  0.00  0.00    -0.321 OA
ATOM     30  H   UNL     1      56.604 152.746  24.719  0.00  0.00    +0.220 HD
ENDBRANCH  27  29
BRANCH  27  31
ATOM     31  O   UNL     1      54.154 152.846  23.215  0.00  0.00    -0.321 OA
ATOM     32  H   UNL     1      53.884 152.139  22.608  0.00  0.00    +0.220 HD
ENDBRANCH  27  31
ENDBRANCH  25  27
ENDBRANCH  24  25
ENDBRANCH  20  23
BRANCH  22  33
ATOM     33  O   UNL     1      52.043 155.148  29.874  0.00  0.00    -0.287 OA
ATOM     34  H   UNL     1      52.401 155.418  30.734  0.00  0.00    +0.242 HD
ENDBRANCH  22  33
ENDBRANCH   1  22
TORSDOF 10
ENDMDL
