REMARK  Name = =
REMARK  1 active torsions:
REMARK  status: ('A' for Active; 'I' for Inactive)
REMARK    1  A    between atoms: C_1  and  C_8
REMARK                            x       y       z     vdW  Elec       q    Type
REMARK                         _______ _______ _______ _____ _____    ______ ____
ROOT
ATOM      1  C   UNL     1      -5.331  -2.637  31.160  0.00  0.00    +0.059 C 
ATOM      2  C   UNL     1      -6.731  -2.518  31.734  0.00  0.00    +0.118 C 
ATOM      3  O   UNL     1      -7.093  -1.248  31.223  0.00  0.00    -0.359 OA
ATOM      4  C   UNL     1      -6.049  -0.476  31.782  0.00  0.00    +0.115 C 
ATOM      5  C   UNL     1      -4.788  -1.249  31.406  0.00  0.00    +0.034 C 
ATOM      6  C   UNL     1      -6.273  -0.792  33.269  0.00  0.00    +0.032 C 
ATOM      7  C   UNL     1      -6.726  -2.219  33.205  0.00  0.00    +0.032 C 
ENDROOT
BRANCH   1   8
ATOM      8  C   UNL     1      -4.533  -3.716  31.775  0.00  0.00    +0.147 C 
ATOM      9  C   UNL     1      -3.192  -4.081  31.462  0.00  0.00    +0.172 C 
ATOM     10  O   UNL     1      -4.252  -4.782  30.777  0.00  0.00    -0.351 OA
ENDBRANCH   1   8
TORSDOF 1
