REMARK  Name = =
REMARK  2 active torsions:
REMARK  status: ('A' for Active; 'I' for Inactive)
REMARK    1  A    between atoms: C_1  and  C_11
REMARK    2  A    between atoms: C_11  and  C_14
REMARK                            x       y       z     vdW  Elec       q    Type
REMARK                         _______ _______ _______ _____ _____    ______ ____
ROOT
ATOM      1  C   UNL     1       3.049 -12.506  24.391  0.00  0.00    -0.006 C 
ATOM      2  C   UNL     1       2.404 -11.416  24.098  0.00  0.00    -0.046 C 
ATOM      3  C   UNL     1       1.209 -11.344  23.284  0.00  0.00    +0.018 C 
ATOM      4  C   UNL     1       1.290 -10.148  22.310  0.00  0.00    +0.004 C 
ATOM      5  C   UNL     1      -0.007 -10.344  21.574  0.00  0.00    +0.000 C 
ATOM      6  C   UNL     1      -0.123 -11.856  21.367  0.00  0.00    +0.000 C 
ATOM      7  C   UNL     1       0.774 -12.476  22.457  0.00  0.00    +0.004 C 
ATOM      8  C   UNL     1       1.323  -8.874  23.047  0.00  0.00    +0.001 C 
ATOM      9  C   UNL     1       1.994  -8.955  24.391  0.00  0.00    +0.004 C 
ATOM     10  C   UNL     1       2.908 -10.099  24.626  0.00  0.00    +0.022 C 
ENDROOT
BRANCH   1  11
ATOM     11  C   UNL     1       4.259 -12.674  25.201  0.00  0.00    +0.140 C 
ATOM     12  C   UNL     1       4.216 -13.545  26.449  0.00  0.00    +0.174 C 
ATOM     13  O   UNL     1       4.259 -12.168  26.478  0.00  0.00    -0.349 OA
BRANCH  11  14
ATOM     14  C   UNL     1       5.576 -12.801  24.455  0.00  0.00    +0.061 C 
ATOM     15  C   UNL     1       6.428 -11.622  24.873  0.00  0.00    +0.118 C 
ATOM     16  O   UNL     1       6.171 -10.681  23.857  0.00  0.00    -0.359 OA
ATOM     17  C   UNL     1       6.422 -11.476  22.715  0.00  0.00    +0.115 C 
ATOM     18  C   UNL     1       5.436 -12.621  22.982  0.00  0.00    +0.035 C 
ATOM     19  C   UNL     1       7.820 -11.975  23.017  0.00  0.00    +0.032 C 
ATOM     20  C   UNL     1       7.876 -12.002  24.530  0.00  0.00    +0.032 C 
ENDBRANCH  11  14
ENDBRANCH   1  11
TORSDOF 2
