MODEL 1
REMARK VINA RESULT:   -10.280      0.000      0.000
REMARK INTER + INTRA:         -14.520
REMARK INTER:                 -12.984
REMARK INTRA:                  -1.535
REMARK UNBOUND:                -1.535
REMARK  Name = =
REMARK  5 active torsions:
REMARK  status: ('A' for Active; 'I' for Inactive)
REMARK    1  A    between atoms: C_1  and  N_24
REMARK    2  A    between atoms: C_3  and  N_34
REMARK    3  A    between atoms: N_4  and  N_6
REMARK    4  A    between atoms: C_10  and  N_18
REMARK    5  A    between atoms: C_29  and  N_33
REMARK                            x       y       z     vdW  Elec       q    Type
REMARK                         _______ _______ _______ _____ _____    ______ ____
ROOT
ATOM      1  C   UNL     1       3.764  -4.123  27.881  0.00  0.00    +0.148 C 
ATOM      2  S   UNL     1       2.720  -2.615  28.045  0.00  0.00    -0.086 S 
ATOM      3  C   UNL     1       1.398  -3.428  29.041  0.00  0.00    +0.187 C 
ATOM      4  N   UNL     1       1.888  -4.727  29.122  0.00  0.00    -0.178 NA
ATOM      5  C   UNL     1       2.635  -5.156  28.022  0.00  0.00    +0.126 C 
ENDROOT
BRANCH   4   6
ATOM      6  N   UNL     1       1.521  -5.573  30.099  0.00  0.00    -0.234 N 
ATOM      7  C   UNL     1       0.664  -6.754  29.887  0.00  0.00    +0.167 C 
ATOM      8  N   UNL     1      -0.381  -6.361  28.978  0.00  0.00    -0.197 NA
ATOM      9  C   UNL     1      -1.603  -6.256  29.713  0.00  0.00    +0.111 C 
ATOM     10  C   UNL     1      -1.280  -6.277  31.176  0.00  0.00    +0.100 C 
ATOM     11  C   UNL     1       0.040  -7.035  31.209  0.00  0.00    +0.079 C 
ATOM     12  C   UNL     1       0.988  -6.424  32.174  0.00  0.00    -0.003 C 
ATOM     13  C   UNL     1       1.819  -5.588  31.488  0.00  0.00    +0.060 C 
ATOM     14  C   UNL     1       2.801  -4.898  32.205  0.00  0.00    +0.016 C 
ATOM     15  C   UNL     1       2.923  -5.059  33.569  0.00  0.00    +0.001 C 
ATOM     16  C   UNL     1       2.064  -5.912  34.231  0.00  0.00    -0.000 C 
ATOM     17  C   UNL     1       1.088  -6.607  33.556  0.00  0.00    -0.003 C 
BRANCH  10  18
ATOM     18  N   UNL     1      -2.291  -6.968  31.944  0.00  0.00    -0.279 N 
ATOM     19  C   UNL     1      -2.196  -8.299  32.448  0.00  0.00    +0.094 C 
ATOM     20  C   UNL     1      -3.402  -8.528  33.330  0.00  0.00    +0.031 C 
ATOM     21  C   UNL     1      -4.386  -7.447  33.005  0.00  0.00    +0.087 C 
ATOM     22  C   UNL     1      -3.545  -6.430  32.325  0.00  0.00    +0.226 C 
ATOM     23  O   UNL     1      -3.887  -5.241  32.104  0.00  0.00    -0.275 OA
ENDBRANCH  10  18
ENDBRANCH   4   6
BRANCH   1  24
ATOM     24  N   UNL     1       4.408  -4.191  26.618  0.00  0.00    -0.245 N 
ATOM     25  C   UNL     1       5.339  -3.322  26.182  0.00  0.00    +0.159 C 
ATOM     26  N   UNL     1       5.921  -2.214  26.723  0.00  0.00    -0.207 NA
ATOM     27  C   UNL     1       6.849  -1.497  26.077  0.00  0.00    +0.201 C 
ATOM     28  N   UNL     1       7.232  -1.869  24.848  0.00  0.00    -0.208 NA
ATOM     29  C   UNL     1       6.710  -2.948  24.239  0.00  0.00    +0.148 C 
ATOM     30  C   UNL     1       5.759  -3.674  24.916  0.00  0.00    +0.146 C 
ATOM     31  N   UNL     1       5.057  -4.779  24.595  0.00  0.00    -0.222 NA
ATOM     32  C   UNL     1       4.247  -5.080  25.630  0.00  0.00    +0.170 C 
BRANCH  29  33
ATOM     33  N   UNL     1       7.135  -3.313  22.945  0.00  0.00    -0.341 N 
ATOM     34  H   UNL     1       6.568  -3.892  22.386  0.00  0.00    +0.144 HD
ATOM     35  H   UNL     1       7.999  -2.989  22.601  0.00  0.00    +0.144 HD
ENDBRANCH  29  33
ENDBRANCH   1  24
BRANCH   3  36
ATOM     36  N   UNL     1       0.103  -3.204  28.493  0.00  0.00    -0.251 NA
ATOM     37  C   UNL     1      -0.687  -2.545  29.547  0.00  0.00    +0.074 C 
ATOM     38  C   UNL     1      -1.775  -1.790  28.855  0.00  0.00    +0.019 C 
ATOM     39  C   UNL     1      -1.367  -1.718  27.419  0.00  0.00    +0.019 C 
ATOM     40  C   UNL     1       0.065  -2.222  27.453  0.00  0.00    +0.074 C 
ENDBRANCH   3  36
TORSDOF 5
ENDMDL
