MODEL 1
REMARK VINA RESULT:    -9.258      0.000      0.000
REMARK INTER + INTRA:         -10.792
REMARK INTER:                 -11.965
REMARK INTRA:                   1.173
REMARK UNBOUND:                 1.173
REMARK  Name = =
REMARK  5 active torsions:
REMARK  status: ('A' for Active; 'I' for Inactive)
REMARK    1  A    between atoms: N_1  and  C_9
REMARK    2  A    between atoms: C_2  and  C_27
REMARK    3  A    between atoms: C_9  and  N_25
REMARK    4  A    between atoms: C_17  and  C_19
REMARK    5  A    between atoms: C_27  and  C_33
REMARK                            x       y       z     vdW  Elec       q    Type
REMARK                         _______ _______ _______ _____ _____    ______ ____
ROOT
ATOM      1  N   UNL     1     -22.040 -42.419  22.457  0.00  0.00    -0.266 N 
ATOM      2  C   UNL     1     -22.163 -41.499  21.425  0.00  0.00    +0.081 C 
ATOM      3  C   UNL     1     -22.129 -42.259  20.071  0.00  0.00    +0.020 C 
ATOM      4  C   UNL     1     -23.469 -42.652  19.581  0.00  0.00    +0.002 C 
ATOM      5  C   UNL     1     -24.476 -43.027  20.609  0.00  0.00    +0.010 C 
ATOM      6  C   UNL     1     -23.924 -44.108  21.493  0.00  0.00    +0.085 C 
ATOM      7  C   UNL     1     -22.834 -43.658  22.359  0.00  0.00    +0.227 C 
ATOM      8  O   UNL     1     -22.523 -44.557  23.206  0.00  0.00    -0.275 OA
ENDROOT
BRANCH   1   9
ATOM      9  C   UNL     1     -21.373 -42.458  23.700  0.00  0.00    +0.145 C 
ATOM     10  C   UNL     1     -21.707 -41.121  24.412  0.00  0.00    +0.038 C 
ATOM     11  C   UNL     1     -23.164 -41.078  24.719  0.00  0.00    +0.004 C 
ATOM     12  C   UNL     1     -23.433 -41.410  26.199  0.00  0.00    +0.000 C 
ATOM     13  C   UNL     1     -22.902 -40.199  26.973  0.00  0.00    +0.000 C 
ATOM     14  C   UNL     1     -21.461 -40.038  26.619  0.00  0.00    +0.000 C 
ATOM     15  C   UNL     1     -20.944 -41.130  25.721  0.00  0.00    +0.003 C 
ATOM     16  C   UNL     1     -19.507 -40.777  25.320  0.00  0.00    +0.001 C 
ATOM     17  C   UNL     1     -19.014 -41.951  24.508  0.00  0.00    +0.010 C 
ATOM     18  C   UNL     1     -19.881 -42.393  23.403  0.00  0.00    +0.042 C 
BRANCH  17  19
ATOM     19  C   UNL     1     -17.680 -41.549  23.944  0.00  0.00    +0.058 C 
ATOM     20  C   UNL     1     -17.397 -40.920  22.823  0.00  0.00    +0.008 C 
ATOM     21  C   UNL     1     -15.935 -40.729  22.661  0.00  0.00    +0.008 C 
ATOM     22  C   UNL     1     -15.275 -41.532  23.734  0.00  0.00    +0.065 C 
ATOM     23  C   UNL     1     -16.412 -41.841  24.642  0.00  0.00    +0.150 C 
ATOM     24  O   UNL     1     -16.258 -42.277  25.805  0.00  0.00    -0.296 OA
ENDBRANCH  17  19
BRANCH   9  25
ATOM     25  N   UNL     1     -21.693 -43.349  24.702  0.00  0.00    -0.252 NA
ATOM     26  C   UNL     1     -21.081 -44.185  25.370  0.00  0.00    +0.115 C 
ENDBRANCH   9  25
ENDBRANCH   1   9
BRANCH   2  27
ATOM     27  C   UNL     1     -21.405 -40.275  21.198  0.00  0.00    +0.038 C 
ATOM     28  C   UNL     1     -20.162 -40.467  20.455  0.00  0.00    +0.024 C 
ATOM     29  C   UNL     1     -19.197 -39.318  20.451  0.00  0.00    +0.089 C 
ATOM     30  N   UNL     1     -19.678 -38.123  21.069  0.00  0.00    -0.218 NA
ATOM     31  C   UNL     1     -20.175 -38.419  22.389  0.00  0.00    +0.089 C 
ATOM     32  C   UNL     1     -21.307 -39.371  22.420  0.00  0.00    +0.024 C 
BRANCH  27  33
ATOM     33  C   UNL     1     -22.320 -39.401  20.324  0.00  0.00    -0.021 C 
ATOM     34  C   UNL     1     -22.082 -39.170  19.011  0.00  0.00    -0.007 C 
ATOM     35  C   UNL     1     -22.931 -38.373  18.271  0.00  0.00    -0.009 C 
ATOM     36  C   UNL     1     -24.024 -37.808  18.865  0.00  0.00    -0.009 C 
ATOM     37  C   UNL     1     -24.254 -38.047  20.191  0.00  0.00    -0.004 C 
ATOM     38  C   UNL     1     -23.416 -38.841  20.946  0.00  0.00    -0.005 C 
ATOM     39  C   UNL     1     -24.736 -37.027  17.856  0.00  0.00    +0.096 C 
ATOM     40  N   UNL     1     -24.037 -37.169  16.618  0.00  0.00    -0.290 NA
ATOM     41  C   UNL     1     -22.866 -37.990  16.836  0.00  0.00    +0.096 C 
ATOM     42  H   UNL     1     -23.753 -36.251  16.277  0.00  0.00    +0.124 HD
ENDBRANCH  27  33
ENDBRANCH   2  27
TORSDOF 5
ENDMDL
