REMARK  Name = =
REMARK  1 active torsions:
REMARK  status: ('A' for Active; 'I' for Inactive)
REMARK    1  A    between atoms: C_1  and  C_18
REMARK                            x       y       z     vdW  Elec       q    Type
REMARK                         _______ _______ _______ _____ _____    ______ ____
ROOT
ATOM      1  C   UNL     1       1.213  -8.240  29.560  0.00  0.00    +0.142 C 
ATOM      2  O   UNL     1       1.827  -9.311  30.250  0.00  0.00    -0.349 OA
ATOM      3  C   UNL     1       2.313 -10.318  29.488  0.00  0.00    +0.174 C 
ATOM      4  C   UNL     1       3.101  -9.875  28.293  0.00  0.00    +0.174 C 
ATOM      5  O   UNL     1       4.431  -9.880  28.431  0.00  0.00    -0.326 OA
ATOM      6  C   UNL     1       5.096  -8.693  28.470  0.00  0.00    +0.264 C 
ATOM      7  O   UNL     1       6.347  -8.885  27.943  0.00  0.00    -0.321 OA
ATOM      8  C   UNL     1       6.999  -7.759  27.503  0.00  0.00    +0.209 C 
ATOM      9  C   UNL     1       6.196  -7.144  26.431  0.00  0.00    +0.183 C 
ATOM     10  O   UNL     1       6.693  -6.442  25.603  0.00  0.00    -0.293 OA
ATOM     11  C   UNL     1       4.738  -7.422  26.425  0.00  0.00    +0.102 C 
ATOM     12  C   UNL     1       4.358  -7.535  27.908  0.00  0.00    +0.179 C 
ATOM     13  O   UNL     1       3.020  -7.538  28.122  0.00  0.00    -0.350 OA
ATOM     14  C   UNL     1       2.469  -8.716  27.577  0.00  0.00    +0.148 C 
ATOM     15  C   UNL     1       1.011  -8.728  28.147  0.00  0.00    +0.066 C 
ENDROOT
BRANCH   1  18
ATOM     16  F   UNL     1       0.877  -9.112  32.190  0.00  0.00    -0.204 F 
ATOM     17  C   UNL     1      -0.180  -8.488  31.570  0.00  0.00    +0.138 C 
ATOM     18  C   UNL     1      -0.035  -7.971  30.298  0.00  0.00    +0.032 C 
ATOM     19  C   UNL     1      -1.088  -7.335  29.694  0.00  0.00    +0.000 C 
ATOM     20  C   UNL     1      -2.318  -7.196  30.358  0.00  0.00    -0.000 C 
ATOM     21  C   UNL     1      -2.447  -7.723  31.623  0.00  0.00    +0.002 C 
ATOM     22  C   UNL     1      -1.380  -8.363  32.220  0.00  0.00    +0.029 C 
ENDBRANCH   1  18
TORSDOF 1
