MODEL 1
REMARK VINA RESULT:    -8.826      0.000      0.000
REMARK INTER + INTRA:         -15.751
REMARK INTER:                 -15.275
REMARK INTRA:                  -0.476
REMARK UNBOUND:                -0.476
REMARK  Name = =
REMARK  15 active torsions:
REMARK  status: ('A' for Active; 'I' for Inactive)
REMARK    1  A    between atoms: C_1  and  N_8
REMARK    2  A    between atoms: C_1  and  N_24
REMARK    3  A    between atoms: C_7  and  O_22
REMARK    4  A    between atoms: N_11  and  N_13
REMARK    5  A    between atoms: N_13  and  N_16
REMARK    6  A    between atoms: C_14  and  O_21
REMARK    7  A    between atoms: O_22  and  N_23
REMARK    8  A    between atoms: N_24  and  P_25
REMARK    9  A    between atoms: P_25  and  N_27
REMARK   10  A    between atoms: P_25  and  N_28
REMARK   11  A    between atoms: N_28  and  O_29
REMARK   12  A    between atoms: O_29  and  C_30
REMARK   13  A    between atoms: C_32  and  O_39
REMARK   14  A    between atoms: C_34  and  O_38
REMARK   15  A    between atoms: C_35  and  C_36
REMARK                            x       y       z     vdW  Elec       q    Type
REMARK                         _______ _______ _______ _____ _____    ______ ____
ROOT
ATOM      1  C   UNL     1       0.866  -4.783  29.826  0.00  0.00    +0.125 C 
ATOM      2  C   UNL     1       2.210  -4.429  30.511  0.00  0.00    +0.052 C 
ATOM      3  C   UNL     1       2.422  -5.347  31.696  0.00  0.00    +0.072 C 
ATOM      4  N   UNL     1       1.170  -5.593  32.380  0.00  0.00    -0.297 NA
ATOM      5  C   UNL     1       0.461  -6.554  31.588  0.00  0.00    +0.072 C 
ATOM      6  C   UNL     1       0.496  -6.187  30.143  0.00  0.00    +0.052 C 
ATOM      7  H   UNL     1       0.632  -4.730  32.453  0.00  0.00    +0.123 HD
ENDROOT
BRANCH   1   9
ATOM      8  C   UNL     1       0.926  -5.699  27.464  0.00  0.00    +0.431 C 
ATOM      9  N   UNL     1       1.157  -4.664  28.383  0.00  0.00    -0.168 N 
ATOM     10  C   UNL     1       1.662  -3.415  27.907  0.00  0.00    +0.330 C 
ATOM     11  O   UNL     1       1.801  -2.503  28.812  0.00  0.00    -0.250 OA
ATOM     12  N   UNL     1       2.018  -3.047  26.621  0.00  0.00    -0.198 N 
ATOM     13  O   UNL     1       1.211  -5.563  26.254  0.00  0.00    -0.224 OA
ATOM     14  H   UNL     1       1.938  -3.693  25.882  0.00  0.00    +0.176 HD
BRANCH  12  15
ATOM     15  N   UNL     1       2.502  -1.730  26.370  0.00  0.00    -0.108 N 
ATOM     16  C   UNL     1       1.574  -0.673  26.332  0.00  0.00    +0.432 C 
ATOM     17  O   UNL     1       1.925   0.504  26.121  0.00  0.00    -0.223 OA
BRANCH  15  18
ATOM     18  N   UNL     1       3.856  -1.554  26.181  0.00  0.00    -0.165 NA
ATOM     19  C   UNL     1       4.300  -1.695  24.826  0.00  0.00    +0.113 C 
ATOM     20  C   UNL     1       4.874  -3.096  24.788  0.00  0.00    +0.089 C 
ATOM     21  N   UNL     1       5.416  -3.264  26.099  0.00  0.00    -0.281 NA
ATOM     22  C   UNL     1       4.721  -2.346  26.991  0.00  0.00    +0.165 C 
ATOM     23  H   UNL     1       6.415  -3.051  26.091  0.00  0.00    +0.125 HD
ENDBRANCH  15  18
BRANCH  16  24
ATOM     24  O   UNL     1       0.225  -0.913  26.527  0.00  0.00    -0.464 OA
ATOM     25  H   UNL     1      -0.176  -1.669  26.146  0.00  0.00    +0.297 HD
ENDBRANCH  16  24
ENDBRANCH  12  15
BRANCH   8  26
ATOM     26  O   UNL     1       0.383  -6.946  27.733  0.00  0.00    -0.357 OA
BRANCH  26  27
ATOM     27  N   UNL     1      -0.864  -7.257  27.273  0.00  0.00    -0.164 NA
ATOM     28  H   UNL     1      -1.188  -6.521  26.645  0.00  0.00    +0.163 HD
ATOM     29  H   UNL     1      -1.507  -7.339  28.061  0.00  0.00    +0.163 HD
ENDBRANCH  26  27
ENDBRANCH   8  26
ENDBRANCH   1   9
BRANCH   1  30
ATOM     30  N   UNL     1      -0.066  -3.869  30.329  0.00  0.00    -0.217 NA
ATOM     31  H   UNL     1       0.421  -2.976  30.401  0.00  0.00    +0.134 HD
BRANCH  30  32
ATOM     32  P   UNL     1      -1.514  -3.552  29.546  0.00  0.00    +0.312 P 
ATOM     33  O   UNL     1      -2.497  -2.726  30.390  0.00  0.00    -0.267 OA
BRANCH  32  34
ATOM     34  N   UNL     1      -1.412  -2.794  27.993  0.00  0.00    -0.255 NA
ATOM     35  H   UNL     1      -2.226  -2.196  27.852  0.00  0.00    +0.128 HD
ATOM     36  H   UNL     1      -1.387  -3.510  27.267  0.00  0.00    +0.128 HD
ENDBRANCH  32  34
BRANCH  32  37
ATOM     37  N   UNL     1      -2.370  -5.078  29.290  0.00  0.00    -0.075 NA
ATOM     38  H   UNL     1      -1.723  -5.853  29.435  0.00  0.00    +0.178 HD
BRANCH  37  39
ATOM     39  O   UNL     1      -3.419  -5.198  30.165  0.00  0.00    -0.397 OA
BRANCH  39  40
ATOM     40  C   UNL     1      -3.320  -6.114  31.217  0.00  0.00    +0.175 C 
ATOM     41  C   UNL     1      -2.901  -7.402  31.001  0.00  0.00    +0.076 C 
ATOM     42  C   UNL     1      -2.803  -8.304  32.025  0.00  0.00    +0.140 C 
ATOM     43  C   UNL     1      -3.124  -7.923  33.287  0.00  0.00    +0.073 C 
ATOM     44  C   UNL     1      -3.549  -6.628  33.528  0.00  0.00    +0.143 C 
ATOM     45  C   UNL     1      -3.654  -5.699  32.493  0.00  0.00    +0.112 C 
BRANCH  45  46
ATOM     46  C   UNL     1      -4.090  -4.337  32.675  0.00  0.00    +0.240 C 
ATOM     47  O   UNL     1      -3.990  -3.679  33.726  0.00  0.00    -0.283 OA
ENDBRANCH  45  46
BRANCH  44  48
ATOM     48  O   UNL     1      -3.863  -6.289  34.814  0.00  0.00    -0.505 OA
ATOM     49  H   UNL     1      -4.570  -6.720  35.253  0.00  0.00    +0.292 HD
ENDBRANCH  44  48
BRANCH  42  50
ATOM     50  O   UNL     1      -2.377  -9.605  31.804  0.00  0.00    -0.505 OA
ATOM     51  H   UNL     1      -1.729  -9.986  32.362  0.00  0.00    +0.292 HD
ENDBRANCH  42  50
ENDBRANCH  39  40
ENDBRANCH  37  39
ENDBRANCH  32  37
ENDBRANCH  30  32
ENDBRANCH   1  30
TORSDOF 15
ENDMDL
