REMARK  Name = =
REMARK  0 active torsions:
REMARK  status: ('A' for Active; 'I' for Inactive)
REMARK                            x       y       z     vdW  Elec       q    Type
REMARK                         _______ _______ _______ _____ _____    ______ ____
ROOT
ATOM      1  N   UNL     1      53.012 156.007  27.888  0.00  0.00    -0.216 NA
ATOM      2  C   UNL     1      52.704 155.375  26.652  0.00  0.00    +0.107 C 
ATOM      3  C   UNL     1      53.297 153.968  26.548  0.00  0.00    +0.107 C 
ATOM      4  N   UNL     1      53.127 153.214  27.751  0.00  0.00    -0.216 NA
ATOM      5  C   UNL     1      51.803 153.440  28.293  0.00  0.00    +0.090 C 
ATOM      6  C   UNL     1      51.923 154.414  29.417  0.00  0.00    +0.038 C 
ATOM      7  C   UNL     1      52.053 155.829  28.931  0.00  0.00    +0.090 C 
ENDROOT
TORSDOF 0
