REMARK  Name = =
REMARK  1 active torsions:
REMARK  status: ('A' for Active; 'I' for Inactive)
REMARK    1  A    between atoms: C_7  and  O_10
REMARK                            x       y       z     vdW  Elec       q    Type
REMARK                         _______ _______ _______ _____ _____    ______ ____
ROOT
ATOM      1  C   UNL     1      50.907 156.071  29.115  0.00  0.00    -0.026 C 
ATOM      2  C   UNL     1      52.100 156.606  28.695  0.00  0.00    -0.023 C 
ATOM      3  C   UNL     1      52.840 155.630  27.839  0.00  0.00    +0.026 C 
ATOM      4  C   UNL     1      52.278 154.324  28.424  0.00  0.00    +0.009 C 
ATOM      5  C   UNL     1      50.818 154.711  28.540  0.00  0.00    +0.026 C 
ATOM      6  C   UNL     1      52.484 157.881  29.066  0.00  0.00    +0.032 C 
ATOM      7  C   UNL     1      51.690 158.672  29.871  0.00  0.00    +0.133 C 
ATOM      8  C   UNL     1      50.498 158.124  30.284  0.00  0.00    +0.036 C 
ATOM      9  C   UNL     1      50.100 156.853  29.924  0.00  0.00    -0.001 C 
ENDROOT
BRANCH   7  10
ATOM     10  O   UNL     1      52.070 159.961  30.250  0.00  0.00    -0.506 OA
ATOM     11  H   UNL     1      52.887 160.314  29.957  0.00  0.00    +0.292 HD
ENDBRANCH   7  10
TORSDOF 1
