REMARK  Name = =
REMARK  0 active torsions:
REMARK  status: ('A' for Active; 'I' for Inactive)
REMARK                            x       y       z     vdW  Elec       q    Type
REMARK                         _______ _______ _______ _____ _____    ______ ____
ROOT
ATOM      1  C   UNL     1      48.531 158.749  30.099  0.00  0.00    +0.009 C 
ATOM      2  C   UNL     1      48.832 157.308  30.456  0.00  0.00    +0.026 C 
ATOM      3  C   UNL     1      50.266 157.209  30.080  0.00  0.00    -0.026 C 
ATOM      4  C   UNL     1      50.828 158.456  30.238  0.00  0.00    -0.026 C 
ATOM      5  C   UNL     1      49.767 159.415  30.719  0.00  0.00    +0.026 C 
ATOM      6  C   UNL     1      52.164 158.661  29.962  0.00  0.00    -0.005 C 
ATOM      7  C   UNL     1      52.972 157.631  29.522  0.00  0.00    -0.000 C 
ATOM      8  C   UNL     1      52.384 156.386  29.370  0.00  0.00    -0.000 C 
ATOM      9  C   UNL     1      51.056 156.144  29.635  0.00  0.00    -0.005 C 
ENDROOT
TORSDOF 0
