REMARK  Name = =
REMARK  1 active torsions:
REMARK  status: ('A' for Active; 'I' for Inactive)
REMARK    1  A    between atoms: C_6  and  N_10
REMARK                            x       y       z     vdW  Elec       q    Type
REMARK                         _______ _______ _______ _____ _____    ______ ____
ROOT
ATOM      1  N   UNL     1      54.640 157.522  27.230  0.00  0.00    -0.223 NA
ATOM      2  C   UNL     1      53.677 156.705  27.474  0.00  0.00    +0.098 C 
ATOM      3  C   UNL     1      53.537 155.764  26.466  0.00  0.00    +0.097 C 
ATOM      4  N   UNL     1      54.439 156.006  25.573  0.00  0.00    -0.225 NA
ATOM      5  C   UNL     1      55.229 157.147  25.972  0.00  0.00    +0.199 C 
ATOM      6  C   UNL     1      52.556 154.796  26.541  0.00  0.00    +0.122 C 
ATOM      7  C   UNL     1      51.715 154.775  27.631  0.00  0.00    -0.004 C 
ATOM      8  C   UNL     1      51.847 155.721  28.654  0.00  0.00    -0.001 C 
ATOM      9  C   UNL     1      52.812 156.670  28.577  0.00  0.00    +0.020 C 
ENDROOT
BRANCH   6  10
ATOM     10  N   UNL     1      52.456 153.862  25.488  0.00  0.00    -0.264 NA
ATOM     11  C   UNL     1      53.543 154.032  24.590  0.00  0.00    +0.092 C 
ATOM     12  C   UNL     1      53.782 152.840  23.681  0.00  0.00    +0.106 C 
ATOM     13  N   UNL     1      54.634 151.843  24.275  0.00  0.00    -0.217 NA
ATOM     14  C   UNL     1      53.831 150.921  25.071  0.00  0.00    +0.090 C 
ATOM     15  C   UNL     1      53.370 151.717  26.285  0.00  0.00    +0.036 C 
ATOM     16  C   UNL     1      52.186 152.530  25.899  0.00  0.00    +0.074 C 
ENDBRANCH   6  10
TORSDOF 1
