REMARK  Name = =
REMARK  2 active torsions:
REMARK  status: ('A' for Active; 'I' for Inactive)
REMARK    1  A    between atoms: N_1  and  C_7
REMARK    2  A    between atoms: N_4  and  C_16
REMARK                            x       y       z     vdW  Elec       q    Type
REMARK                         _______ _______ _______ _____ _____    ______ ____
ROOT
ATOM      1  N   UNL     1      50.097 160.014  29.731  0.00  0.00    -0.270 NA
ATOM      2  C   UNL     1      49.116 159.006  29.554  0.00  0.00    +0.094 C 
ATOM      3  C   UNL     1      49.619 157.588  29.736  0.00  0.00    +0.108 C 
ATOM      4  N   UNL     1      50.854 157.385  28.982  0.00  0.00    -0.305 N 
ATOM      5  C   UNL     1      51.381 158.551  28.345  0.00  0.00    +0.108 C 
ATOM      6  C   UNL     1      51.438 159.637  29.430  0.00  0.00    +0.094 C 
ENDROOT
BRANCH   1   7
ATOM      7  C   UNL     1      50.058 160.705  30.987  0.00  0.00    +0.066 C 
ATOM      8  C   UNL     1      49.734 159.863  32.161  0.00  0.00    +0.042 C 
ATOM      9  C   UNL     1      49.130 160.799  33.129  0.00  0.00    -0.025 C 
ATOM     10  C   UNL     1      48.572 161.831  32.411  0.00  0.00    -0.025 C 
ATOM     11  C   UNL     1      48.809 161.605  30.938  0.00  0.00    +0.042 C 
ATOM     12  C   UNL     1      47.935 162.839  33.102  0.00  0.00    -0.005 C 
ATOM     13  C   UNL     1      47.858 162.820  34.475  0.00  0.00    -0.000 C 
ATOM     14  C   UNL     1      48.412 161.795  35.208  0.00  0.00    -0.000 C 
ATOM     15  C   UNL     1      49.049 160.782  34.527  0.00  0.00    -0.005 C 
ENDBRANCH   1   7
BRANCH   4  16
ATOM     16  C   UNL     1      51.430 156.101  28.926  0.00  0.00    +0.048 C 
ATOM     17  C   UNL     1      50.577 154.987  28.901  0.00  0.00    +0.017 C 
ATOM     18  C   UNL     1      51.094 153.712  28.847  0.00  0.00    +0.031 C 
ATOM     19  C   UNL     1      52.462 153.512  28.816  0.00  0.00    +0.140 C 
ATOM     20  C   UNL     1      53.269 154.617  28.841  0.00  0.00    +0.031 C 
ATOM     21  C   UNL     1      52.797 155.895  28.894  0.00  0.00    +0.017 C 
ATOM     22  F   UNL     1      52.931 152.233  28.761  0.00  0.00    -0.204 F 
ENDBRANCH   4  16
TORSDOF 2
