REMARK  Name = =
REMARK  5 active torsions:
REMARK  status: ('A' for Active; 'I' for Inactive)
REMARK    1  A    between atoms: C_6  and  N_10
REMARK    2  A    between atoms: C_8  and  N_17
REMARK    3  A    between atoms: N_17  and  P_18
REMARK    4  A    between atoms: P_18  and  N_20
REMARK    5  A    between atoms: P_18  and  O_21
REMARK                            x       y       z     vdW  Elec       q    Type
REMARK                         _______ _______ _______ _____ _____    ______ ____
ROOT
ATOM      1  N   UNL     1      53.854 158.161  25.669  0.00  0.00    -0.223 NA
ATOM      2  C   UNL     1      53.563 156.927  25.948  0.00  0.00    +0.099 C 
ATOM      3  C   UNL     1      54.460 156.055  25.339  0.00  0.00    +0.097 C 
ATOM      4  N   UNL     1      55.305 156.764  24.684  0.00  0.00    -0.225 NA
ATOM      5  C   UNL     1      55.005 158.168  24.830  0.00  0.00    +0.199 C 
ATOM      6  C   UNL     1      54.343 154.684  25.498  0.00  0.00    +0.124 C 
ATOM      7  C   UNL     1      53.311 154.245  26.275  0.00  0.00    +0.010 C 
ATOM      8  C   UNL     1      52.406 155.090  26.889  0.00  0.00    +0.051 C 
ATOM      9  C   UNL     1      52.536 156.459  26.722  0.00  0.00    +0.035 C 
ENDROOT
BRANCH   6  10
ATOM     10  N   UNL     1      55.225 153.838  24.900  0.00  0.00    -0.264 NA
ATOM     11  C   UNL     1      55.005 153.481  23.544  0.00  0.00    +0.092 C 
ATOM     12  C   UNL     1      53.847 152.548  23.317  0.00  0.00    +0.106 C 
ATOM     13  N   UNL     1      53.270 152.090  24.567  0.00  0.00    -0.217 NA
ATOM     14  C   UNL     1      54.083 151.092  25.201  0.00  0.00    +0.090 C 
ATOM     15  C   UNL     1      55.544 151.409  25.163  0.00  0.00    +0.036 C 
ATOM     16  C   UNL     1      55.851 152.819  25.623  0.00  0.00    +0.074 C 
ENDBRANCH   6  10
BRANCH   8  17
ATOM     17  N   UNL     1      51.340 154.613  27.693  0.00  0.00    -0.261 N 
ATOM     18  H   UNL     1      50.830 153.820  27.409  0.00  0.00    +0.157 HD
BRANCH  17  19
ATOM     19  P   UNL     1      50.928 155.416  29.174  0.00  0.00    +0.355 P 
ATOM     20  O   UNL     1      51.634 156.750  29.298  0.00  0.00    -0.251 OA
BRANCH  19  21
ATOM     21  N   UNL     1      49.215 155.728  29.307  0.00  0.00    -0.244 NA
ATOM     22  H   UNL     1      48.919 156.333  28.541  0.00  0.00    +0.129 HD
ATOM     23  H   UNL     1      49.021 156.187  30.197  0.00  0.00    +0.129 HD
ENDBRANCH  19  21
BRANCH  19  24
ATOM     24  O   UNL     1      51.395 154.406  30.461  0.00  0.00    -0.319 OA
ATOM     25  H   UNL     1      52.346 154.224  30.400  0.00  0.00    +0.220 HD
ENDBRANCH  19  24
ENDBRANCH  17  19
ENDBRANCH   8  17
TORSDOF 5
