REMARK  Name = =
REMARK  4 active torsions:
REMARK  status: ('A' for Active; 'I' for Inactive)
REMARK    1  A    between atoms: C_1  and  C_11
REMARK    2  A    between atoms: C_1  and  N_17
REMARK    3  A    between atoms: C_13  and  O_16
REMARK    4  A    between atoms: N_20  and  C_23
REMARK                            x       y       z     vdW  Elec       q    Type
REMARK                         _______ _______ _______ _____ _____    ______ ____
ROOT
ATOM      1  C   UNL     1      50.516 160.769  31.031  0.00  0.00    +0.073 C 
ATOM      2  C   UNL     1      51.758 160.042  31.441  0.00  0.00    +0.045 C 
ATOM      3  C   UNL     1      52.841 161.019  31.104  0.00  0.00    -0.024 C 
ATOM      4  C   UNL     1      52.386 161.965  30.250  0.00  0.00    -0.024 C 
ATOM      5  C   UNL     1      50.949 161.686  29.950  0.00  0.00    +0.045 C 
ATOM      6  C   UNL     1      53.245 162.956  29.821  0.00  0.00    -0.005 C 
ATOM      7  C   UNL     1      54.554 162.985  30.260  0.00  0.00    -0.000 C 
ATOM      8  C   UNL     1      54.992 162.019  31.123  0.00  0.00    -0.000 C 
ATOM      9  C   UNL     1      54.168 161.010  31.579  0.00  0.00    -0.005 C 
ENDROOT
BRANCH   1  11
ATOM     10  C   UNL     1      50.390 162.727  32.632  0.00  0.00    -0.003 C 
ATOM     11  C   UNL     1      50.010 161.483  32.249  0.00  0.00    -0.006 C 
ATOM     12  C   UNL     1      49.051 160.768  32.981  0.00  0.00    +0.034 C 
ATOM     13  C   UNL     1      48.505 161.362  34.097  0.00  0.00    +0.133 C 
ATOM     14  C   UNL     1      48.878 162.631  34.501  0.00  0.00    +0.037 C 
ATOM     15  C   UNL     1      49.826 163.287  33.744  0.00  0.00    +0.003 C 
BRANCH  13  16
ATOM     16  O   UNL     1      47.554 160.704  34.862  0.00  0.00    -0.506 OA
ATOM     17  H   UNL     1      47.274 159.843  34.622  0.00  0.00    +0.292 HD
ENDBRANCH  13  16
ENDBRANCH   1  11
BRANCH   1  18
ATOM     18  N   UNL     1      49.418 159.905  30.646  0.00  0.00    -0.268 NA
ATOM     19  C   UNL     1      48.250 160.671  30.681  0.00  0.00    +0.094 C 
ATOM     20  C   UNL     1      47.098 160.198  29.835  0.00  0.00    +0.108 C 
ATOM     21  N   UNL     1      47.511 159.274  28.843  0.00  0.00    -0.305 N 
ATOM     22  C   UNL     1      48.346 158.174  29.409  0.00  0.00    +0.108 C 
ATOM     23  C   UNL     1      49.666 158.942  29.669  0.00  0.00    +0.094 C 
BRANCH  21  24
ATOM     24  C   UNL     1      47.333 159.277  27.462  0.00  0.00    +0.048 C 
ATOM     25  C   UNL     1      48.138 160.115  26.686  0.00  0.00    +0.017 C 
ATOM     26  C   UNL     1      48.017 160.140  25.315  0.00  0.00    +0.031 C 
ATOM     27  C   UNL     1      47.074 159.327  24.682  0.00  0.00    +0.140 C 
ATOM     28  C   UNL     1      46.269 158.498  25.430  0.00  0.00    +0.031 C 
ATOM     29  C   UNL     1      46.413 158.487  26.801  0.00  0.00    +0.017 C 
ATOM     30  F   UNL     1      46.973 159.394  23.328  0.00  0.00    -0.204 F 
ENDBRANCH  21  24
ENDBRANCH   1  18
TORSDOF 4
