REMARK  Name = =
REMARK  5 active torsions:
REMARK  status: ('A' for Active; 'I' for Inactive)
REMARK    1  A    between atoms: C_6  and  C_11
REMARK    2  A    between atoms: C_7  and  O_10
REMARK    3  A    between atoms: C_11  and  C_16
REMARK    4  A    between atoms: C_12  and  C_13
REMARK    5  A    between atoms: C_13  and  O_15
REMARK                            x       y       z     vdW  Elec       q    Type
REMARK                         _______ _______ _______ _____ _____    ______ ____
ROOT
ATOM      1  C   UNL     1      51.034 156.659  29.606  0.00  0.00    -0.026 C 
ATOM      2  C   UNL     1      51.012 158.054  29.737  0.00  0.00    -0.023 C 
ATOM      3  C   UNL     1      52.385 158.552  29.478  0.00  0.00    +0.026 C 
ATOM      4  C   UNL     1      53.105 157.419  28.749  0.00  0.00    +0.009 C 
ATOM      5  C   UNL     1      52.451 156.201  29.373  0.00  0.00    +0.026 C 
ATOM      6  C   UNL     1      49.780 158.658  29.954  0.00  0.00    +0.033 C 
ATOM      7  C   UNL     1      48.596 157.900  30.031  0.00  0.00    +0.133 C 
ATOM      8  C   UNL     1      48.638 156.538  29.899  0.00  0.00    +0.036 C 
ATOM      9  C   UNL     1      49.861 155.954  29.690  0.00  0.00    -0.001 C 
ENDROOT
BRANCH   7  10
ATOM     10  O   UNL     1      47.411 158.578  30.244  0.00  0.00    -0.506 OA
ATOM     11  H   UNL     1      47.414 159.511  30.330  0.00  0.00    +0.292 HD
ENDBRANCH   7  10
BRANCH   6  12
ATOM     12  C   UNL     1      49.699 160.068  30.219  0.00  0.00    +0.051 C 
ATOM     13  C   UNL     1      49.510 160.575  31.399  0.00  0.00    +0.085 C 
BRANCH  13  14
ATOM     14  C   UNL     1      49.321 159.928  32.668  0.00  0.00    +0.338 C 
ATOM     15  O   UNL     1      49.824 160.502  33.702  0.00  0.00    -0.245 OA
BRANCH  14  16
ATOM     16  O   UNL     1      48.654 158.757  32.940  0.00  0.00    -0.477 OA
ATOM     17  H   UNL     1      48.256 158.272  32.244  0.00  0.00    +0.295 HD
ENDBRANCH  14  16
ENDBRANCH  13  14
BRANCH  12  18
ATOM     18  C   UNL     1      49.845 160.952  29.043  0.00  0.00    +0.234 C 
ATOM     19  O   UNL     1      48.809 161.240  28.394  0.00  0.00    -0.283 OA
ENDBRANCH  12  18
ENDBRANCH   6  12
TORSDOF 5
