REMARK  Name = =
REMARK  6 active torsions:
REMARK  status: ('A' for Active; 'I' for Inactive)
REMARK    1  A    between atoms: N_1  and  C_7
REMARK    2  A    between atoms: N_4  and  C_23
REMARK    3  A    between atoms: C_7  and  C_17
REMARK    4  A    between atoms: C_19  and  O_22
REMARK    5  A    between atoms: O_31  and  O_32
REMARK    6  A    between atoms: C_34  and  O_36
REMARK                            x       y       z     vdW  Elec       q    Type
REMARK                         _______ _______ _______ _____ _____    ______ ____
ROOT
ATOM      1  C   UNL     1      50.289 160.963  31.503  0.00  0.00    +0.073 C 
ATOM      2  C   UNL     1      49.532 162.264  31.651  0.00  0.00    +0.045 C 
ATOM      3  C   UNL     1      48.821 162.274  32.935  0.00  0.00    -0.024 C 
ATOM      4  C   UNL     1      49.184 161.198  33.645  0.00  0.00    -0.024 C 
ATOM      5  C   UNL     1      50.162 160.408  32.870  0.00  0.00    +0.045 C 
ATOM      6  C   UNL     1      48.643 161.008  34.891  0.00  0.00    -0.005 C 
ATOM      7  C   UNL     1      47.739 161.896  35.423  0.00  0.00    -0.000 C 
ATOM      8  C   UNL     1      47.375 162.990  34.689  0.00  0.00    -0.000 C 
ATOM      9  C   UNL     1      47.916 163.185  33.437  0.00  0.00    -0.005 C 
ENDROOT
BRANCH   1  10
ATOM     10  N   UNL     1      49.759 160.101  30.444  0.00  0.00    -0.268 NA
ATOM     11  C   UNL     1      48.316 160.204  30.354  0.00  0.00    +0.094 C 
ATOM     12  C   UNL     1      47.779 160.685  29.049  0.00  0.00    +0.108 C 
ATOM     13  N   UNL     1      48.402 160.071  27.894  0.00  0.00    -0.305 N 
ATOM     14  C   UNL     1      49.822 159.862  27.957  0.00  0.00    +0.108 C 
ATOM     15  C   UNL     1      50.350 160.496  29.216  0.00  0.00    +0.094 C 
BRANCH  13  16
ATOM     16  C   UNL     1      47.564 159.733  26.814  0.00  0.00    +0.048 C 
ATOM     17  C   UNL     1      46.659 158.702  26.856  0.00  0.00    +0.017 C 
ATOM     18  C   UNL     1      45.836 158.400  25.772  0.00  0.00    +0.031 C 
ATOM     19  C   UNL     1      45.908 159.141  24.605  0.00  0.00    +0.140 C 
ATOM     20  C   UNL     1      46.816 160.176  24.561  0.00  0.00    +0.031 C 
ATOM     21  C   UNL     1      47.620 160.458  25.643  0.00  0.00    +0.017 C 
ATOM     22  F   UNL     1      45.091 158.826  23.568  0.00  0.00    -0.204 F 
ENDBRANCH  13  16
ENDBRANCH   1  10
BRANCH   1  24
ATOM     23  C   UNL     1      52.759 160.773  31.862  0.00  0.00    -0.003 C 
ATOM     24  C   UNL     1      51.703 161.379  31.254  0.00  0.00    -0.006 C 
ATOM     25  C   UNL     1      52.018 162.434  30.385  0.00  0.00    +0.034 C 
ATOM     26  C   UNL     1      53.333 162.829  30.164  0.00  0.00    +0.133 C 
ATOM     27  C   UNL     1      54.372 162.190  30.799  0.00  0.00    +0.037 C 
ATOM     28  C   UNL     1      54.088 161.145  31.662  0.00  0.00    +0.003 C 
BRANCH  26  29
ATOM     29  O   UNL     1      53.643 163.873  29.306  0.00  0.00    -0.506 OA
ATOM     30  H   UNL     1      52.959 164.330  28.857  0.00  0.00    +0.292 HD
ENDBRANCH  26  29
ENDBRANCH   1  24
TORSDOF 4
REMARK  Name = =
REMARK  6 active torsions:
REMARK  status: ('A' for Active; 'I' for Inactive)
REMARK    1  A    between atoms: N_1  and  C_7
REMARK    2  A    between atoms: N_4  and  C_23
REMARK    3  A    between atoms: C_7  and  C_17
REMARK    4  A    between atoms: C_19  and  O_22
REMARK    5  A    between atoms: O_31  and  O_32
REMARK    6  A    between atoms: C_34  and  O_36
REMARK                            x       y       z     vdW  Elec       q    Type
REMARK                         _______ _______ _______ _____ _____    ______ ____
ROOT
ATOM      1  P   UNL     1      50.129 158.424  30.627  0.00  0.00    +0.000 P 
ENDROOT
TORSDOF 0
REMARK  Name = =
REMARK  6 active torsions:
REMARK  status: ('A' for Active; 'I' for Inactive)
REMARK    1  A    between atoms: N_1  and  C_7
REMARK    2  A    between atoms: N_4  and  C_23
REMARK    3  A    between atoms: C_7  and  C_17
REMARK    4  A    between atoms: C_19  and  O_22
REMARK    5  A    between atoms: O_31  and  O_32
REMARK    6  A    between atoms: C_34  and  O_36
REMARK                            x       y       z     vdW  Elec       q    Type
REMARK                         _______ _______ _______ _____ _____    ______ ____
ROOT
ATOM      1  O   UNL     1      48.961 157.822  31.303  0.00  0.00    -0.253 OA
ATOM      2  H   UNL     1      48.068 157.876  31.678  0.00  0.00    +0.253 HD
ENDROOT
BRANCH   1   3
ATOM      3  O   UNL     1      48.872 157.586  29.868  0.00  0.00    -0.253 OA
ATOM      4  H   UNL     1      49.765 157.532  29.493  0.00  0.00    +0.253 HD
ENDBRANCH   1   3
TORSDOF 1
REMARK  Name = =
REMARK  6 active torsions:
REMARK  status: ('A' for Active; 'I' for Inactive)
REMARK    1  A    between atoms: N_1  and  C_7
REMARK    2  A    between atoms: N_4  and  C_23
REMARK    3  A    between atoms: C_7  and  C_17
REMARK    4  A    between atoms: C_19  and  O_22
REMARK    5  A    between atoms: O_31  and  O_32
REMARK    6  A    between atoms: C_34  and  O_36
REMARK                            x       y       z     vdW  Elec       q    Type
REMARK                         _______ _______ _______ _____ _____    ______ ____
ROOT
ATOM      1  O   HOH     1      50.558 157.590  32.031  0.00  0.00    -0.253 OA
ATOM      2  H   HOH     0      51.528 157.590  32.031  0.00  0.00    +0.253 HD
ENDROOT
TORSDOF 0
REMARK  Name = =
REMARK  6 active torsions:
REMARK  status: ('A' for Active; 'I' for Inactive)
REMARK    1  A    between atoms: N_1  and  C_7
REMARK    2  A    between atoms: N_4  and  C_23
REMARK    3  A    between atoms: C_7  and  C_17
REMARK    4  A    between atoms: C_19  and  O_22
REMARK    5  A    between atoms: O_31  and  O_32
REMARK    6  A    between atoms: C_34  and  O_36
REMARK                            x       y       z     vdW  Elec       q    Type
REMARK                         _______ _______ _______ _____ _____    ______ ____
ROOT
ATOM      1  C   UNL     1      51.487 157.738  29.705  0.00  0.00    +0.415 C 
ATOM      2  O   UNL     1      52.491 158.453  29.679  0.00  0.00    -0.238 OA
ENDROOT
BRANCH   1   3
ATOM      3  O   UNL     1      51.506 156.539  29.056  0.00  0.00    -0.473 OA
ATOM      4  H   UNL     1      50.749 155.987  29.069  0.00  0.00    +0.296 HD
ENDBRANCH   1   3
TORSDOF 1
