REMARK  Name = =
REMARK  7 active torsions:
REMARK  status: ('A' for Active; 'I' for Inactive)
REMARK    1  A    between atoms: C_1  and  C_8
REMARK    2  A    between atoms: C_1  and  C_16
REMARK    3  A    between atoms: C_2  and  C_13
REMARK    4  A    between atoms: C_9  and  O_12
REMARK    5  A    between atoms: C_13  and  O_15
REMARK    6  A    between atoms: C_16  and  C_18
REMARK    7  A    between atoms: C_18  and  N_19
REMARK                            x       y       z     vdW  Elec       q    Type
REMARK                         _______ _______ _______ _____ _____    ______ ____
ROOT
ATOM      1  C   UNL     1      49.644 159.911  30.205  0.00  0.00    +0.045 C 
ATOM      2  C   UNL     1      49.458 160.652  31.267  0.00  0.00    +0.085 C 
ENDROOT
BRANCH   1   8
ATOM      3  C   UNL     1      51.392 156.648  29.717  0.00  0.00    -0.026 C 
ATOM      4  C   UNL     1      51.169 158.020  29.881  0.00  0.00    -0.023 C 
ATOM      5  C   UNL     1      52.494 158.693  29.746  0.00  0.00    +0.026 C 
ATOM      6  C   UNL     1      53.252 157.763  28.817  0.00  0.00    +0.009 C 
ATOM      7  C   UNL     1      52.838 156.403  29.393  0.00  0.00    +0.026 C 
ATOM      8  C   UNL     1      49.901 158.495  30.174  0.00  0.00    +0.032 C 
ATOM      9  C   UNL     1      48.891 157.548  30.294  0.00  0.00    +0.133 C 
ATOM     10  C   UNL     1      49.093 156.190  30.139  0.00  0.00    +0.036 C 
ATOM     11  C   UNL     1      50.358 155.749  29.847  0.00  0.00    -0.001 C 
BRANCH   9  12
ATOM     12  O   UNL     1      47.612 157.985  30.574  0.00  0.00    -0.506 OA
ATOM     13  H   UNL     1      47.443 158.900  30.685  0.00  0.00    +0.292 HD
ENDBRANCH   9  12
ENDBRANCH   1   8
BRANCH   2  14
ATOM     14  C   UNL     1      49.479 160.240  32.640  0.00  0.00    +0.338 C 
ATOM     15  O   UNL     1      49.338 161.109  33.558  0.00  0.00    -0.245 OA
BRANCH  14  16
ATOM     16  O   UNL     1      49.649 158.954  33.075  0.00  0.00    -0.477 OA
ATOM     17  H   UNL     1      49.759 158.260  32.455  0.00  0.00    +0.295 HD
ENDBRANCH  14  16
ENDBRANCH   2  14
BRANCH   1  18
ATOM     18  C   UNL     1      49.516 160.604  28.901  0.00  0.00    +0.189 C 
ATOM     19  O   UNL     1      49.371 159.941  27.850  0.00  0.00    -0.290 OA
BRANCH  18  20
ATOM     20  C   UNL     1      49.557 162.092  28.810  0.00  0.00    +0.135 C 
BRANCH  20  21
ATOM     21  N   UNL     1      49.368 162.489  27.434  0.00  0.00    -0.315 NA
ATOM     22  H   UNL     1      49.395 163.506  27.367  0.00  0.00    +0.119 HD
ATOM     23  H   UNL     1      48.464 162.151  27.104  0.00  0.00    +0.119 HD
ENDBRANCH  20  21
ENDBRANCH  18  20
ENDBRANCH   1  18
TORSDOF 7
