REMARK  Name = =
REMARK  7 active torsions:
REMARK  status: ('A' for Active; 'I' for Inactive)
REMARK    1  A    between atoms: N_1  and  C_7
REMARK    2  A    between atoms: N_4  and  C_23
REMARK    3  A    between atoms: C_7  and  C_17
REMARK    4  A    between atoms: C_19  and  O_22
REMARK    5  A    between atoms: O_32  and  O_33
REMARK    6  A    between atoms: C_34  and  O_36
REMARK    7  A    between atoms: O_36  and  C_37
REMARK                            x       y       z     vdW  Elec       q    Type
REMARK                         _______ _______ _______ _____ _____    ______ ____
ROOT
ATOM      1  C   UNL     1      49.496 160.413  30.104  0.00  0.00    +0.073 C 
ATOM      2  C   UNL     1      48.951 161.549  30.930  0.00  0.00    +0.045 C 
ATOM      3  C   UNL     1      47.494 161.342  30.845  0.00  0.00    -0.024 C 
ATOM      4  C   UNL     1      47.301 159.987  30.705  0.00  0.00    -0.024 C 
ATOM      5  C   UNL     1      48.650 159.346  30.695  0.00  0.00    +0.045 C 
ATOM      6  C   UNL     1      45.980 159.530  30.621  0.00  0.00    -0.005 C 
ATOM      7  C   UNL     1      44.924 160.437  30.681  0.00  0.00    -0.000 C 
ATOM      8  C   UNL     1      45.145 161.792  30.823  0.00  0.00    -0.000 C 
ATOM      9  C   UNL     1      46.447 162.242  30.905  0.00  0.00    -0.005 C 
ENDROOT
BRANCH   1  10
ATOM     10  N   UNL     1      50.936 160.247  30.285  0.00  0.00    -0.268 NA
ATOM     11  C   UNL     1      51.535 161.456  29.720  0.00  0.00    +0.094 C 
ATOM     12  C   UNL     1      53.020 161.519  29.969  0.00  0.00    +0.108 C 
ATOM     13  N   UNL     1      53.170 161.744  31.386  0.00  0.00    -0.305 N 
ATOM     14  C   UNL     1      51.898 161.686  32.097  0.00  0.00    +0.108 C 
ATOM     15  C   UNL     1      51.244 160.417  31.716  0.00  0.00    +0.094 C 
BRANCH  13  16
ATOM     16  C   UNL     1      54.397 161.998  32.016  0.00  0.00    +0.048 C 
ATOM     17  C   UNL     1      55.048 161.009  32.697  0.00  0.00    +0.017 C 
ATOM     18  C   UNL     1      56.257 161.309  33.327  0.00  0.00    +0.031 C 
ATOM     19  C   UNL     1      56.736 162.590  33.234  0.00  0.00    +0.140 C 
ATOM     20  C   UNL     1      56.089 163.577  32.554  0.00  0.00    +0.031 C 
ATOM     21  C   UNL     1      54.892 163.299  31.923  0.00  0.00    +0.017 C 
ATOM     22  F   UNL     1      57.919 162.882  33.851  0.00  0.00    -0.204 F 
ENDBRANCH  13  16
ENDBRANCH   1  10
BRANCH   1  24
ATOM     23  C   UNL     1      49.400 161.786  28.022  0.00  0.00    -0.003 C 
ATOM     24  C   UNL     1      49.080 160.634  28.702  0.00  0.00    -0.006 C 
ATOM     25  C   UNL     1      48.334 159.711  27.995  0.00  0.00    +0.034 C 
ATOM     26  C   UNL     1      47.914 159.904  26.684  0.00  0.00    +0.133 C 
ATOM     27  C   UNL     1      48.247 161.065  26.031  0.00  0.00    +0.037 C 
ATOM     28  C   UNL     1      48.998 162.007  26.719  0.00  0.00    +0.003 C 
BRANCH  26  29
ATOM     29  O   UNL     1      47.160 158.979  25.974  0.00  0.00    -0.506 OA
ATOM     30  H   UNL     1      46.908 158.172  26.377  0.00  0.00    +0.292 HD
ENDBRANCH  26  29
ENDBRANCH   1  24
TORSDOF 4
REMARK  Name = =
REMARK  7 active torsions:
REMARK  status: ('A' for Active; 'I' for Inactive)
REMARK    1  A    between atoms: N_1  and  C_7
REMARK    2  A    between atoms: N_4  and  C_23
REMARK    3  A    between atoms: C_7  and  C_17
REMARK    4  A    between atoms: C_19  and  O_22
REMARK    5  A    between atoms: O_32  and  O_33
REMARK    6  A    between atoms: C_34  and  O_36
REMARK    7  A    between atoms: O_36  and  C_37
REMARK                            x       y       z     vdW  Elec       q    Type
REMARK                         _______ _______ _______ _____ _____    ______ ____
ROOT
ATOM      1  P   UNL     1      51.657 158.829  29.760  0.00  0.00    +0.000 P 
ENDROOT
TORSDOF 0
REMARK  Name = =
REMARK  7 active torsions:
REMARK  status: ('A' for Active; 'I' for Inactive)
REMARK    1  A    between atoms: N_1  and  C_7
REMARK    2  A    between atoms: N_4  and  C_23
REMARK    3  A    between atoms: C_7  and  C_17
REMARK    4  A    between atoms: C_19  and  O_22
REMARK    5  A    between atoms: O_32  and  O_33
REMARK    6  A    between atoms: C_34  and  O_36
REMARK    7  A    between atoms: O_36  and  C_37
REMARK                            x       y       z     vdW  Elec       q    Type
REMARK                         _______ _______ _______ _____ _____    ______ ____
ROOT
ATOM      1  O   HOH     1      50.423 158.718  28.893  0.00  0.00    -0.253 OA
ATOM      2  H   HOH     0      51.393 158.718  28.893  0.00  0.00    +0.253 HD
ENDROOT
TORSDOF 0
REMARK  Name = =
REMARK  7 active torsions:
REMARK  status: ('A' for Active; 'I' for Inactive)
REMARK    1  A    between atoms: N_1  and  C_7
REMARK    2  A    between atoms: N_4  and  C_23
REMARK    3  A    between atoms: C_7  and  C_17
REMARK    4  A    between atoms: C_19  and  O_22
REMARK    5  A    between atoms: O_32  and  O_33
REMARK    6  A    between atoms: C_34  and  O_36
REMARK    7  A    between atoms: O_36  and  C_37
REMARK                            x       y       z     vdW  Elec       q    Type
REMARK                         _______ _______ _______ _____ _____    ______ ____
ROOT
ATOM      1  O   UNL     1      53.331 159.284  29.540  0.00  0.00    -0.253 OA
ATOM      2  H   UNL     1      53.120 160.230  29.496  0.00  0.00    +0.253 HD
ENDROOT
BRANCH   1   3
ATOM      3  O   UNL     1      52.775 158.643  31.030  0.00  0.00    -0.253 OA
ATOM      4  H   UNL     1      52.986 157.697  31.074  0.00  0.00    +0.253 HD
ENDBRANCH   1   3
TORSDOF 1
REMARK  Name = =
REMARK  7 active torsions:
REMARK  status: ('A' for Active; 'I' for Inactive)
REMARK    1  A    between atoms: N_1  and  C_7
REMARK    2  A    between atoms: N_4  and  C_23
REMARK    3  A    between atoms: C_7  and  C_17
REMARK    4  A    between atoms: C_19  and  O_22
REMARK    5  A    between atoms: O_32  and  O_33
REMARK    6  A    between atoms: C_34  and  O_36
REMARK    7  A    between atoms: O_36  and  C_37
REMARK                            x       y       z     vdW  Elec       q    Type
REMARK                         _______ _______ _______ _____ _____    ______ ____
ROOT
ATOM      1  C   UNL     1      52.018 155.373  27.969  0.00  0.00    +0.159 C 
ATOM      2  C   UNL     1      53.207 154.375  27.794  0.00  0.00    +0.135 C 
ATOM      3  S   UNL     1      52.423 152.830  27.166  0.00  0.00    -0.121 S 
ATOM      4  C   UNL     1      52.857 153.098  25.399  0.00  0.00    +0.076 C 
ATOM      5  C   UNL     1      53.929 154.154  25.592  0.00  0.00    +0.085 C 
ATOM      6  N   UNL     1      53.496 155.077  26.567  0.00  0.00    -0.260 NA
ATOM      7  C   UNL     1      52.166 155.629  26.508  0.00  0.00    +0.105 C 
ENDROOT
BRANCH   1   8
ATOM      8  O   UNL     1      52.374 156.476  28.763  0.00  0.00    -0.323 OA
BRANCH   8   9
ATOM      9  C   UNL     1      51.447 157.167  29.536  0.00  0.00    +0.329 C 
ATOM     10  O   UNL     1      50.564 156.314  29.942  0.00  0.00    -0.184 OA
ENDBRANCH   8   9
ENDBRANCH   1   8
TORSDOF 2
