MODEL 1
REMARK VINA RESULT:    -9.078      0.000      0.000
REMARK INTER + INTRA:         -15.052
REMARK INTER:                 -14.650
REMARK INTRA:                  -0.402
REMARK UNBOUND:                -0.402
REMARK  Name = =
REMARK  13 active torsions:
REMARK  status: ('A' for Active; 'I' for Inactive)
REMARK    1  A    between atoms: C_1  and  O_21
REMARK    2  A    between atoms: C_2  and  C_12
REMARK    3  A    between atoms: C_6  and  O_20
REMARK    4  A    between atoms: C_8  and  O_19
REMARK    5  A    between atoms: C_15  and  O_18
REMARK    6  A    between atoms: O_21  and  C_23
REMARK    7  A    between atoms: C_22  and  C_24
REMARK    8  A    between atoms: C_22  and  O_31
REMARK    9  A    between atoms: C_23  and  C_29
REMARK   10  A    between atoms: O_31  and  P_32
REMARK   11  A    between atoms: P_32  and  C_34
REMARK   12  A    between atoms: P_32  and  O_37
REMARK   13  A    between atoms: C_34  and  O_36
REMARK                            x       y       z     vdW  Elec       q    Type
REMARK                         _______ _______ _______ _____ _____    ______ ____
ROOT
ATOM      1  C   UNL     1      -0.279  -6.948  30.201  0.00  0.00    +0.219 A 
ATOM      2  C   UNL     1       1.010  -6.754  30.558  0.00  0.00    +0.183 A 
ATOM      3  O   UNL     1       1.979  -7.160  29.709  0.00  0.00    -0.450 OA
ATOM      4  C   UNL     1       1.748  -7.725  28.566  0.00  0.00    +0.155 A 
ATOM      5  C   UNL     1       0.437  -7.951  28.141  0.00  0.00    +0.110 A 
ATOM      6  C   UNL     1       0.148  -8.554  26.922  0.00  0.00    +0.143 C 
ATOM      7  C   UNL     1       1.234  -8.941  26.108  0.00  0.00    +0.073 C 
ATOM      8  C   UNL     1       2.523  -8.729  26.507  0.00  0.00    +0.140 C 
ATOM      9  C   UNL     1       2.756  -8.129  27.717  0.00  0.00    +0.074 C 
ATOM     10  C   UNL     1      -0.587  -7.560  28.963  0.00  0.00    +0.239 A 
ATOM     11  O   UNL     1      -1.787  -7.700  28.710  0.00  0.00    -0.283 OA
ENDROOT
BRANCH   2  12
ATOM     12  C   UNL     1       1.424  -6.133  31.805  0.00  0.00    +0.038 C 
ATOM     13  C   UNL     1       1.035  -6.745  33.015  0.00  0.00    +0.006 C 
ATOM     14  C   UNL     1       1.397  -6.287  34.251  0.00  0.00    +0.037 C 
ATOM     15  C   UNL     1       2.185  -5.165  34.361  0.00  0.00    +0.134 C 
ATOM     16  C   UNL     1       2.576  -4.551  33.202  0.00  0.00    +0.037 C 
ATOM     17  C   UNL     1       2.206  -5.022  31.936  0.00  0.00    +0.006 C 
BRANCH  15  18
ATOM     18  O   UNL     1       2.589  -4.644  35.583  0.00  0.00    -0.506 OA
ATOM     19  H   UNL     1       3.048  -5.184  36.194  0.00  0.00    +0.292 HD
ENDBRANCH  15  18
ENDBRANCH   2  12
BRANCH   8  20
ATOM     20  O   UNL     1       3.593  -9.097  25.730  0.00  0.00    -0.505 OA
ATOM     21  H   UNL     1       3.455  -9.381  24.848  0.00  0.00    +0.292 HD
ENDBRANCH   8  20
BRANCH   6  22
ATOM     22  O   UNL     1      -1.106  -8.796  26.462  0.00  0.00    -0.505 OA
ATOM     23  H   UNL     1      -1.322  -8.606  25.571  0.00  0.00    +0.292 HD
ENDBRANCH   6  22
BRANCH   1  24
ATOM     24  O   UNL     1      -1.328  -6.574  31.018  0.00  0.00    -0.441 OA
BRANCH  24  26
ATOM     25  C   UNL     1      -3.355  -5.345  30.871  0.00  0.00    +0.218 C 
ATOM     26  C   UNL     1      -2.090  -5.469  30.561  0.00  0.00    +0.222 C 
BRANCH  25  27
ATOM     27  C   UNL     1      -4.088  -6.337  31.715  0.00  0.00    +0.299 C 
ATOM     28  O   UNL     1      -4.300  -5.843  32.978  0.00  0.00    -0.322 OA
ATOM     29  C   UNL     1      -3.499  -6.540  33.859  0.00  0.00    +0.177 C 
ATOM     30  C   UNL     1      -3.385  -7.894  33.151  0.00  0.00    +0.177 C 
ATOM     31  O   UNL     1      -3.363  -7.508  31.813  0.00  0.00    -0.322 OA
ENDBRANCH  25  27
BRANCH  26  32
ATOM     32  C   UNL     1      -1.463  -4.456  29.736  0.00  0.00    +0.274 C 
ATOM     33  O   UNL     1      -0.815  -3.519  30.225  0.00  0.00    -0.280 OA
ENDBRANCH  26  32
BRANCH  25  34
ATOM     34  O   UNL     1      -4.078  -4.260  30.415  0.00  0.00    -0.412 OA
BRANCH  34  35
ATOM     35  P   UNL     1      -4.299  -2.841  31.368  0.00  0.00    +0.486 P 
ATOM     36  O   UNL     1      -3.980  -1.592  30.584  0.00  0.00    -0.233 OA
BRANCH  35  37
ATOM     37  C   UNL     1      -6.009  -2.723  31.870  0.00  0.00    +0.431 C 
ATOM     38  O   UNL     1      -6.929  -2.546  31.027  0.00  0.00    -0.235 OA
BRANCH  37  39
ATOM     39  O   UNL     1      -6.386  -2.823  33.202  0.00  0.00    -0.471 OA
ATOM     40  H   UNL     1      -5.736  -2.962  33.863  0.00  0.00    +0.296 HD
ENDBRANCH  37  39
ENDBRANCH  35  37
BRANCH  35  41
ATOM     41  O   UNL     1      -3.346  -2.885  32.759  0.00  0.00    -0.307 OA
ATOM     42  H   UNL     1      -2.485  -2.480  32.573  0.00  0.00    +0.221 HD
ENDBRANCH  35  41
ENDBRANCH  34  35
ENDBRANCH  25  34
ENDBRANCH  24  26
ENDBRANCH   1  24
TORSDOF 13
ENDMDL
