REMARK  Name = =
REMARK  0 active torsions:
REMARK  status: ('A' for Active; 'I' for Inactive)
REMARK                            x       y       z     vdW  Elec       q    Type
REMARK                         _______ _______ _______ _____ _____    ______ ____
ROOT
ATOM      1  N   UNL     1      -3.170  -3.902  30.998  0.00  0.00    -0.218 NA
ATOM      2  C   UNL     1      -4.078  -4.703  31.787  0.00  0.00    +0.089 C 
ATOM      3  C   UNL     1      -3.537  -6.103  31.767  0.00  0.00    +0.020 C 
ATOM      4  C   UNL     1      -2.433  -6.144  30.753  0.00  0.00    +0.020 C 
ATOM      5  C   UNL     1      -2.570  -4.803  30.059  0.00  0.00    +0.089 C 
ENDROOT
TORSDOF 0
