REMARK  Name = =
REMARK  1 active torsions:
REMARK  status: ('A' for Active; 'I' for Inactive)
REMARK    1  A    between atoms: C_1  and  N_19
REMARK                            x       y       z     vdW  Elec       q    Type
REMARK                         _______ _______ _______ _____ _____    ______ ____
ROOT
ATOM      1  C   UNL     1      -3.528  -3.371  30.546  0.00  0.00    +0.121 C 
ATOM      2  C   UNL     1      -4.705  -2.562  30.958  0.00  0.00    +0.000 C 
ATOM      3  C   UNL     1      -4.739  -1.228  31.246  0.00  0.00    -0.023 C 
ATOM      4  C   UNL     1      -3.601  -0.287  31.212  0.00  0.00    +0.031 C 
ATOM      5  C   UNL     1      -2.856  -0.221  29.940  0.00  0.00    +0.032 C 
ATOM      6  C   UNL     1      -2.759  -1.415  29.125  0.00  0.00    -0.006 C 
ATOM      7  C   UNL     1      -3.016  -2.751  29.301  0.00  0.00    +0.074 C 
ATOM      8  N   UNL     1      -2.819  -3.661  28.315  0.00  0.00    -0.246 NA
ATOM      9  C   UNL     1      -2.363  -3.328  27.106  0.00  0.00    +0.105 C 
ATOM     10  C   UNL     1      -2.088  -2.001  26.872  0.00  0.00    +0.053 C 
ATOM     11  C   UNL     1      -2.279  -1.055  27.858  0.00  0.00    +0.005 C 
ATOM     12 BR   UNL     1      -1.436  -1.538  25.138  0.00  0.00    -0.047 Br
ATOM     13  C   UNL     1      -5.928  -0.648  31.612  0.00  0.00    +0.007 C 
ATOM     14  C   UNL     1      -7.099  -1.372  31.699  0.00  0.00    +0.058 C 
ATOM     15  C   UNL     1      -7.038  -2.714  31.404  0.00  0.00    +0.018 C 
ATOM     16  C   UNL     1      -5.851  -3.314  31.034  0.00  0.00    +0.033 C 
ATOM     17 BR   UNL     1      -5.845  -5.183  30.638  0.00  0.00    -0.049 Br
ATOM     18 CL   UNL     1      -8.623  -0.611  32.171  0.00  0.00    -0.082 Cl
ENDROOT
BRANCH   1  19
ATOM     19  N   UNL     1      -2.478  -3.334  31.555  0.00  0.00    -0.266 NA
ATOM     20  C   UNL     1      -2.978  -3.794  32.835  0.00  0.00    +0.073 C 
ATOM     21  C   UNL     1      -2.421  -5.153  33.093  0.00  0.00    +0.019 C 
ATOM     22  C   UNL     1      -1.862  -5.581  31.755  0.00  0.00    +0.019 C 
ATOM     23  C   UNL     1      -1.442  -4.248  31.161  0.00  0.00    +0.073 C 
ENDBRANCH   1  19
TORSDOF 1
