REMARK  Name = =
REMARK  2 active torsions:
REMARK  status: ('A' for Active; 'I' for Inactive)
REMARK    1  A    between atoms: C_1  and  N_33
REMARK    2  A    between atoms: C_5  and  C_19
REMARK                            x       y       z     vdW  Elec       q    Type
REMARK                         _______ _______ _______ _____ _____    ______ ____
ROOT
ATOM      1  C   UNL     1     -14.684   2.414  27.438  0.00  0.00    +0.121 C 
ATOM      2  C   UNL     1     -15.613   1.830  26.455  0.00  0.00    +0.000 C 
ATOM      3  C   UNL     1     -15.218   1.144  25.318  0.00  0.00    -0.023 C 
ATOM      4  C   UNL     1     -13.787   0.852  24.936  0.00  0.00    +0.035 C 
ATOM      5  C   UNL     1     -13.264  -0.079  25.958  0.00  0.00    +0.050 C 
ATOM      6  C   UNL     1     -13.424   0.252  27.377  0.00  0.00    -0.002 C 
ATOM      7  C   UNL     1     -14.013   1.279  28.105  0.00  0.00    +0.074 C 
ATOM      8  N   UNL     1     -13.993   1.286  29.430  0.00  0.00    -0.246 NA
ATOM      9  C   UNL     1     -13.400   0.298  30.114  0.00  0.00    +0.105 C 
ATOM     10  C   UNL     1     -12.789  -0.766  29.484  0.00  0.00    +0.053 C 
ATOM     11  C   UNL     1     -12.816  -0.762  28.110  0.00  0.00    +0.006 C 
ATOM     12 BR   UNL     1     -11.954  -2.156  30.493  0.00  0.00    -0.047 Br
ATOM     13  C   UNL     1     -16.153   0.635  24.453  0.00  0.00    +0.007 C 
ATOM     14  C   UNL     1     -17.493   0.785  24.682  0.00  0.00    +0.058 C 
ATOM     15  C   UNL     1     -17.895   1.468  25.816  0.00  0.00    +0.018 C 
ATOM     16  C   UNL     1     -16.949   1.987  26.701  0.00  0.00    +0.033 C 
ATOM     17 BR   UNL     1     -17.588   2.859  28.267  0.00  0.00    -0.049 Br
ATOM     18 CL   UNL     1     -18.705   0.133  23.570  0.00  0.00    -0.082 Cl
ENDROOT
BRANCH   5  19
ATOM     19  C   UNL     1     -11.930  -0.682  25.623  0.00  0.00    -0.018 C 
ATOM     20  C   UNL     1     -11.778  -2.027  25.297  0.00  0.00    -0.004 C 
ATOM     21  C   UNL     1     -10.529  -2.559  25.005  0.00  0.00    -0.001 C 
ATOM     22  C   UNL     1     -10.394  -3.897  24.681  0.00  0.00    -0.002 C 
ATOM     23  C   UNL     1     -11.522  -4.684  24.655  0.00  0.00    +0.003 C 
ATOM     24  C   UNL     1     -12.766  -4.172  24.941  0.00  0.00    -0.021 C 
ATOM     25  C   UNL     1     -12.886  -2.836  25.263  0.00  0.00    -0.005 C 
ATOM     26  C   UNL     1     -13.988  -5.019  24.914  0.00  0.00    +0.058 C 
ATOM     27  C   UNL     1     -13.782  -6.312  24.175  0.00  0.00    +0.147 C 
ATOM     28  O   UNL     1     -12.574  -6.400  23.520  0.00  0.00    -0.349 OA
ATOM     29  C   UNL     1     -11.477  -6.144  24.315  0.00  0.00    +0.168 C 
ATOM     30  C   UNL     1      -9.391  -1.775  25.027  0.00  0.00    -0.000 C 
ATOM     31  C   UNL     1      -9.530  -0.451  25.345  0.00  0.00    -0.000 C 
ATOM     32  C   UNL     1     -10.764   0.076  25.634  0.00  0.00    -0.004 C 
ENDBRANCH   5  19
BRANCH   1  33
ATOM     33  N   UNL     1     -15.210   3.457  28.182  0.00  0.00    -0.266 NA
ATOM     34  C   UNL     1     -14.995   4.696  27.407  0.00  0.00    +0.073 C 
ATOM     35  C   UNL     1     -15.278   5.816  28.353  0.00  0.00    +0.019 C 
ATOM     36  C   UNL     1     -14.887   5.244  29.700  0.00  0.00    +0.019 C 
ATOM     37  C   UNL     1     -14.687   3.738  29.470  0.00  0.00    +0.073 C 
ENDBRANCH   1  33
TORSDOF 2
