REMARK  Name = =
REMARK  0 active torsions:
REMARK  status: ('A' for Active; 'I' for Inactive)
REMARK                            x       y       z     vdW  Elec       q    Type
REMARK                         _______ _______ _______ _____ _____    ______ ____
ROOT
ATOM      1  N   UNL     1      52.190 156.156  28.129  0.00  0.00    -0.239 N 
ATOM      2  C   UNL     1      52.947 155.987  26.922  0.00  0.00    +0.312 C 
ATOM      3  O   UNL     1      53.468 156.931  26.305  0.00  0.00    -0.252 OA
ATOM      4  N   UNL     1      53.065 154.634  26.467  0.00  0.00    -0.239 N 
ATOM      5  C   UNL     1      52.474 153.547  27.165  0.00  0.00    +0.239 C 
ATOM      6  O   UNL     1      52.896 152.365  27.093  0.00  0.00    -0.274 OA
ATOM      7  C   UNL     1      51.292 153.843  28.021  0.00  0.00    +0.171 C 
ATOM      8  C   UNL     1      51.608 155.062  28.809  0.00  0.00    +0.239 C 
ATOM      9  O   UNL     1      51.362 155.117  30.055  0.00  0.00    -0.274 OA
ATOM     10  H   UNL     1      52.072 157.062  28.495  0.00  0.00    +0.159 HD
ATOM     11  H   UNL     1      53.572 154.451  25.643  0.00  0.00    +0.159 HD
ENDROOT
TORSDOF 0
