REMARK  Name = =
REMARK  1 active torsions:
REMARK  status: ('A' for Active; 'I' for Inactive)
REMARK    1  A    between atoms: N_1  and  C_15
REMARK                            x       y       z     vdW  Elec       q    Type
REMARK                         _______ _______ _______ _____ _____    ______ ____
ROOT
ATOM      1  N   UNL     1      52.135 156.186  28.206  0.00  0.00    -0.198 N 
ATOM      2  C   UNL     1      52.730 155.978  26.931  0.00  0.00    +0.317 C 
ATOM      3  O   UNL     1      52.808 156.915  26.102  0.00  0.00    -0.252 OA
ATOM      4  N   UNL     1      53.252 154.709  26.559  0.00  0.00    -0.239 N 
ATOM      5  C   UNL     1      53.181 153.624  27.472  0.00  0.00    +0.239 C 
ATOM      6  O   UNL     1      53.200 152.419  27.130  0.00  0.00    -0.274 OA
ATOM      7  C   UNL     1      53.078 153.955  28.911  0.00  0.00    +0.171 C 
ATOM      8  C   UNL     1      52.096 155.059  29.070  0.00  0.00    +0.243 C 
ATOM      9  O   UNL     1      51.230 154.974  29.988  0.00  0.00    -0.274 OA
ATOM     10  H   UNL     1      53.661 154.583  25.672  0.00  0.00    +0.159 HD
ENDROOT
BRANCH   1  16
ATOM     11  N   UNL     1      50.575 157.145  29.625  0.00  0.00    -0.195 NA
ATOM     12  C   UNL     1      49.893 158.224  30.317  0.00  0.00    +0.123 C 
ATOM     13  C   UNL     1      50.752 159.467  30.059  0.00  0.00    +0.161 C 
ATOM     14  O   UNL     1      52.065 159.083  30.274  0.00  0.00    -0.349 OA
ATOM     15  C   UNL     1      52.609 158.388  29.195  0.00  0.00    +0.181 C 
ATOM     16  C   UNL     1      51.592 157.428  28.645  0.00  0.00    +0.187 C 
ENDBRANCH   1  16
TORSDOF 1
