REMARK  Name = =
REMARK  0 active torsions:
REMARK  status: ('A' for Active; 'I' for Inactive)
REMARK                            x       y       z     vdW  Elec       q    Type
REMARK                         _______ _______ _______ _____ _____    ______ ____
ROOT
ATOM      1  N   UNL     1      52.854 155.243  28.375  0.00  0.00    -0.295 NA
ATOM      2  C   UNL     1      52.014 154.578  27.282  0.00  0.00    +0.086 C 
ATOM      3  C   UNL     1      51.686 154.493  28.683  0.00  0.00    +0.086 C 
ATOM      4  H   UNL     1      53.777 154.877  28.609  0.00  0.00    +0.123 HD
ENDROOT
TORSDOF 0
