REMARK  Name = =
REMARK  1 active torsions:
REMARK  status: ('A' for Active; 'I' for Inactive)
REMARK    1  A    between atoms: N_1  and  N_8
REMARK                            x       y       z     vdW  Elec       q    Type
REMARK                         _______ _______ _______ _____ _____    ______ ____
ROOT
ATOM      1  N   UNL     1      52.792 153.779  26.029  0.00  0.00    -0.168 N 
ATOM      2  C   UNL     1      52.386 152.706  26.867  0.00  0.00    +0.245 C 
ATOM      3  O   UNL     1      52.312 151.475  26.565  0.00  0.00    -0.273 OA
ATOM      4  C   UNL     1      52.058 153.289  28.202  0.00  0.00    +0.097 C 
ATOM      5  C   UNL     1      51.548 154.662  27.791  0.00  0.00    +0.097 C 
ATOM      6  C   UNL     1      52.582 155.002  26.747  0.00  0.00    +0.245 C 
ATOM      7  O   UNL     1      53.148 156.079  26.527  0.00  0.00    -0.273 OA
ENDROOT
BRANCH   1   8
ATOM      8  N   UNL     1      53.293 153.585  24.761  0.00  0.00    -0.193 NA
ATOM      9  C   UNL     1      54.475 154.265  24.289  0.00  0.00    +0.112 C 
ATOM     10  C   UNL     1      54.521 152.805  24.724  0.00  0.00    +0.112 C 
ENDBRANCH   1   8
TORSDOF 1
