REMARK  Name = =
REMARK  2 active torsions:
REMARK  status: ('A' for Active; 'I' for Inactive)
REMARK    1  A    between atoms: C_1  and  C_18
REMARK    2  A    between atoms: N_15  and  N_22
REMARK                            x       y       z     vdW  Elec       q    Type
REMARK                         _______ _______ _______ _____ _____    ______ ____
ROOT
ATOM      1  C   UNL     1      53.436 155.872  26.088  0.00  0.00    -0.012 C 
ATOM      2  C   UNL     1      53.319 154.551  25.725  0.00  0.00    +0.017 C 
ATOM      3  C   UNL     1      52.752 153.593  26.538  0.00  0.00    +0.099 A 
ATOM      4  C   UNL     1      52.278 153.970  27.776  0.00  0.00    +0.099 A 
ATOM      5  C   UNL     1      52.377 155.283  28.176  0.00  0.00    +0.020 C 
ATOM      6  C   UNL     1      52.948 156.224  27.346  0.00  0.00    -0.002 C 
ATOM      7  N   UNL     1      51.726 153.019  28.556  0.00  0.00    -0.242 NA
ATOM      8  C   UNL     1      51.631 151.728  28.154  0.00  0.00    +0.099 A 
ATOM      9  C   UNL     1      51.057 150.763  28.974  0.00  0.00    +0.021 C 
ATOM     10  C   UNL     1      50.940 149.439  28.602  0.00  0.00    +0.002 C 
ATOM     11  C   UNL     1      51.418 149.067  27.362  0.00  0.00    +0.002 C 
ATOM     12  C   UNL     1      51.994 150.029  26.535  0.00  0.00    +0.021 C 
ATOM     13  C   UNL     1      52.104 151.350  26.918  0.00  0.00    +0.099 A 
ATOM     14  N   UNL     1      52.656 152.298  26.137  0.00  0.00    -0.242 NA
ENDROOT
BRANCH   1  18
ATOM     15  N   UNL     1      54.133 157.974  23.204  0.00  0.00    -0.168 N 
ATOM     16  C   UNL     1      53.242 157.316  24.082  0.00  0.00    +0.249 C 
ATOM     17  O   UNL     1      52.036 157.112  23.895  0.00  0.00    -0.273 OA
ATOM     18  C   UNL     1      54.024 156.917  25.262  0.00  0.00    +0.110 C 
ATOM     19  C   UNL     1      55.362 156.569  24.653  0.00  0.00    +0.101 C 
ATOM     20  C   UNL     1      55.482 157.638  23.599  0.00  0.00    +0.246 C 
ATOM     21  O   UNL     1      56.560 158.114  23.179  0.00  0.00    -0.273 OA
BRANCH  15  22
ATOM     22  N   UNL     1      53.871 158.809  22.124  0.00  0.00    -0.193 NA
ATOM     23  C   UNL     1      52.747 159.688  22.087  0.00  0.00    +0.112 C 
ATOM     24  C   UNL     1      54.116 160.267  22.413  0.00  0.00    +0.112 C 
ENDBRANCH  15  22
ENDBRANCH   1  18
TORSDOF 2
