REMARK  Name = =
REMARK  3 active torsions:
REMARK  status: ('A' for Active; 'I' for Inactive)
REMARK    1  A    between atoms: C_1  and  C_18
REMARK    2  A    between atoms: C_5  and  C_25
REMARK    3  A    between atoms: N_15  and  N_22
REMARK                            x       y       z     vdW  Elec       q    Type
REMARK                         _______ _______ _______ _____ _____    ______ ____
ROOT
ATOM      1  C   UNL     1      53.280 153.836  27.188  0.00  0.00    -0.012 C 
ATOM      2  C   UNL     1      53.914 153.991  25.946  0.00  0.00    +0.017 C 
ATOM      3  C   UNL     1      54.079 155.215  25.358  0.00  0.00    +0.098 A 
ATOM      4  C   UNL     1      53.605 156.335  26.007  0.00  0.00    +0.095 A 
ATOM      5  C   UNL     1      52.975 156.228  27.232  0.00  0.00    -0.002 C 
ATOM      6  C   UNL     1      52.824 154.978  27.798  0.00  0.00    -0.006 C 
ATOM      7  N   UNL     1      53.765 157.551  25.429  0.00  0.00    -0.243 NA
ATOM      8  C   UNL     1      54.376 157.693  24.236  0.00  0.00    +0.099 A 
ATOM      9  C   UNL     1      54.543 158.935  23.644  0.00  0.00    +0.021 C 
ATOM     10  C   UNL     1      55.171 159.087  22.414  0.00  0.00    +0.002 C 
ATOM     11  C   UNL     1      55.638 157.963  21.775  0.00  0.00    +0.002 C 
ATOM     12  C   UNL     1      55.472 156.721  22.367  0.00  0.00    +0.021 C 
ATOM     13  C   UNL     1      54.849 156.568  23.588  0.00  0.00    +0.099 A 
ATOM     14  N   UNL     1      54.686 155.362  24.169  0.00  0.00    -0.242 NA
ENDROOT
BRANCH   1  18
ATOM     15  N   UNL     1      51.549 150.822  28.135  0.00  0.00    -0.168 N 
ATOM     16  C   UNL     1      52.043 152.122  28.507  0.00  0.00    +0.249 C 
ATOM     17  O   UNL     1      51.528 152.828  29.417  0.00  0.00    -0.273 OA
ATOM     18  C   UNL     1      53.186 152.469  27.694  0.00  0.00    +0.110 C 
ATOM     19  C   UNL     1      53.087 151.550  26.474  0.00  0.00    +0.101 C 
ATOM     20  C   UNL     1      52.128 150.490  26.882  0.00  0.00    +0.246 C 
ATOM     21  O   UNL     1      51.877 149.439  26.190  0.00  0.00    -0.273 OA
BRANCH  15  22
ATOM     22  N   UNL     1      50.670 150.026  28.864  0.00  0.00    -0.193 NA
ATOM     23  C   UNL     1      51.107 149.437  30.103  0.00  0.00    +0.112 C 
ATOM     24  C   UNL     1      50.953 148.607  28.896  0.00  0.00    +0.112 C 
ENDBRANCH  15  22
ENDBRANCH   1  18
BRANCH   5  25
ATOM     25  C   UNL     1      52.502 157.471  27.861  0.00  0.00    +0.041 C 
ATOM     26  C   UNL     1      51.344 157.199  28.831  0.00  0.00    +0.073 C 
ATOM     27  N   UNL     1      51.267 158.522  29.465  0.00  0.00    -0.297 NA
ATOM     28  C   UNL     1      52.632 158.939  29.680  0.00  0.00    +0.069 C 
ATOM     29  C   UNL     1      53.517 158.025  28.860  0.00  0.00    +0.023 C 
ATOM     30  H   UNL     1      50.771 158.461  30.354  0.00  0.00    +0.123 HD
ENDBRANCH   5  25
TORSDOF 3
