REMARK  Name = =
REMARK  4 active torsions:
REMARK  status: ('A' for Active; 'I' for Inactive)
REMARK    1  A    between atoms: C_1  and  C_18
REMARK    2  A    between atoms: C_5  and  C_25
REMARK    3  A    between atoms: C_11  and  C_30
REMARK    4  A    between atoms: N_15  and  N_22
REMARK                            x       y       z     vdW  Elec       q    Type
REMARK                         _______ _______ _______ _____ _____    ______ ____
ROOT
ATOM      1  C   UNL     1      53.461 154.449  26.340  0.00  0.00    -0.012 C 
ATOM      2  C   UNL     1      53.142 155.783  26.479  0.00  0.00    +0.017 C 
ATOM      3  C   UNL     1      52.408 156.205  27.599  0.00  0.00    +0.098 A 
ATOM      4  C   UNL     1      51.991 155.332  28.573  0.00  0.00    +0.095 A 
ATOM      5  C   UNL     1      52.319 153.984  28.426  0.00  0.00    -0.002 C 
ATOM      6  C   UNL     1      53.040 153.552  27.331  0.00  0.00    -0.006 C 
ATOM      7  N   UNL     1      51.285 155.775  29.616  0.00  0.00    -0.243 NA
ATOM      8  C   UNL     1      50.988 157.080  29.698  0.00  0.00    +0.099 A 
ATOM      9  C   UNL     1      50.253 157.510  30.775  0.00  0.00    +0.021 C 
ATOM     10  C   UNL     1      49.911 158.823  30.914  0.00  0.00    +0.005 C 
ATOM     11  C   UNL     1      50.318 159.740  29.943  0.00  0.00    +0.044 C 
ATOM     12  C   UNL     1      51.062 159.336  28.844  0.00  0.00    +0.024 C 
ATOM     13  C   UNL     1      51.382 158.009  28.742  0.00  0.00    +0.099 A 
ATOM     14  N   UNL     1      52.093 157.502  27.713  0.00  0.00    -0.242 NA
ENDROOT
BRANCH   1  18
ATOM     15  N   UNL     1      54.770 154.654  23.070  0.00  0.00    -0.168 N 
ATOM     16  C   UNL     1      53.749 154.113  23.893  0.00  0.00    +0.249 C 
ATOM     17  O   UNL     1      52.572 153.869  23.488  0.00  0.00    -0.273 OA
ATOM     18  C   UNL     1      54.252 153.889  25.233  0.00  0.00    +0.110 C 
ATOM     19  C   UNL     1      55.617 154.567  25.259  0.00  0.00    +0.101 C 
ATOM     20  C   UNL     1      55.708 155.270  23.957  0.00  0.00    +0.246 C 
ATOM     21  O   UNL     1      56.465 156.237  23.668  0.00  0.00    -0.273 OA
BRANCH  15  22
ATOM     22  N   UNL     1      54.862 154.606  21.655  0.00  0.00    -0.193 NA
ATOM     23  C   UNL     1      55.555 153.373  21.130  0.00  0.00    +0.112 C 
ATOM     24  C   UNL     1      56.163 154.678  21.067  0.00  0.00    +0.112 C 
ENDBRANCH  15  22
ENDBRANCH   1  18
BRANCH   5  25
ATOM     25  C   UNL     1      51.921 153.046  29.463  0.00  0.00    +0.041 C 
ATOM     26  C   UNL     1      51.849 151.652  28.889  0.00  0.00    +0.073 C 
ATOM     27  N   UNL     1      50.908 150.946  29.758  0.00  0.00    -0.297 NA
ATOM     28  C   UNL     1      49.844 151.914  30.008  0.00  0.00    +0.069 C 
ATOM     29  C   UNL     1      50.582 153.230  30.078  0.00  0.00    +0.023 C 
ATOM     30  H   UNL     1      51.359 150.673  30.631  0.00  0.00    +0.123 HD
ENDBRANCH   5  25
BRANCH  11  31
ATOM     31  C   UNL     1      49.947 161.145  30.082  0.00  0.00    +0.234 C 
ATOM     32  O   UNL     1      49.268 161.546  31.016  0.00  0.00    -0.283 OA
ENDBRANCH  11  31
TORSDOF 4
