REMARK  Name = =
REMARK  5 active torsions:
REMARK  status: ('A' for Active; 'I' for Inactive)
REMARK    1  A    between atoms: C_1  and  C_18
REMARK    2  A    between atoms: C_5  and  C_36
REMARK    3  A    between atoms: C_11  and  C_41
REMARK    4  A    between atoms: N_15  and  N_33
REMARK    5  A    between atoms: C_19  and  C_22
REMARK                            x       y       z     vdW  Elec       q    Type
REMARK                         _______ _______ _______ _____ _____    ______ ____
ROOT
ATOM      1  C   UNL     1      52.131 157.723  27.841  0.00  0.00    -0.012 C 
ATOM      2  C   UNL     1      51.631 156.492  28.171  0.00  0.00    +0.017 C 
ATOM      3  C   UNL     1      52.094 155.356  27.525  0.00  0.00    +0.098 A 
ATOM      4  C   UNL     1      53.052 155.437  26.553  0.00  0.00    +0.095 A 
ATOM      5  C   UNL     1      53.570 156.705  26.212  0.00  0.00    -0.002 C 
ATOM      6  C   UNL     1      53.103 157.814  26.859  0.00  0.00    -0.006 C 
ATOM      7  N   UNL     1      53.492 154.346  25.919  0.00  0.00    -0.243 NA
ATOM      8  C   UNL     1      53.004 153.127  26.216  0.00  0.00    +0.099 A 
ATOM      9  C   UNL     1      53.462 152.024  25.548  0.00  0.00    +0.021 C 
ATOM     10  C   UNL     1      52.947 150.777  25.855  0.00  0.00    +0.005 C 
ATOM     11  C   UNL     1      51.980 150.635  26.828  0.00  0.00    +0.044 C 
ATOM     12  C   UNL     1      51.550 151.772  27.474  0.00  0.00    +0.024 C 
ATOM     13  C   UNL     1      52.040 153.041  27.196  0.00  0.00    +0.099 A 
ATOM     14  N   UNL     1      51.596 154.133  27.835  0.00  0.00    -0.242 NA
ENDROOT
BRANCH   1  18
ATOM     15  N   UNL     1      49.780 158.867  30.045  0.00  0.00    -0.167 N 
ATOM     16  C   UNL     1      50.140 158.857  28.650  0.00  0.00    +0.249 C 
ATOM     17  O   UNL     1      49.360 158.799  27.670  0.00  0.00    -0.273 OA
ATOM     18  C   UNL     1      51.592 158.925  28.530  0.00  0.00    +0.110 C 
ATOM     19  C   UNL     1      52.164 159.120  29.921  0.00  0.00    +0.106 C 
ATOM     20  C   UNL     1      50.971 159.078  30.771  0.00  0.00    +0.246 C 
ATOM     21  O   UNL     1      50.993 159.216  32.039  0.00  0.00    -0.273 OA
BRANCH  19  22
ATOM     22  C   UNL     1      52.821 160.488  29.934  0.00  0.00    +0.133 C 
ATOM     23  C   UNL     1      54.276 160.459  30.071  0.00  0.00    +0.181 C 
ATOM     24  O   UNL     1      55.156 159.643  29.673  0.00  0.00    -0.291 OA
ATOM     25  C   UNL     1      54.645 161.666  30.838  0.00  0.00    +0.038 C 
ATOM     26  C   UNL     1      53.515 162.155  31.453  0.00  0.00    +0.038 C 
ATOM     27  C   UNL     1      53.535 163.300  32.261  0.00  0.00    +0.003 C 
ATOM     28  C   UNL     1      54.743 163.947  32.434  0.00  0.00    +0.000 C 
ATOM     29  C   UNL     1      55.896 163.498  31.841  0.00  0.00    +0.000 C 
ATOM     30  C   UNL     1      55.836 162.352  31.043  0.00  0.00    +0.003 C 
ATOM     31  C   UNL     1      52.400 161.285  31.100  0.00  0.00    +0.181 C 
ATOM     32  O   UNL     1      51.288 161.216  31.669  0.00  0.00    -0.291 OA
ENDBRANCH  19  22
BRANCH  15  33
ATOM     33  N   UNL     1      48.473 158.693  30.478  0.00  0.00    -0.193 NA
ATOM     34  C   UNL     1      47.733 159.906  30.732  0.00  0.00    +0.112 C 
ATOM     35  C   UNL     1      48.092 158.943  31.836  0.00  0.00    +0.112 C 
ENDBRANCH  15  33
ENDBRANCH   1  18
BRANCH   5  36
ATOM     36  C   UNL     1      54.567 156.711  25.143  0.00  0.00    +0.041 C 
ATOM     37  C   UNL     1      55.286 157.992  24.888  0.00  0.00    +0.073 C 
ATOM     38  N   UNL     1      55.684 157.978  23.502  0.00  0.00    -0.297 NA
ATOM     39  C   UNL     1      54.956 156.935  22.835  0.00  0.00    +0.069 C 
ATOM     40  C   UNL     1      53.864 156.549  23.769  0.00  0.00    +0.023 C 
ATOM     41  H   UNL     1      56.686 157.798  23.432  0.00  0.00    +0.123 HD
ENDBRANCH   5  36
BRANCH  11  42
ATOM     42  C   UNL     1      51.435 149.318  27.122  0.00  0.00    +0.234 C 
ATOM     43  O   UNL     1      51.745 148.333  26.461  0.00  0.00    -0.283 OA
ENDBRANCH  11  42
TORSDOF 5
