REMARK  Name = =
REMARK  1 active torsions:
REMARK  status: ('A' for Active; 'I' for Inactive)
REMARK    1  A    between atoms: N_1  and  C_31
REMARK                            x       y       z     vdW  Elec       q    Type
REMARK                         _______ _______ _______ _____ _____    ______ ____
ROOT
ATOM      1  N   UNL     1     -13.404 -43.796  28.668  0.00  0.00    -0.262 N 
ATOM      2  C   UNL     1     -13.816 -44.550  29.818  0.00  0.00    +0.179 C 
ATOM      3  C   UNL     1     -15.251 -44.820  29.893  0.00  0.00    +0.243 C 
ATOM      4  O   UNL     1     -15.582 -45.905  30.466  0.00  0.00    -0.273 OA
ATOM      5  N   UNL     1     -16.281 -44.010  29.400  0.00  0.00    -0.303 N 
ATOM      6  C   UNL     1     -16.260 -42.553  29.408  0.00  0.00    +0.090 C 
ATOM      7  C   UNL     1     -17.496 -42.128  30.209  0.00  0.00    +0.031 C 
ATOM      8  C   UNL     1     -18.746 -42.288  29.346  0.00  0.00    +0.087 C 
ATOM      9  C   UNL     1     -18.707 -41.305  28.237  0.00  0.00    +0.223 C 
ATOM     10  O   UNL     1     -18.256 -40.155  28.501  0.00  0.00    -0.275 OA
ATOM     11  N   UNL     1     -19.134 -41.558  26.927  0.00  0.00    -0.297 N 
ATOM     12  C   UNL     1     -20.201 -42.450  26.552  0.00  0.00    +0.176 C 
ATOM     13  C   UNL     1     -19.749 -43.458  25.553  0.00  0.00    +0.243 C 
ATOM     14  O   UNL     1     -18.952 -44.336  25.947  0.00  0.00    -0.273 OA
ATOM     15  N   UNL     1     -20.176 -43.462  24.210  0.00  0.00    -0.295 N 
ATOM     16  C   UNL     1     -20.827 -42.335  23.584  0.00  0.00    +0.176 C 
ATOM     17  C   UNL     1     -19.995 -41.124  23.536  0.00  0.00    +0.243 C 
ATOM     18  O   UNL     1     -20.308 -40.074  24.191  0.00  0.00    -0.273 OA
ATOM     19  N   UNL     1     -18.801 -41.043  22.765  0.00  0.00    -0.295 N 
ATOM     20  C   UNL     1     -17.900 -42.151  22.561  0.00  0.00    +0.176 C 
ATOM     21  C   UNL     1     -16.515 -41.631  22.749  0.00  0.00    +0.243 C 
ATOM     22  O   UNL     1     -16.247 -40.521  22.208  0.00  0.00    -0.273 OA
ATOM     23  N   UNL     1     -15.533 -42.335  23.498  0.00  0.00    -0.295 N 
ATOM     24  C   UNL     1     -15.820 -43.626  24.122  0.00  0.00    +0.176 C 
ATOM     25  C   UNL     1     -14.531 -44.287  24.451  0.00  0.00    +0.243 C 
ATOM     26  O   UNL     1     -13.576 -44.064  23.630  0.00  0.00    -0.273 OA
ATOM     27  N   UNL     1     -14.309 -45.109  25.564  0.00  0.00    -0.295 N 
ATOM     28  C   UNL     1     -14.900 -44.821  26.858  0.00  0.00    +0.176 C 
ATOM     29  C   UNL     1     -14.102 -43.706  27.452  0.00  0.00    +0.246 C 
ATOM     30  O   UNL     1     -14.061 -42.623  26.814  0.00  0.00    -0.273 OA
ATOM     31  H   UNL     1     -17.074 -44.455  29.022  0.00  0.00    +0.149 HD
ATOM     32  H   UNL     1     -18.665 -41.086  26.201  0.00  0.00    +0.150 HD
ATOM     33  H   UNL     1     -20.023 -44.272  23.672  0.00  0.00    +0.150 HD
ATOM     34  H   UNL     1     -18.577 -40.180  22.347  0.00  0.00    +0.150 HD
ATOM     35  H   UNL     1     -14.636 -41.943  23.599  0.00  0.00    +0.150 HD
ATOM     36  H   UNL     1     -13.736 -45.904  25.466  0.00  0.00    +0.150 HD
ENDROOT
BRANCH   1  37
ATOM     37  C   UNL     1     -12.129 -43.076  28.847  0.00  0.00    +0.171 C 
ATOM     38  C   UNL     1     -11.137 -43.990  29.484  0.00  0.00    +0.107 C 
ATOM     39  N   UNL     1     -10.709 -42.815  30.243  0.00  0.00    -0.256 N 
ATOM     40  C   UNL     1      -9.352 -42.728  30.681  0.00  0.00    +0.063 C 
ATOM     41  C   UNL     1      -8.460 -43.663  30.403  0.00  0.00    -0.010 C 
ATOM     42  C   UNL     1      -8.865 -44.841  29.614  0.00  0.00    +0.029 C 
ATOM     43  C   UNL     1      -9.950 -44.413  28.649  0.00  0.00    +0.027 C 
ATOM     44  C   UNL     1     -12.038 -42.329  30.120  0.00  0.00    +0.249 C 
ATOM     45  O   UNL     1     -12.713 -41.581  30.870  0.00  0.00    -0.273 OA
ENDBRANCH   1  37
TORSDOF 1
