REMARK  Name = =
REMARK  6 active torsions:
REMARK  status: ('A' for Active; 'I' for Inactive)
REMARK    1  A    between atoms: C_1  and  C_4
REMARK    2  A    between atoms: C_1  and  S_8
REMARK    3  A    between atoms: C_5  and  C_6
REMARK    4  A    between atoms: S_8  and  P_9
REMARK    5  A    between atoms: P_9  and  O_11
REMARK    6  A    between atoms: P_9  and  O_12
REMARK                            x       y       z     vdW  Elec       q    Type
REMARK                         _______ _______ _______ _____ _____    ______ ____
ROOT
ATOM      1  C   UNL     1     -16.646 -42.043  26.989  0.00  0.00    +0.068 C 
ATOM      2  C   UNL     1     -16.802 -40.948  27.998  0.00  0.00    +0.016 C 
ATOM      3  C   UNL     1     -17.367 -42.297  28.253  0.00  0.00    +0.016 C 
ENDROOT
BRANCH   1   4
ATOM      4  C   UNL     1     -15.336 -42.669  26.751  0.00  0.00    -0.016 C 
ATOM      5  C   UNL     1     -14.578 -43.183  27.694  0.00  0.00    -0.004 C 
BRANCH   5   6
ATOM      6  C   UNL     1     -13.298 -43.783  27.382  0.00  0.00    -0.000 C 
ATOM      7  C   UNL     1     -12.681 -44.550  28.256  0.00  0.00    -0.000 C 
ENDBRANCH   5   6
ENDBRANCH   1   4
BRANCH   1   8
ATOM      8  S   UNL     1     -17.694 -41.800  25.502  0.00  0.00    -0.029 S 
BRANCH   8   9
ATOM      9  P   UNL     1     -19.692 -42.248  25.904  0.00  0.00    +0.387 P 
ATOM     10  O   UNL     1     -19.912 -42.971  27.183  0.00  0.00    -0.246 OA
BRANCH   9  11
ATOM     11  O   UNL     1     -20.336 -43.198  24.651  0.00  0.00    -0.316 OA
ATOM     12  H   UNL     1     -20.205 -42.746  23.803  0.00  0.00    +0.221 HD
ENDBRANCH   9  11
BRANCH   9  13
ATOM     13  O   UNL     1     -20.614 -40.820  25.947  0.00  0.00    -0.316 OA
ATOM     14  H   UNL     1     -20.282 -40.242  26.651  0.00  0.00    +0.221 HD
ENDBRANCH   9  13
ENDBRANCH   8   9
ENDBRANCH   1   8
TORSDOF 6
