REMARK  Name = =
REMARK  8 active torsions:
REMARK  status: ('A' for Active; 'I' for Inactive)
REMARK    1  A    between atoms: S_1  and  C_2
REMARK    2  A    between atoms: S_1  and  C_9
REMARK    3  A    between atoms: S_1  and  P_23
REMARK    4  A    between atoms: C_9  and  C_12
REMARK    5  A    between atoms: C_12  and  C_15
REMARK    6  A    between atoms: C_13  and  C_21
REMARK    7  A    between atoms: P_23  and  O_25
REMARK    8  A    between atoms: P_23  and  O_26
REMARK                            x       y       z     vdW  Elec       q    Type
REMARK                         _______ _______ _______ _____ _____    ______ ____
ROOT
ATOM      1  S   UNL     1     -22.397 -41.558  24.585  0.00  0.00    -0.111 S 
ATOM      2  H   UNL     1     -21.867 -41.459  25.833  0.00  0.00    +0.097 HD
ENDROOT
BRANCH   1   3
ATOM      3  C   UNL     1     -22.526 -43.206  24.499  0.00  0.00    +0.154 C 
ATOM      4  O   UNL     1     -23.747 -43.805  24.488  0.00  0.00    -0.339 OA
ATOM      5  C   UNL     1     -23.732 -45.173  24.431  0.00  0.00    +0.207 C 
ATOM      6  C   UNL     1     -22.407 -45.790  24.457  0.00  0.00    +0.181 C 
ATOM      7  O   UNL     1     -22.163 -46.760  23.779  0.00  0.00    -0.293 OA
ATOM      8  C   UNL     1     -21.345 -45.227  25.323  0.00  0.00    +0.071 C 
ATOM      9  C   UNL     1     -21.776 -43.820  25.696  0.00  0.00    +0.048 C 
ENDBRANCH   1   3
BRANCH   1  10
ATOM     10  C   UNL     1     -21.260 -40.910  23.387  0.00  0.00    +0.050 C 
ATOM     11  C   UNL     1     -19.892 -41.550  23.596  0.00  0.00    +0.014 C 
ATOM     12  C   UNL     1     -20.148 -40.116  23.901  0.00  0.00    +0.014 C 
BRANCH  10  13
ATOM     13  C   UNL     1     -21.769 -40.839  21.991  0.00  0.00    -0.014 C 
ATOM     14  C   UNL     1     -22.292 -41.929  21.480  0.00  0.00    -0.006 C 
BRANCH  13  16
ATOM     15  S   UNL     1     -20.692 -39.953  19.659  0.00  0.00    -0.122 S 
ATOM     16  C   UNL     1     -21.811 -39.702  21.096  0.00  0.00    +0.103 C 
ATOM     17  N   UNL     1     -21.365 -38.394  21.454  0.00  0.00    -0.263 NA
ATOM     18  C   UNL     1     -19.996 -38.143  21.247  0.00  0.00    +0.085 C 
ATOM     19  C   UNL     1     -19.433 -38.860  20.335  0.00  0.00    +0.076 C 
ATOM     20  C   UNL     1     -22.737 -38.106  21.826  0.00  0.00    +0.076 C 
ATOM     21  C   UNL     1     -23.145 -39.112  20.746  0.00  0.00    +0.046 C 
ENDBRANCH  13  16
BRANCH  14  22
ATOM     22  C   UNL     1     -22.854 -41.980  20.145  0.00  0.00    -0.001 C 
ATOM     23  C   UNL     1     -23.703 -42.947  19.783  0.00  0.00    -0.000 C 
ENDBRANCH  14  22
ENDBRANCH  10  13
ENDBRANCH   1  10
BRANCH   1  24
ATOM     24  P   UNL     1     -23.703 -40.551  25.002  0.00  0.00    +0.370 P 
ATOM     25  O   UNL     1     -24.593 -40.145  23.816  0.00  0.00    -0.248 OA
BRANCH  24  26
ATOM     26  O   UNL     1     -23.229 -39.054  25.698  0.00  0.00    -0.317 OA
ATOM     27  H   UNL     1     -22.657 -39.220  26.464  0.00  0.00    +0.220 HD
ENDBRANCH  24  26
BRANCH  24  28
ATOM     28  O   UNL     1     -24.783 -41.229  26.119  0.00  0.00    -0.317 OA
ATOM     29  H   UNL     1     -24.296 -41.515  26.907  0.00  0.00    +0.220 HD
ENDBRANCH  24  28
ENDBRANCH   1  24
TORSDOF 8
