REMARK  Name = =
REMARK  1 active torsions:
REMARK  status: ('A' for Active; 'I' for Inactive)
REMARK    1  A    between atoms: C_12  and  O_20
REMARK                            x       y       z     vdW  Elec       q    Type
REMARK                         _______ _______ _______ _____ _____    ______ ____
ROOT
ATOM      1  N   UNL     1      51.484 157.511  29.187  0.00  0.00    -0.219 NA
ATOM      2  C   UNL     1      51.262 158.935  28.994  0.00  0.00    +0.078 C 
ATOM      3  C   UNL     1      49.803 159.223  29.219  0.00  0.00    +0.024 C 
ATOM      4  C   UNL     1      49.526 159.064  30.669  0.00  0.00    +0.068 C 
ATOM      5  C   UNL     1      48.173 159.472  31.152  0.00  0.00    +0.226 C 
ATOM      6  O   UNL     1      48.486 159.934  32.485  0.00  0.00    -0.469 OA
ATOM      7  C   UNL     1      49.749 160.537  32.463  0.00  0.00    +0.168 C 
ATOM      8  C   UNL     1      50.395 160.033  31.374  0.00  0.00    +0.014 C 
ATOM      9  C   UNL     1      51.650 160.366  30.997  0.00  0.00    -0.022 C 
ATOM     10  C   UNL     1      52.346 161.277  31.748  0.00  0.00    -0.001 C 
ATOM     11  C   UNL     1      51.716 161.821  32.878  0.00  0.00    +0.039 C 
ATOM     12  C   UNL     1      50.428 161.451  33.231  0.00  0.00    +0.167 C 
ATOM     13  C   UNL     1      52.221 159.748  29.785  0.00  0.00    +0.044 C 
ATOM     14  C   UNL     1      47.561 160.548  30.339  0.00  0.00    +0.191 C 
ATOM     15  O   UNL     1      46.649 161.178  30.836  0.00  0.00    -0.292 OA
ATOM     16  C   UNL     1      47.990 160.896  28.974  0.00  0.00    +0.068 C 
ATOM     17  C   UNL     1      49.411 160.563  28.663  0.00  0.00    +0.010 C 
ATOM     18  C   UNL     1      49.933 157.680  31.094  0.00  0.00    +0.027 C 
ATOM     19  C   UNL     1      50.454 156.871  29.940  0.00  0.00    +0.089 C 
ENDROOT
BRANCH  12  20
ATOM     20  O   UNL     1      49.797 161.989  34.354  0.00  0.00    -0.503 OA
ATOM     21  H   UNL     1      48.925 161.724  34.574  0.00  0.00    +0.292 HD
ENDBRANCH  12  20
TORSDOF 1
