REMARK  Name = =
REMARK  3 active torsions:
REMARK  status: ('A' for Active; 'I' for Inactive)
REMARK    1  A    between atoms: N_1  and  N_20
REMARK    2  A    between atoms: C_12  and  O_23
REMARK    3  A    between atoms: N_20  and  C_21
REMARK                            x       y       z     vdW  Elec       q    Type
REMARK                         _______ _______ _______ _____ _____    ______ ____
ROOT
ATOM      1  N   UNL     1      50.173 157.079  29.596  0.00  0.00    -0.241 N 
ATOM      2  C   UNL     1      50.466 158.429  29.172  0.00  0.00    +0.097 C 
ATOM      3  C   UNL     1      49.333 159.250  29.703  0.00  0.00    +0.032 C 
ATOM      4  C   UNL     1      49.582 159.346  31.200  0.00  0.00    +0.087 C 
ATOM      5  C   UNL     1      48.490 160.080  31.943  0.00  0.00    +0.230 C 
ATOM      6  O   UNL     1      49.124 161.200  32.566  0.00  0.00    -0.468 OA
ATOM      7  C   UNL     1      50.407 161.388  32.047  0.00  0.00    +0.168 C 
ATOM      8  C   UNL     1      50.675 160.343  31.253  0.00  0.00    +0.018 C 
ATOM      9  C   UNL     1      51.783 160.096  30.533  0.00  0.00    -0.021 C 
ATOM     10  C   UNL     1      52.795 161.040  30.618  0.00  0.00    -0.001 C 
ATOM     11  C   UNL     1      52.609 162.162  31.423  0.00  0.00    +0.039 C 
ATOM     12  C   UNL     1      51.421 162.341  32.137  0.00  0.00    +0.167 C 
ATOM     13  C   UNL     1      51.845 158.873  29.665  0.00  0.00    +0.048 C 
ATOM     14  C   UNL     1      47.401 160.440  31.014  0.00  0.00    +0.191 C 
ATOM     15  O   UNL     1      46.893 161.539  31.060  0.00  0.00    -0.292 OA
ATOM     16  C   UNL     1      46.881 159.481  29.992  0.00  0.00    +0.068 C 
ATOM     17  C   UNL     1      48.019 158.593  29.488  0.00  0.00    +0.010 C 
ATOM     18  C   UNL     1      49.951 158.077  31.844  0.00  0.00    -0.001 C 
ATOM     19  C   UNL     1      50.161 156.890  31.003  0.00  0.00    +0.076 C 
ENDROOT
BRANCH   1  20
ATOM     20  N   UNL     1      50.744 156.096  28.865  0.00  0.00    -0.255 N 
ATOM     21  H   UNL     1      50.168 155.456  28.387  0.00  0.00    +0.171 HD
BRANCH  20  22
ATOM     22  C   UNL     1      52.155 155.963  28.769  0.00  0.00    +0.118 C 
ATOM     23  S   UNL     1      52.803 155.798  27.280  0.00  0.00    -0.032 S 
ENDBRANCH  20  22
ENDBRANCH   1  20
BRANCH  12  24
ATOM     24  O   UNL     1      51.221 163.441  32.933  0.00  0.00    -0.503 OA
ATOM     25  H   UNL     1      50.416 163.540  33.402  0.00  0.00    +0.292 HD
ENDBRANCH  12  24
TORSDOF 3
