REMARK  Name = =
REMARK  3 active torsions:
REMARK  status: ('A' for Active; 'I' for Inactive)
REMARK    1  A    between atoms: N_1  and  N_32
REMARK    2  A    between atoms: C_12  and  O_35
REMARK    3  A    between atoms: N_32  and  C_33
REMARK                            x       y       z     vdW  Elec       q    Type
REMARK                         _______ _______ _______ _____ _____    ______ ____
ROOT
ATOM      1  N   UNL     1      50.549 157.807  29.193  0.00  0.00    -0.200 NA
ATOM      2  C   UNL     1      49.399 157.793  30.079  0.00  0.00    +0.081 C 
ATOM      3  C   UNL     1      49.812 158.332  31.380  0.00  0.00    +0.025 C 
ATOM      4  C   UNL     1      50.386 159.694  31.298  0.00  0.00    +0.068 C 
ATOM      5  C   UNL     1      50.743 160.396  32.572  0.00  0.00    +0.226 C 
ATOM      6  O   UNL     1      50.388 161.769  32.203  0.00  0.00    -0.469 OA
ATOM      7  C   UNL     1      49.300 161.748  31.349  0.00  0.00    +0.168 C 
ATOM      8  C   UNL     1      49.257 160.513  30.796  0.00  0.00    +0.014 C 
ATOM      9  C   UNL     1      48.354 160.062  29.916  0.00  0.00    -0.022 C 
ATOM     10  C   UNL     1      47.371 160.947  29.528  0.00  0.00    -0.001 C 
ATOM     11  C   UNL     1      47.360 162.236  30.057  0.00  0.00    +0.039 C 
ATOM     12  C   UNL     1      48.316 162.664  30.973  0.00  0.00    +0.167 C 
ATOM     13  C   UNL     1      48.362 158.671  29.410  0.00  0.00    +0.044 C 
ATOM     14  C   UNL     1      49.852 159.986  33.694  0.00  0.00    +0.191 C 
ATOM     15  O   UNL     1      50.003 160.547  34.762  0.00  0.00    -0.292 OA
ATOM     16  C   UNL     1      48.813 158.949  33.561  0.00  0.00    +0.068 C 
ATOM     17  C   UNL     1      49.278 157.854  32.624  0.00  0.00    +0.010 C 
ATOM     18  C   UNL     1      51.523 159.682  30.309  0.00  0.00    +0.027 C 
ATOM     19  C   UNL     1      51.724 158.223  29.872  0.00  0.00    +0.093 C 
ENDROOT
BRANCH   1  32
ATOM     20  C   UNL     1      51.797 156.282  27.760  0.00  0.00    +0.146 C 
ATOM     21  N   UNL     1      52.210 157.024  26.824  0.00  0.00    -0.245 NA
ATOM     22  C   UNL     1      53.306 157.017  25.903  0.00  0.00    +0.212 C 
ATOM     23  C   UNL     1      53.745 155.679  25.484  0.00  0.00    +0.251 C 
ATOM     24  O   UNL     1      54.018 155.541  24.242  0.00  0.00    -0.273 OA
ATOM     25  N   UNL     1      53.910 154.515  26.264  0.00  0.00    -0.282 N 
ATOM     26  C   UNL     1      53.359 154.248  27.551  0.00  0.00    +0.053 C 
ATOM     27  C   UNL     1      52.411 155.046  28.216  0.00  0.00    +0.046 C 
ATOM     28  C   UNL     1      51.980 154.648  29.459  0.00  0.00    +0.004 C 
ATOM     29  C   UNL     1      52.480 153.492  30.015  0.00  0.00    +0.000 C 
ATOM     30  C   UNL     1      53.400 152.720  29.370  0.00  0.00    +0.001 C 
ATOM     31  C   UNL     1      53.835 153.109  28.128  0.00  0.00    +0.015 C 
ATOM     32  N   UNL     1      50.628 156.660  28.447  0.00  0.00    -0.205 N 
ATOM     33  H   UNL     1      54.470 153.805  25.874  0.00  0.00    +0.155 HD
BRANCH  32  34
ATOM     34  C   UNL     1      49.490 155.818  28.354  0.00  0.00    +0.125 C 
ATOM     35  S   UNL     1      48.610 155.295  29.608  0.00  0.00    -0.031 S 
ENDBRANCH  32  34
ENDBRANCH   1  32
BRANCH  12  36
ATOM     36  O   UNL     1      48.284 163.938  31.481  0.00  0.00    -0.503 OA
ATOM     37  H   UNL     1      47.612 164.533  31.212  0.00  0.00    +0.292 HD
ENDBRANCH  12  36
TORSDOF 3
