MODEL 1
REMARK VINA RESULT:    19.967      0.000      0.000
REMARK INTER + INTRA:          22.861
REMARK INTER:                  22.885
REMARK INTRA:                  -0.024
REMARK UNBOUND:                -0.024
REMARK  Name = =
REMARK  3 active torsions:
REMARK  status: ('A' for Active; 'I' for Inactive)
REMARK    1  A    between atoms: N_1  and  N_21
REMARK    2  A    between atoms: C_22  and  C_24
REMARK    3  A    between atoms: C_24  and  O_26
REMARK                            x       y       z     vdW  Elec       q    Type
REMARK                         _______ _______ _______ _____ _____    ______ ____
ROOT
ATOM      1  N   UNL     1      49.908 163.943  42.241  0.00  0.00    -0.238 N 
ATOM      2  C   UNL     1      50.625 162.816  41.761  0.00  0.00    +0.065 C 
ATOM      3  C   UNL     1      52.069 163.000  41.666  0.00  0.00    +0.016 C 
ATOM      4  C   UNL     1      52.869 161.782  41.891  0.00  0.00    +0.001 C 
ATOM      5  C   UNL     1      52.361 160.533  42.203  0.00  0.00    +0.003 C 
ATOM      6  C   UNL     1      50.909 160.409  42.304  0.00  0.00    +0.038 C 
ATOM      7  C   UNL     1      50.361 159.172  42.618  0.00  0.00    +0.176 C 
ATOM      8  C   UNL     1      48.968 159.063  42.714  0.00  0.00    +0.176 C 
ATOM      9  C   UNL     1      48.182 160.177  42.497  0.00  0.00    +0.036 C 
ATOM     10  C   UNL     1      48.724 161.391  42.189  0.00  0.00    -0.016 C 
ATOM     11  C   UNL     1      50.102 161.505  42.092  0.00  0.00    +0.014 C 
ATOM     12  C   UNL     1      47.888 162.553  41.961  0.00  0.00    +0.050 C 
ATOM     13  C   UNL     1      48.522 163.861  42.347  0.00  0.00    +0.117 C 
ATOM     14  O   UNL     1      48.697 157.742  43.035  0.00  0.00    -0.435 OA
ATOM     15  C   UNL     1      49.861 156.996  42.658  0.00  0.00    +0.429 C 
ATOM     16  O   UNL     1      50.898 157.937  42.876  0.00  0.00    -0.435 OA
ATOM     17  C   UNL     1      53.223 159.466  42.398  0.00  0.00    +0.000 C 
ATOM     18  C   UNL     1      54.584 159.621  42.287  0.00  0.00    +0.000 C 
ATOM     19  C   UNL     1      55.092 160.858  41.978  0.00  0.00    +0.000 C 
ATOM     20  C   UNL     1      54.237 161.912  41.785  0.00  0.00    +0.000 C 
ENDROOT
BRANCH   1  21
ATOM     21  N   UNL     1      50.507 165.149  42.105  0.00  0.00    -0.224 N 
ATOM     22  C   UNL     1      50.261 165.948  40.948  0.00  0.00    +0.337 C 
ATOM     23  O   UNL     1      49.483 165.548  40.026  0.00  0.00    -0.261 OA
ATOM     24  H   UNL     1      51.114 165.477  42.807  0.00  0.00    +0.174 HD
BRANCH  22  25
ATOM     25  C   UNL     1      50.887 167.249  40.771  0.00  0.00    +0.394 C 
ATOM     26  O   UNL     1      50.739 168.175  41.600  0.00  0.00    -0.240 OA
BRANCH  25  27
ATOM     27  O   UNL     1      51.670 167.478  39.659  0.00  0.00    -0.474 OA
ATOM     28  H   UNL     1      51.736 166.826  38.990  0.00  0.00    +0.296 HD
ENDBRANCH  25  27
ENDBRANCH  22  25
ENDBRANCH   1  21
TORSDOF 3
ENDMDL
