MODEL 1
REMARK VINA RESULT:    -7.913      0.000      0.000
REMARK INTER + INTRA:         -12.673
REMARK INTER:                 -10.457
REMARK INTRA:                  -2.216
REMARK UNBOUND:                -2.216
REMARK  Name = =
REMARK  6 active torsions:
REMARK  status: ('A' for Active; 'I' for Inactive)
REMARK    1  A    between atoms: C_1  and  N_7
REMARK    2  A    between atoms: C_2  and  O_28
REMARK    3  A    between atoms: C_5  and  C_26
REMARK    4  A    between atoms: C_6  and  O_29
REMARK    5  A    between atoms: C_15  and  C_16
REMARK    6  A    between atoms: O_29  and  C_30
REMARK                            x       y       z     vdW  Elec       q    Type
REMARK                         _______ _______ _______ _____ _____    ______ ____
ROOT
ATOM      1  C   UNL     1      60.972 162.541  39.722  0.00  0.00    +0.120 C 
ATOM      2  C   UNL     1      62.348 162.580  39.665  0.00  0.00    +0.150 C 
ATOM      3  C   UNL     1      63.097 163.259  40.598  0.00  0.00    +0.038 C 
ATOM      4  C   UNL     1      62.416 163.904  41.600  0.00  0.00    +0.010 C 
ATOM      5  C   UNL     1      61.019 163.883  41.684  0.00  0.00    +0.078 C 
ATOM      6  C   UNL     1      60.322 163.190  40.733  0.00  0.00    +0.159 C 
ENDROOT
BRANCH   1   7
ATOM      7  N   UNL     1      60.357 161.818  38.661  0.00  0.00    -0.282 N 
ATOM      8  C   UNL     1      59.907 162.362  37.430  0.00  0.00    +0.047 C 
ATOM      9  C   UNL     1      59.032 161.445  36.876  0.00  0.00    -0.007 C 
ATOM     10  C   UNL     1      58.887 160.267  37.763  0.00  0.00    +0.049 C 
ATOM     11  C   UNL     1      60.062 160.385  38.686  0.00  0.00    +0.100 C 
ATOM     12  C   UNL     1      58.428 161.745  35.658  0.00  0.00    -0.003 C 
ATOM     13  C   UNL     1      58.668 162.913  34.989  0.00  0.00    -0.000 C 
ATOM     14  C   UNL     1      59.554 163.821  35.569  0.00  0.00    +0.001 C 
ATOM     15  C   UNL     1      60.179 163.573  36.772  0.00  0.00    +0.034 C 
BRANCH  15  16
ATOM     16  C   UNL     1      61.113 164.561  37.301  0.00  0.00    +0.233 C 
ATOM     17  O   UNL     1      61.829 165.100  36.199  0.00  0.00    -0.468 OA
ATOM     18  C   UNL     1      61.825 166.382  35.758  0.00  0.00    +0.173 C 
ATOM     19  C   UNL     1      60.831 167.242  36.194  0.00  0.00    +0.172 C 
ATOM     20  C   UNL     1      60.800 168.534  35.771  0.00  0.00    +0.040 C 
ATOM     21  C   UNL     1      61.772 168.984  34.902  0.00  0.00    +0.003 C 
ATOM     22  C   UNL     1      62.755 168.127  34.474  0.00  0.00    +0.003 C 
ATOM     23  C   UNL     1      62.817 166.797  34.886  0.00  0.00    +0.040 C 
ATOM     24  O   UNL     1      59.908 166.668  37.069  0.00  0.00    -0.468 OA
ATOM     25  C   UNL     1      60.291 165.681  37.966  0.00  0.00    +0.253 C 
ENDBRANCH  15  16
ENDBRANCH   1   7
BRANCH   5  26
ATOM     26  C   UNL     1      60.389 164.717  42.735  0.00  0.00    +0.237 C 
ATOM     27  O   UNL     1      59.917 165.853  42.551  0.00  0.00    -0.283 OA
ENDBRANCH   5  26
BRANCH   2  28
ATOM     28  O   UNL     1      63.065 161.931  38.657  0.00  0.00    -0.504 OA
ATOM     29  H   UNL     1      62.762 161.112  38.319  0.00  0.00    +0.292 HD
ENDBRANCH   2  28
BRANCH   6  30
ATOM     30  O   UNL     1      58.962 163.154  40.794  0.00  0.00    -0.469 OA
BRANCH  30  31
ATOM     31  C   UNL     1      58.111 162.583  41.723  0.00  0.00    +0.211 C 
ATOM     32  C   UNL     1      56.654 162.789  41.535  0.00  0.00    +0.021 C 
ATOM     33  C   UNL     1      56.045 161.556  41.556  0.00  0.00    -0.000 C 
ATOM     34  C   UNL     1      57.069 160.510  41.768  0.00  0.00    -0.000 C 
ATOM     35  C   UNL     1      58.297 161.123  41.875  0.00  0.00    +0.021 C 
ATOM     36  C   UNL     1      59.411 160.339  42.078  0.00  0.00    -0.000 C 
ATOM     37  C   UNL     1      59.306 158.964  42.176  0.00  0.00    -0.000 C 
ATOM     38  C   UNL     1      58.069 158.387  42.065  0.00  0.00    -0.000 C 
ATOM     39  C   UNL     1      56.955 159.161  41.861  0.00  0.00    -0.000 C 
ATOM     40  C   UNL     1      54.678 161.480  41.406  0.00  0.00    -0.000 C 
ATOM     41  C   UNL     1      53.897 162.621  41.235  0.00  0.00    -0.000 C 
ATOM     42  C   UNL     1      54.505 163.855  41.215  0.00  0.00    -0.000 C 
ATOM     43  C   UNL     1      55.878 163.916  41.367  0.00  0.00    -0.000 C 
ENDBRANCH  30  31
ENDBRANCH   6  30
TORSDOF 6
ENDMDL
