MODEL 1
REMARK VINA RESULT:    -8.665      0.000      0.000
REMARK INTER + INTRA:         -14.497
REMARK INTER:                 -12.717
REMARK INTRA:                  -1.780
REMARK UNBOUND:                -1.780
REMARK  Name = =
REMARK  9 active torsions:
REMARK  status: ('A' for Active; 'I' for Inactive)
REMARK    1  A    between atoms: N_1  and  C_10
REMARK    2  A    between atoms: C_2  and  N_33
REMARK    3  A    between atoms: C_3  and  C_24
REMARK    4  A    between atoms: S_7  and  S_13
REMARK    5  A    between atoms: S_7  and  C_21
REMARK    6  A    between atoms: C_27  and  C_30
REMARK    7  A    between atoms: C_30  and  O_32
REMARK    8  A    between atoms: C_34  and  C_36
REMARK    9  A    between atoms: C_39  and  O_42
REMARK                            x       y       z     vdW  Elec       q    Type
REMARK                         _______ _______ _______ _____ _____    ______ ____
ROOT
ATOM      1  N   UNL     1       1.115  -2.308  27.275  0.00  0.00    -0.249 N 
ATOM      2  C   UNL     1       1.377  -2.496  25.834  0.00  0.00    +0.175 C 
ATOM      3  C   UNL     1       1.314  -1.051  25.383  0.00  0.00    +0.133 C 
ATOM      4  N   UNL     1       2.136  -0.423  26.401  0.00  0.00    -0.283 N 
ATOM      5  C   UNL     1       1.792  -1.105  27.631  0.00  0.00    +0.305 C 
ATOM      6  O   UNL     1       2.031  -0.734  28.808  0.00  0.00    -0.253 OA
ATOM      7  H   UNL     1       2.786   0.307  26.281  0.00  0.00    +0.151 HD
ENDROOT
BRANCH   1  11
ATOM      8  S   UNL     1      -0.969  -5.131  29.717  0.00  0.00    -0.162 S 
ATOM      9  C   UNL     1       0.462  -4.394  30.324  0.00  0.00    +0.054 C 
ATOM     10  C   UNL     1       1.210  -3.565  29.302  0.00  0.00    +0.031 C 
ATOM     11  C   UNL     1       0.339  -3.168  28.140  0.00  0.00    +0.080 C 
ATOM     12  C   UNL     1      -0.147  -4.330  27.344  0.00  0.00    +0.031 C 
ATOM     13  C   UNL     1      -0.214  -5.594  28.165  0.00  0.00    +0.054 C 
BRANCH   8  14
ATOM     14  S   UNL     1      -2.509  -4.054  29.534  0.00  0.00    -0.182 S 
ATOM     15  C   UNL     1      -2.540  -2.582  30.400  0.00  0.00    +0.063 C 
ATOM     16  C   UNL     1      -3.928  -2.517  30.987  0.00  0.00    +0.080 C 
ATOM     17  N   UNL     1      -4.783  -3.407  30.227  0.00  0.00    -0.288 NA
ATOM     18  C   UNL     1      -3.982  -4.643  30.274  0.00  0.00    +0.116 C 
ATOM     19  H   UNL     1      -2.450  -3.993  28.177  0.00  0.00    +0.094 HD
ATOM     20  H   UNL     1      -4.915  -3.079  29.270  0.00  0.00    +0.124 HD
ENDBRANCH   8  14
BRANCH   8  24
ATOM     21  C   UNL     1      -1.637  -9.108  31.951  0.00  0.00    +0.000 C 
ATOM     22  C   UNL     1      -2.167  -8.938  30.694  0.00  0.00    +0.000 C 
ATOM     23  C   UNL     1      -1.956  -7.734  30.004  0.00  0.00    +0.005 C 
ATOM     24  C   UNL     1      -1.234  -6.731  30.563  0.00  0.00    +0.016 C 
ATOM     25  C   UNL     1      -0.713  -6.924  31.822  0.00  0.00    +0.005 C 
ATOM     26  C   UNL     1      -0.904  -8.096  32.522  0.00  0.00    +0.000 C 
ENDBRANCH   8  24
ENDBRANCH   1  11
BRANCH   3  27
ATOM     27  C   UNL     1       1.737  -0.814  24.009  0.00  0.00    -0.001 C 
ATOM     28  C   UNL     1       1.080  -1.485  22.969  0.00  0.00    -0.002 C 
ATOM     29  C   UNL     1       1.421  -1.311  21.651  0.00  0.00    +0.006 C 
ATOM     30  C   UNL     1       2.438  -0.455  21.298  0.00  0.00    +0.075 C 
ATOM     31  C   UNL     1       3.101   0.217  22.300  0.00  0.00    +0.006 C 
ATOM     32  C   UNL     1       2.741   0.027  23.638  0.00  0.00    -0.002 C 
BRANCH  30  33
ATOM     33  C   UNL     1       2.819  -0.253  19.905  0.00  0.00    +0.338 C 
ATOM     34  O   UNL     1       2.978  -1.232  19.152  0.00  0.00    -0.245 OA
BRANCH  33  35
ATOM     35  O   UNL     1       3.016   1.006  19.380  0.00  0.00    -0.477 OA
ATOM     36  H   UNL     1       2.546   1.272  18.614  0.00  0.00    +0.295 HD
ENDBRANCH  33  35
ENDBRANCH  30  33
ENDBRANCH   3  27
BRANCH   2  37
ATOM     37  N   UNL     1       2.763  -2.921  25.743  0.00  0.00    -0.285 N 
ATOM     38  C   UNL     1       3.152  -4.150  25.171  0.00  0.00    +0.247 C 
ATOM     39  O   UNL     1       2.200  -4.873  24.733  0.00  0.00    -0.270 OA
ATOM     40  H   UNL     1       3.462  -2.325  26.096  0.00  0.00    +0.151 HD
BRANCH  38  41
ATOM     41  C   UNL     1       4.536  -4.590  25.073  0.00  0.00    +0.054 C 
ATOM     42  C   UNL     1       5.451  -3.922  24.283  0.00  0.00    +0.008 C 
ATOM     43  C   UNL     1       6.767  -4.336  24.189  0.00  0.00    +0.037 C 
ATOM     44  C   UNL     1       7.178  -5.450  24.903  0.00  0.00    +0.134 C 
ATOM     45  C   UNL     1       6.278  -6.123  25.692  0.00  0.00    +0.037 C 
ATOM     46  C   UNL     1       4.948  -5.695  25.782  0.00  0.00    +0.008 C 
BRANCH  44  47
ATOM     47  O   UNL     1       8.483  -5.873  24.816  0.00  0.00    -0.506 OA
ATOM     48  H   UNL     1       8.908  -6.239  25.568  0.00  0.00    +0.292 HD
ENDBRANCH  44  47
ENDBRANCH  38  41
ENDBRANCH   2  37
TORSDOF 9
ENDMDL
