MODEL 1
REMARK VINA RESULT:    -9.732      0.000      0.000
REMARK INTER + INTRA:         -13.933
REMARK INTER:                 -13.430
REMARK INTRA:                  -0.503
REMARK UNBOUND:                -0.503
REMARK  Name = =
REMARK  7 active torsions:
REMARK  status: ('A' for Active; 'I' for Inactive)
REMARK    1  A    between atoms: C_1  and  S_14
REMARK    2  A    between atoms: C_1  and  C_18
REMARK    3  A    between atoms: C_3  and  N_21
REMARK    4  A    between atoms: C_7  and  N_8
REMARK    5  A    between atoms: S_14  and  O_17
REMARK    6  A    between atoms: N_21  and  N_24
REMARK    7  A    between atoms: N_24  and  C_27
REMARK                            x       y       z     vdW  Elec       q    Type
REMARK                         _______ _______ _______ _____ _____    ______ ____
ROOT
ATOM      1  C   UNL     1       2.872  -5.597  27.670  0.00  0.00    +0.305 C 
ATOM      2  O   UNL     1       1.914  -6.164  28.521  0.00  0.00    -0.303 OA
ATOM      3  C   UNL     1       2.192  -6.040  29.852  0.00  0.00    +0.277 C 
ATOM      4  C   UNL     1       2.032  -4.555  30.141  0.00  0.00    +0.223 C 
ATOM      5  O   UNL     1       1.332  -4.116  31.062  0.00  0.00    -0.287 OA
ATOM      6  C   UNL     1       2.786  -3.721  29.225  0.00  0.00    +0.057 C 
ATOM      7  C   UNL     1       3.190  -4.221  28.033  0.00  0.00    +0.088 C 
ENDROOT
BRANCH   7   8
ATOM      8  N   UNL     1       3.876  -3.275  27.206  0.00  0.00    -0.258 N 
ATOM      9  C   UNL     1       3.393  -2.317  26.242  0.00  0.00    +0.099 C 
ATOM     10  C   UNL     1       4.449  -2.338  25.128  0.00  0.00    +0.031 C 
ATOM     11  C   UNL     1       5.750  -2.504  25.885  0.00  0.00    +0.087 C 
ATOM     12  C   UNL     1       5.316  -3.148  27.168  0.00  0.00    +0.229 C 
ATOM     13  O   UNL     1       6.161  -3.496  28.032  0.00  0.00    -0.275 OA
ENDBRANCH   7   8
BRANCH   1  14
ATOM     14  S   UNL     1       2.051  -5.656  26.056  0.00  0.00    +0.024 S 
ATOM     15  O   UNL     1       3.113  -5.668  24.974  0.00  0.00    -0.069 OA
ATOM     16  O   UNL     1       1.247  -4.419  25.838  0.00  0.00    -0.069 OA
BRANCH  14  17
ATOM     17  O   UNL     1       1.170  -7.062  25.872  0.00  0.00    -0.269 OA
ATOM     18  H   UNL     1       0.240  -6.842  25.708  0.00  0.00    +0.243 HD
ENDBRANCH  14  17
ENDBRANCH   1  14
BRANCH   1  19
ATOM     19  C   UNL     1       3.987  -6.539  27.606  0.00  0.00    +0.282 C 
ATOM     20  O   UNL     1       5.139  -6.148  27.620  0.00  0.00    -0.274 OA
ATOM     21 CL   UNL     1       3.749  -8.251  27.513  0.00  0.00    -0.038 Cl
ENDBRANCH   1  19
BRANCH   3  22
ATOM     22  N   UNL     1       1.131  -6.675  30.592  0.00  0.00    -0.161 N 
ATOM     23  C   UNL     1       1.394  -7.002  31.949  0.00  0.00    +0.323 C 
ATOM     24  O   UNL     1       2.506  -6.749  32.476  0.00  0.00    -0.263 OA
BRANCH  22  25
ATOM     25  N   UNL     1      -0.128  -7.015  30.092  0.00  0.00    -0.173 N 
ATOM     26  C   UNL     1      -0.125  -8.128  29.187  0.00  0.00    +0.324 C 
ATOM     27  O   UNL     1      -1.234  -8.494  28.726  0.00  0.00    -0.263 OA
BRANCH  25  28
ATOM     28  C   UNL     1      -1.341  -6.383  30.393  0.00  0.00    +0.073 C 
ATOM     29  C   UNL     1      -1.751  -5.260  29.715  0.00  0.00    +0.015 C 
ATOM     30  C   UNL     1      -2.948  -4.618  30.020  0.00  0.00    +0.001 C 
ATOM     31  C   UNL     1      -3.749  -5.116  31.030  0.00  0.00    +0.000 C 
ATOM     32  C   UNL     1      -3.355  -6.236  31.718  0.00  0.00    +0.001 C 
ATOM     33  C   UNL     1      -2.158  -6.860  31.396  0.00  0.00    +0.015 C 
ATOM     34  C   UNL     1      -1.835  -7.985  32.131  0.00  0.00    +0.001 C 
ATOM     35  C   UNL     1      -2.626  -8.492  33.131  0.00  0.00    +0.000 C 
ATOM     36  C   UNL     1      -3.814  -7.866  33.444  0.00  0.00    +0.000 C 
ATOM     37  C   UNL     1      -4.175  -6.727  32.725  0.00  0.00    +0.000 C 
ATOM     38  C   UNL     1      -3.347  -3.477  29.326  0.00  0.00    +0.000 C 
ATOM     39  C   UNL     1      -2.594  -2.936  28.322  0.00  0.00    +0.000 C 
ATOM     40  C   UNL     1      -1.389  -3.573  28.006  0.00  0.00    +0.000 C 
ATOM     41  C   UNL     1      -0.999  -4.702  28.696  0.00  0.00    +0.001 C 
ENDBRANCH  25  28
ENDBRANCH  22  25
ENDBRANCH   3  22
TORSDOF 7
ENDMDL
