MODEL 1
REMARK VINA RESULT:   -11.214      0.000      0.000
REMARK INTER + INTRA:         -15.720
REMARK INTER:                 -14.819
REMARK INTRA:                  -0.901
REMARK UNBOUND:                -0.901
REMARK  Name = =
REMARK  6 active torsions:
REMARK  status: ('A' for Active; 'I' for Inactive)
REMARK    1  A    between atoms: C_1  and  N_12
REMARK    2  A    between atoms: C_1  and  C_25
REMARK    3  A    between atoms: C_8  and  C_28
REMARK    4  A    between atoms: C_29  and  C_30
REMARK    5  A    between atoms: N_32  and  P_35
REMARK    6  A    between atoms: P_35  and  O_45
REMARK                            x       y       z     vdW  Elec       q    Type
REMARK                         _______ _______ _______ _____ _____    ______ ____
ROOT
ATOM      1  C   UNL     1       0.107  -5.627  29.323  0.00  0.00    +0.192 C 
ATOM      2  C   UNL     1       1.499  -5.728  29.928  0.00  0.00    +0.040 C 
ATOM      3  C   UNL     1       2.536  -5.259  28.938  0.00  0.00    +0.029 C 
ATOM      4  C   UNL     1       2.582  -6.199  27.767  0.00  0.00    -0.019 C 
ATOM      5  C   UNL     1       1.385  -6.740  27.360  0.00  0.00    +0.033 C 
ATOM      6  C   UNL     1       1.403  -7.599  26.295  0.00  0.00    +0.003 C 
ATOM      7  C   UNL     1       2.602  -7.888  25.674  0.00  0.00    +0.000 C 
ATOM      8  C   UNL     1       3.803  -7.379  26.034  0.00  0.00    -0.001 C 
ATOM      9  C   UNL     1       3.759  -6.499  27.136  0.00  0.00    -0.004 C 
ATOM     10  C   UNL     1       0.130  -6.399  28.055  0.00  0.00    +0.198 C 
ATOM     11  O   UNL     1      -0.952  -6.804  27.508  0.00  0.00    -0.289 OA
ENDROOT
BRANCH   1  12
ATOM     12  N   UNL     1      -0.851  -6.122  30.272  0.00  0.00    -0.211 N 
ATOM     13  C   UNL     1      -0.600  -7.034  31.346  0.00  0.00    +0.256 C 
ATOM     14  O   UNL     1       0.502  -7.577  31.666  0.00  0.00    -0.269 OA
ATOM     15  C   UNL     1      -1.847  -7.272  32.061  0.00  0.00    +0.058 C 
ATOM     16  C   UNL     1      -2.850  -6.548  31.477  0.00  0.00    +0.058 C 
ATOM     17  C   UNL     1      -4.149  -6.589  31.961  0.00  0.00    +0.005 C 
ATOM     18  C   UNL     1      -4.452  -7.369  33.050  0.00  0.00    +0.000 C 
ATOM     19  C   UNL     1      -3.435  -8.097  33.634  0.00  0.00    +0.000 C 
ATOM     20  C   UNL     1      -2.141  -8.068  33.168  0.00  0.00    +0.005 C 
ATOM     21  C   UNL     1      -2.245  -5.825  30.359  0.00  0.00    +0.256 C 
ATOM     22  O   UNL     1      -2.906  -5.064  29.614  0.00  0.00    -0.269 OA
ENDBRANCH   1  12
BRANCH   1  25
ATOM     23  N   UNL     1      -0.615  -2.056  29.315  0.00  0.00    -0.102 NA
ATOM     24  N   UNL     1      -0.262  -3.175  29.921  0.00  0.00    -0.109 NA
ATOM     25  C   UNL     1      -0.242  -4.190  29.041  0.00  0.00    +0.250 C 
ATOM     26  O   UNL     1      -0.590  -3.676  27.879  0.00  0.00    -0.414 OA
ATOM     27  C   UNL     1      -0.817  -2.396  28.030  0.00  0.00    +0.306 C 
ENDBRANCH   1  25
BRANCH   8  28
ATOM     28  C   UNL     1       5.060  -7.561  25.388  0.00  0.00    -0.003 C 
ATOM     29  C   UNL     1       5.939  -6.829  24.829  0.00  0.00    -0.009 C 
BRANCH  29  30
ATOM     30  C   UNL     1       6.136  -5.446  24.564  0.00  0.00    +0.094 C 
ATOM     31  C   UNL     1       6.367  -4.488  25.490  0.00  0.00    +0.105 C 
ATOM     32  N   UNL     1       6.519  -3.244  24.892  0.00  0.00    -0.168 NA
ATOM     33  C   UNL     1       6.863  -3.572  23.486  0.00  0.00    +0.156 C 
ATOM     34  N   UNL     1       6.013  -4.739  23.354  0.00  0.00    -0.280 NA
ATOM     35  H   UNL     1       6.322  -5.317  22.572  0.00  0.00    +0.125 HD
BRANCH  32  36
ATOM     36  P   UNL     1       6.408  -1.651  25.413  0.00  0.00    +0.377 P 
ATOM     37  O   UNL     1       7.686  -1.295  25.028  0.00  0.00    -0.125 OA
ATOM     38  O   UNL     1       5.018  -1.750  26.067  0.00  0.00    -0.280 OA
ATOM     39  C   UNL     1       4.070  -2.396  25.238  0.00  0.00    +0.158 C 
ATOM     40  C   UNL     1       3.626  -1.319  24.254  0.00  0.00    +0.173 C 
ATOM     41  O   UNL     1       2.838  -0.444  24.943  0.00  0.00    -0.351 OA
ATOM     42  C   UNL     1       2.423  -1.000  26.120  0.00  0.00    +0.145 C 
ATOM     43  C   UNL     1       2.861  -2.453  26.139  0.00  0.00    +0.065 C 
ATOM     44  C   UNL     1       4.865  -0.747  23.661  0.00  0.00    +0.185 C 
ATOM     45  O   UNL     1       5.878  -0.442  24.498  0.00  0.00    -0.277 OA
BRANCH  36  46
ATOM     46  O   UNL     1       6.987  -1.375  26.978  0.00  0.00    -0.309 OA
ATOM     47  H   UNL     1       6.738  -2.116  27.551  0.00  0.00    +0.222 HD
ENDBRANCH  36  46
ENDBRANCH  32  36
ENDBRANCH  29  30
ENDBRANCH   8  28
TORSDOF 6
ENDMDL
