MODEL 1
REMARK VINA RESULT:   -13.171      0.000      0.000
REMARK INTER + INTRA:         -16.439
REMARK INTER:                 -16.251
REMARK INTRA:                  -0.188
REMARK UNBOUND:                -0.188
REMARK  Name = =
REMARK  4 active torsions:
REMARK  status: ('A' for Active; 'I' for Inactive)
REMARK    1  A    between atoms: C_1  and  N_7
REMARK    2  A    between atoms: C_3  and  O_25
REMARK    3  A    between atoms: O_25  and  N_26
REMARK    4  A    between atoms: C_31  and  N_33
REMARK                            x       y       z     vdW  Elec       q    Type
REMARK                         _______ _______ _______ _____ _____    ______ ____
ROOT
ATOM      1  C   UNL     1      -2.511  -6.727  31.875  0.00  0.00    +0.135 C 
ATOM      2  C   UNL     1      -2.990  -5.412  31.911  0.00  0.00    +0.074 C 
ATOM      3  C   UNL     1      -3.986  -5.035  32.785  0.00  0.00    +0.177 C 
ATOM      4  C   UNL     1      -4.539  -5.938  33.648  0.00  0.00    +0.061 C 
ATOM      5  C   UNL     1      -4.059  -7.234  33.603  0.00  0.00    +0.104 C 
ATOM      6  N   UNL     1      -3.091  -7.578  32.745  0.00  0.00    -0.229 NA
ENDROOT
BRANCH   1   7
ATOM      7  N   UNL     1      -1.512  -7.109  31.031  0.00  0.00    -0.294 N 
ATOM      8  C   UNL     1      -1.698  -7.073  29.622  0.00  0.00    +0.079 C 
ATOM      9  C   UNL     1      -1.017  -5.933  28.973  0.00  0.00    +0.026 C 
ATOM     10  C   UNL     1       0.422  -5.942  29.433  0.00  0.00    +0.061 C 
ATOM     11  C   UNL     1       1.284  -4.825  28.916  0.00  0.00    +0.170 C 
ATOM     12  O   UNL     1       2.498  -5.429  28.481  0.00  0.00    -0.479 OA
ATOM     13  C   UNL     1       2.174  -6.748  28.099  0.00  0.00    +0.134 C 
ATOM     14  C   UNL     1       0.966  -7.063  28.630  0.00  0.00    +0.011 C 
ATOM     15  C   UNL     1       0.252  -8.216  28.519  0.00  0.00    -0.021 C 
ATOM     16  C   UNL     1       0.845  -9.197  27.766  0.00  0.00    -0.004 C 
ATOM     17  C   UNL     1       2.097  -8.976  27.173  0.00  0.00    +0.003 C 
ATOM     18  C   UNL     1       2.751  -7.746  27.347  0.00  0.00    +0.037 C 
ATOM     19  C   UNL     1      -1.083  -8.389  29.105  0.00  0.00    +0.046 C 
ATOM     20  C   UNL     1       0.670  -3.813  28.084  0.00  0.00    +0.044 C 
ATOM     21  C   UNL     1      -0.813  -3.785  27.944  0.00  0.00    +0.004 C 
ATOM     22  C   UNL     1      -1.561  -4.582  29.027  0.00  0.00    +0.002 C 
ATOM     23  C   UNL     1       0.659  -6.103  30.877  0.00  0.00    +0.029 C 
ATOM     24  C   UNL     1      -0.194  -7.158  31.491  0.00  0.00    +0.093 C 
ENDBRANCH   1   7
BRANCH   3  25
ATOM     25  O   UNL     1      -4.434  -3.685  32.769  0.00  0.00    -0.377 OA
BRANCH  25  26
ATOM     26  N   UNL     1      -5.559  -3.501  33.580  0.00  0.00    -0.202 N 
ATOM     27  C   UNL     1      -6.485  -2.541  33.100  0.00  0.00    +0.171 C 
ATOM     28  N   UNL     1      -6.181  -1.213  33.227  0.00  0.00    -0.224 NA
ATOM     29  C   UNL     1      -6.994  -0.243  32.787  0.00  0.00    +0.102 C 
ATOM     30  C   UNL     1      -8.191  -0.553  32.180  0.00  0.00    +0.036 C 
ATOM     31  C   UNL     1      -8.566  -1.889  32.017  0.00  0.00    +0.063 C 
ATOM     32  C   UNL     1      -7.682  -2.836  32.492  0.00  0.00    +0.055 C 
ATOM     33  H   UNL     1      -5.697  -3.999  34.418  0.00  0.00    +0.209 HD
BRANCH  31  34
ATOM     34  N   UNL     1      -9.803  -2.151  31.416  0.00  0.00    -0.238 N 
ATOM     35  C   UNL     1     -10.813  -2.674  32.265  0.00  0.00    +0.054 C 
ATOM     36  C   UNL     1     -12.189  -2.520  32.077  0.00  0.00    -0.008 C 
ATOM     37  C   UNL     1     -13.054  -3.059  32.972  0.00  0.00    -0.003 C 
ATOM     38  C   UNL     1     -12.549  -3.761  34.062  0.00  0.00    -0.000 C 
ATOM     39  C   UNL     1     -11.184  -3.911  34.243  0.00  0.00    +0.001 C 
ATOM     40  C   UNL     1     -10.289  -3.364  33.336  0.00  0.00    +0.015 C 
ATOM     41  C   UNL     1     -12.835  -1.797  30.916  0.00  0.00    +0.028 C 
ATOM     42  C   UNL     1     -12.386  -2.541  29.688  0.00  0.00    +0.014 C 
ATOM     43  C   UNL     1     -11.107  -2.082  29.090  0.00  0.00    +0.086 C 
ATOM     44  C   UNL     1      -9.993  -1.869  30.013  0.00  0.00    +0.233 C 
ATOM     45  O   UNL     1      -8.980  -1.327  29.498  0.00  0.00    -0.274 OA
ENDBRANCH  31  34
ENDBRANCH  25  26
ENDBRANCH   3  25
TORSDOF 4
ENDMDL
