MODEL 1
REMARK VINA RESULT:    -9.709      0.000      0.000
REMARK INTER + INTRA:         -17.865
REMARK INTER:                 -14.817
REMARK INTRA:                  -3.047
REMARK UNBOUND:                -3.047
REMARK  Name = =
REMARK  10 active torsions:
REMARK  status: ('A' for Active; 'I' for Inactive)
REMARK    1  A    between atoms: C_1  and  C_21
REMARK    2  A    between atoms: C_3  and  O_36
REMARK    3  A    between atoms: C_4  and  O_37
REMARK    4  A    between atoms: C_5  and  O_35
REMARK    5  A    between atoms: C_6  and  C_7
REMARK    6  A    between atoms: N_9  and  C_10
REMARK    7  A    between atoms: C_13  and  N_16
REMARK    8  A    between atoms: C_21  and  O_23
REMARK    9  A    between atoms: O_23  and  N_24
REMARK   10  A    between atoms: O_37  and  C_38
REMARK                            x       y       z     vdW  Elec       q    Type
REMARK                         _______ _______ _______ _____ _____    ______ ____
ROOT
ATOM      1  C   UNL     1       2.124  -4.544  29.534  0.00  0.00    +0.088 C 
ATOM      2  C   UNL     1       3.317  -4.949  28.830  0.00  0.00    +0.047 C 
ATOM      3  C   UNL     1       3.359  -4.894  27.474  0.00  0.00    +0.172 C 
ATOM      4  C   UNL     1       2.267  -4.456  26.801  0.00  0.00    +0.214 C 
ATOM      5  C   UNL     1       1.103  -4.054  27.475  0.00  0.00    +0.176 C 
ATOM      6  C   UNL     1       1.036  -4.092  28.880  0.00  0.00    +0.097 C 
ENDROOT
BRANCH   6   7
ATOM      7  C   UNL     1      -0.169  -3.596  29.489  0.00  0.00    +0.254 C 
ATOM      8  O   UNL     1      -0.023  -2.539  30.232  0.00  0.00    -0.270 OA
ATOM      9  N   UNL     1      -1.470  -4.118  29.409  0.00  0.00    -0.266 N 
ATOM     10  H   UNL     1      -1.612  -4.917  28.851  0.00  0.00    +0.157 HD
BRANCH   9  11
ATOM     11  C   UNL     1      -2.598  -3.567  30.081  0.00  0.00    +0.134 C 
ATOM     12  C   UNL     1      -3.395  -4.209  30.962  0.00  0.00    +0.036 C 
ATOM     13  C   UNL     1      -4.483  -3.548  31.561  0.00  0.00    +0.019 C 
ATOM     14  C   UNL     1      -4.745  -2.231  31.251  0.00  0.00    +0.067 C 
ATOM     15  C   UNL     1      -3.913  -1.596  30.343  0.00  0.00    +0.115 C 
ATOM     16  N   UNL     1      -2.882  -2.241  29.783  0.00  0.00    -0.228 NA
BRANCH  14  17
ATOM     17  N   UNL     1      -5.851  -1.548  31.843  0.00  0.00    -0.306 N 
ATOM     18  C   UNL     1      -7.088  -2.150  32.315  0.00  0.00    +0.091 C 
ATOM     19  C   UNL     1      -8.014  -0.974  32.549  0.00  0.00    +0.023 C 
ATOM     20  C   UNL     1      -7.088   0.167  32.895  0.00  0.00    +0.023 C 
ATOM     21  C   UNL     1      -5.870  -0.116  32.061  0.00  0.00    +0.091 C 
ENDBRANCH  14  17
ENDBRANCH   9  11
ENDBRANCH   6   7
BRANCH   1  22
ATOM     22  C   UNL     1       2.080  -5.040  30.905  0.00  0.00    +0.364 C 
ATOM     23  O   UNL     1       2.357  -4.447  31.949  0.00  0.00    -0.243 OA
BRANCH  22  24
ATOM     24  O   UNL     1       1.672  -6.377  31.105  0.00  0.00    -0.332 OA
BRANCH  24  25
ATOM     25  N   UNL     1       0.398  -6.738  31.413  0.00  0.00    -0.054 N 
ATOM     26  C   UNL     1      -0.641  -7.074  30.525  0.00  0.00    +0.287 C 
ATOM     27  O   UNL     1      -0.580  -7.116  29.260  0.00  0.00    -0.267 OA
ATOM     28  C   UNL     1      -1.847  -7.379  31.322  0.00  0.00    +0.061 C 
ATOM     29  C   UNL     1      -1.546  -7.232  32.660  0.00  0.00    +0.061 C 
ATOM     30  C   UNL     1      -2.503  -7.456  33.627  0.00  0.00    +0.005 C 
ATOM     31  C   UNL     1      -3.761  -7.825  33.230  0.00  0.00    +0.000 C 
ATOM     32  C   UNL     1      -4.097  -7.982  31.887  0.00  0.00    +0.000 C 
ATOM     33  C   UNL     1      -3.110  -7.751  30.925  0.00  0.00    +0.005 C 
ATOM     34  C   UNL     1      -0.130  -6.827  32.725  0.00  0.00    +0.287 C 
ATOM     35  O   UNL     1       0.470  -6.606  33.826  0.00  0.00    -0.267 OA
ENDBRANCH  24  25
ENDBRANCH  22  24
ENDBRANCH   1  22
BRANCH   5  36
ATOM     36  O   UNL     1       0.101  -3.644  26.692  0.00  0.00    -0.503 OA
ATOM     37  H   UNL     1      -0.131  -2.737  26.664  0.00  0.00    +0.292 HD
ENDBRANCH   5  36
BRANCH   3  38
ATOM     38  O   UNL     1       4.533  -5.292  26.792  0.00  0.00    -0.503 OA
ATOM     39  H   UNL     1       4.744  -4.914  25.962  0.00  0.00    +0.292 HD
ENDBRANCH   3  38
BRANCH   4  40
ATOM     40  O   UNL     1       2.298  -4.398  25.420  0.00  0.00    -0.430 OA
BRANCH  40  41
ATOM     41  C   UNL     1       2.745  -3.173  24.866  0.00  0.00    +0.230 C 
ATOM     42  N   UNL     1       2.318  -2.011  25.357  0.00  0.00    -0.210 NA
ATOM     43  C   UNL     1       2.741  -0.857  24.831  0.00  0.00    +0.102 C 
ATOM     44  C   UNL     1       3.627  -0.883  23.776  0.00  0.00    +0.021 C 
ATOM     45  C   UNL     1       4.082  -2.066  23.255  0.00  0.00    +0.006 C 
ATOM     46  C   UNL     1       3.625  -3.237  23.820  0.00  0.00    +0.054 C 
ATOM     47  C   UNL     1       4.038  -4.484  23.346  0.00  0.00    +0.005 C 
ATOM     48  C   UNL     1       4.930  -4.481  22.280  0.00  0.00    +0.000 C 
ATOM     49  C   UNL     1       5.390  -3.323  21.711  0.00  0.00    +0.000 C 
ATOM     50  C   UNL     1       4.972  -2.108  22.193  0.00  0.00    +0.000 C 
ENDBRANCH  40  41
ENDBRANCH   4  40
TORSDOF 10
ENDMDL
