REMARK  Name = =
REMARK  10 active torsions:
REMARK  status: ('A' for Active; 'I' for Inactive)
REMARK    1  A    between atoms: C_1  and  C_21
REMARK    2  A    between atoms: C_3  and  O_36
REMARK    3  A    between atoms: C_4  and  O_37
REMARK    4  A    between atoms: C_5  and  O_35
REMARK    5  A    between atoms: C_6  and  C_7
REMARK    6  A    between atoms: N_9  and  C_10
REMARK    7  A    between atoms: C_13  and  N_16
REMARK    8  A    between atoms: C_21  and  O_23
REMARK    9  A    between atoms: O_23  and  N_24
REMARK   10  A    between atoms: O_37  and  C_38
REMARK                            x       y       z     vdW  Elec       q    Type
REMARK                         _______ _______ _______ _____ _____    ______ ____
ROOT
ATOM      1  C   UNL     1     -12.600  -0.649  25.479  0.00  0.00    +0.088 C 
ATOM      2  C   UNL     1     -12.712  -0.408  24.061  0.00  0.00    +0.047 C 
ATOM      3  C   UNL     1     -13.294  -1.334  23.256  0.00  0.00    +0.172 C 
ATOM      4  C   UNL     1     -13.761  -2.481  23.808  0.00  0.00    +0.214 C 
ATOM      5  C   UNL     1     -13.663  -2.725  25.186  0.00  0.00    +0.176 C 
ATOM      6  C   UNL     1     -13.073  -1.778  26.044  0.00  0.00    +0.097 C 
ENDROOT
BRANCH   6   7
ATOM      7  C   UNL     1     -13.078  -2.079  27.450  0.00  0.00    +0.254 C 
ATOM      8  O   UNL     1     -14.250  -2.294  27.970  0.00  0.00    -0.270 OA
ATOM      9  N   UNL     1     -11.990  -2.144  28.336  0.00  0.00    -0.266 N 
ATOM     10  H   UNL     1     -11.089  -1.988  27.970  0.00  0.00    +0.157 HD
BRANCH   9  11
ATOM     11  C   UNL     1     -12.104  -2.420  29.728  0.00  0.00    +0.134 C 
ATOM     12  C   UNL     1     -13.224  -2.803  30.378  0.00  0.00    +0.036 C 
ATOM     13  C   UNL     1     -13.203  -3.048  31.763  0.00  0.00    +0.019 C 
ATOM     14  C   UNL     1     -12.031  -2.897  32.472  0.00  0.00    +0.067 C 
ATOM     15  C   UNL     1     -10.897  -2.502  31.782  0.00  0.00    +0.115 C 
ATOM     16  N   UNL     1     -10.935  -2.274  30.463  0.00  0.00    -0.228 NA
BRANCH  14  17
ATOM     17  N   UNL     1     -11.995  -3.132  33.881  0.00  0.00    -0.306 N 
ATOM     18  C   UNL     1     -11.927  -4.426  34.541  0.00  0.00    +0.091 C 
ATOM     19  C   UNL     1     -12.227  -4.124  35.995  0.00  0.00    +0.023 C 
ATOM     20  C   UNL     1     -11.737  -2.709  36.190  0.00  0.00    +0.023 C 
ATOM     21  C   UNL     1     -12.014  -2.065  34.860  0.00  0.00    +0.091 C 
ENDBRANCH  14  17
ENDBRANCH   9  11
ENDBRANCH   6   7
BRANCH   1  22
ATOM     22  C   UNL     1     -11.613   0.210  26.124  0.00  0.00    +0.364 C 
ATOM     23  O   UNL     1     -10.566   0.665  25.660  0.00  0.00    -0.243 OA
BRANCH  22  24
ATOM     24  O   UNL     1     -11.851   0.590  27.463  0.00  0.00    -0.332 OA
BRANCH  24  25
ATOM     25  N   UNL     1     -10.867   0.953  28.329  0.00  0.00    -0.054 N 
ATOM     26  C   UNL     1      -9.693   0.243  28.645  0.00  0.00    +0.287 C 
ATOM     27  O   UNL     1      -9.324  -0.871  28.169  0.00  0.00    -0.267 OA
ATOM     28  C   UNL     1      -8.940   1.025  29.647  0.00  0.00    +0.061 C 
ATOM     29  C   UNL     1      -9.640   2.179  29.931  0.00  0.00    +0.061 C 
ATOM     30  C   UNL     1      -9.154   3.091  30.844  0.00  0.00    +0.005 C 
ATOM     31  C   UNL     1      -7.964   2.825  31.466  0.00  0.00    +0.000 C 
ATOM     32  C   UNL     1      -7.233   1.668  31.202  0.00  0.00    +0.000 C 
ATOM     33  C   UNL     1      -7.744   0.759  30.272  0.00  0.00    +0.005 C 
ATOM     34  C   UNL     1     -10.858   2.140  29.102  0.00  0.00    +0.287 C 
ATOM     35  O   UNL     1     -11.731   3.066  29.123  0.00  0.00    -0.267 OA
ENDBRANCH  24  25
ENDBRANCH  22  24
ENDBRANCH   1  22
BRANCH   5  36
ATOM     36  O   UNL     1     -14.162  -3.894  25.598  0.00  0.00    -0.503 OA
ATOM     37  H   UNL     1     -14.543  -4.485  24.979  0.00  0.00    +0.292 HD
ENDBRANCH   5  36
BRANCH   3  38
ATOM     38  O   UNL     1     -13.400  -1.088  21.867  0.00  0.00    -0.503 OA
ATOM     39  H   UNL     1     -13.801  -1.724  21.308  0.00  0.00    +0.292 HD
ENDBRANCH   3  38
BRANCH   4  40
ATOM     40  O   UNL     1     -14.352  -3.432  22.997  0.00  0.00    -0.430 OA
BRANCH  40  41
ATOM     41  C   UNL     1     -15.769  -3.439  22.990  0.00  0.00    +0.230 C 
ATOM     42  N   UNL     1     -16.455  -2.628  23.794  0.00  0.00    -0.210 NA
ATOM     43  C   UNL     1     -17.792  -2.638  23.785  0.00  0.00    +0.102 C 
ATOM     44  C   UNL     1     -18.453  -3.495  22.933  0.00  0.00    +0.021 C 
ATOM     45  C   UNL     1     -17.769  -4.338  22.096  0.00  0.00    +0.006 C 
ATOM     46  C   UNL     1     -16.392  -4.303  22.131  0.00  0.00    +0.054 C 
ATOM     47  C   UNL     1     -15.622  -5.131  21.312  0.00  0.00    +0.005 C 
ATOM     48  C   UNL     1     -16.314  -5.987  20.464  0.00  0.00    +0.000 C 
ATOM     49  C   UNL     1     -17.683  -6.030  20.422  0.00  0.00    +0.000 C 
ATOM     50  C   UNL     1     -18.421  -5.207  21.235  0.00  0.00    +0.000 C 
ENDBRANCH  40  41
ENDBRANCH   4  40
TORSDOF 10
