REMARK  Name = =
REMARK  0 active torsions:
REMARK  status: ('A' for Active; 'I' for Inactive)
REMARK                            x       y       z     vdW  Elec       q    Type
REMARK                         _______ _______ _______ _____ _____    ______ ____
ROOT
ATOM      1  N   UNL     1      51.974 155.939  28.546  0.00  0.00    -0.295 NA
ATOM      2  C   UNL     1      51.118 154.772  28.768  0.00  0.00    +0.090 C 
ATOM      3  C   UNL     1      52.058 153.559  28.751  0.00  0.00    +0.111 C 
ATOM      4  N   UNL     1      52.599 153.496  27.409  0.00  0.00    -0.270 N 
ATOM      5  C   UNL     1      53.306 154.671  26.938  0.00  0.00    +0.111 C 
ATOM      6  C   UNL     1      52.472 155.900  27.185  0.00  0.00    +0.090 C 
ATOM      7  C   UNL     1      52.462 152.365  26.579  0.00  0.00    +0.303 C 
ATOM      8  O   UNL     1      52.907 152.268  25.428  0.00  0.00    -0.265 OA
ATOM      9  H   UNL     1      52.758 155.919  29.199  0.00  0.00    +0.123 HD
ENDROOT
TORSDOF 0
