REMARK  Name = =
REMARK  2 active torsions:
REMARK  status: ('A' for Active; 'I' for Inactive)
REMARK    1  A    between atoms: C_1  and  O_9
REMARK    2  A    between atoms: C_5  and  O_10
REMARK                            x       y       z     vdW  Elec       q    Type
REMARK                         _______ _______ _______ _____ _____    ______ ____
ROOT
ATOM      1  C   UNL     1      51.015 156.761  29.543  0.00  0.00    +0.176 C 
ATOM      2  C   UNL     1      49.792 157.097  29.928  0.00  0.00    +0.085 C 
ATOM      3  C   UNL     1      49.468 158.466  30.315  0.00  0.00    +0.232 C 
ATOM      4  O   UNL     1      48.284 158.770  30.683  0.00  0.00    -0.283 OA
ATOM      5  C   UNL     1      50.462 159.531  30.301  0.00  0.00    +0.176 C 
ATOM      6  C   UNL     1      51.684 159.198  29.917  0.00  0.00    +0.085 C 
ATOM      7  C   UNL     1      52.010 157.830  29.528  0.00  0.00    +0.232 C 
ATOM      8  O   UNL     1      53.199 157.546  29.164  0.00  0.00    -0.283 OA
ENDROOT
BRANCH   1   9
ATOM      9  O   UNL     1      51.359 155.467  29.167  0.00  0.00    -0.503 OA
ATOM     10  H   UNL     1      50.713 154.788  29.180  0.00  0.00    +0.292 HD
ENDBRANCH   1   9
BRANCH   5  11
ATOM     11  O   UNL     1      50.125 160.830  30.676  0.00  0.00    -0.503 OA
ATOM     12  H   UNL     1      49.249 161.028  30.942  0.00  0.00    +0.292 HD
ENDBRANCH   5  11
TORSDOF 2
