REMARK  Name = =
REMARK  4 active torsions:
REMARK  status: ('A' for Active; 'I' for Inactive)
REMARK    1  A    between atoms: C_1  and  O_10
REMARK    2  A    between atoms: C_5  and  O_9
REMARK    3  A    between atoms: O_10  and  N_11
REMARK    4  A    between atoms: C_12  and  C_14
REMARK                            x       y       z     vdW  Elec       q    Type
REMARK                         _______ _______ _______ _____ _____    ______ ____
ROOT
ATOM      1  C   UNL     1      51.173 156.431  29.889  0.00  0.00    +0.212 C 
ATOM      2  C   UNL     1      49.909 156.810  30.130  0.00  0.00    +0.088 C 
ATOM      3  C   UNL     1      49.528 158.218  30.128  0.00  0.00    +0.232 C 
ATOM      4  O   UNL     1      48.334 158.548  30.356  0.00  0.00    -0.283 OA
ATOM      5  C   UNL     1      50.487 159.280  29.869  0.00  0.00    +0.176 C 
ATOM      6  C   UNL     1      51.739 158.911  29.630  0.00  0.00    +0.085 C 
ATOM      7  C   UNL     1      52.135 157.491  29.628  0.00  0.00    +0.235 C 
ATOM      8  O   UNL     1      53.325 157.151  29.400  0.00  0.00    -0.283 OA
ENDROOT
BRANCH   5   9
ATOM      9  O   UNL     1      50.114 160.626  29.871  0.00  0.00    -0.503 OA
ATOM     10  H   UNL     1      49.224 160.865  30.042  0.00  0.00    +0.292 HD
ENDBRANCH   5   9
BRANCH   1  11
ATOM     11  O   UNL     1      51.458 155.083  29.908  0.00  0.00    -0.380 OA
BRANCH  11  12
ATOM     12  N   UNL     1      52.231 154.371  29.072  0.00  0.00    -0.144 N 
ATOM     13  C   UNL     1      52.131 154.462  27.665  0.00  0.00    +0.277 C 
ATOM     14  O   UNL     1      51.261 155.257  27.155  0.00  0.00    -0.267 OA
ATOM     15  H   UNL     1      52.898 153.757  29.457  0.00  0.00    +0.196 HD
BRANCH  13  16
ATOM     16  C   UNL     1      52.963 153.699  26.746  0.00  0.00    +0.061 C 
ATOM     17  C   UNL     1      53.806 152.767  27.129  0.00  0.00    +0.005 C 
ENDBRANCH  13  16
ENDBRANCH  11  12
ENDBRANCH   1  11
TORSDOF 4
