REMARK  Name = =
REMARK  1 active torsions:
REMARK  status: ('A' for Active; 'I' for Inactive)
REMARK    1  A    between atoms: N_1  and  C_10
REMARK                            x       y       z     vdW  Elec       q    Type
REMARK                         _______ _______ _______ _____ _____    ______ ____
ROOT
ATOM      1  N   UNL     1      51.786 155.969  28.279  0.00  0.00    -0.302 N 
ATOM      2  C   UNL     1      51.171 154.733  28.658  0.00  0.00    +0.112 C 
ATOM      3  C   UNL     1      51.637 153.541  27.890  0.00  0.00    +0.115 C 
ATOM      4  N   UNL     1      52.708 153.783  26.986  0.00  0.00    -0.269 N 
ATOM      5  C   UNL     1      52.715 154.995  26.216  0.00  0.00    +0.115 C 
ATOM      6  C   UNL     1      52.649 156.158  27.139  0.00  0.00    +0.112 C 
ATOM      7  C   UNL     1      53.753 152.831  26.852  0.00  0.00    +0.303 C 
ATOM      8  O   UNL     1      54.692 153.048  26.055  0.00  0.00    -0.265 OA
ENDROOT
BRANCH   1  10
ATOM      9  C   UNL     1      52.407 158.187  29.170  0.00  0.00    +0.197 C 
ATOM     10  C   UNL     1      51.523 157.117  29.101  0.00  0.00    +0.086 C 
ATOM     11  C   UNL     1      50.371 157.220  29.868  0.00  0.00    +0.024 C 
ATOM     12  C   UNL     1      50.172 158.346  30.636  0.00  0.00    +0.084 C 
ATOM     13  C   UNL     1      51.095 159.363  30.651  0.00  0.00    +0.346 C 
ATOM     14  O   UNL     1      50.877 160.379  31.368  0.00  0.00    -0.244 OA
ATOM     15  O   UNL     1      52.165 159.222  29.912  0.00  0.00    -0.417 OA
ENDBRANCH   1  10
TORSDOF 1
