REMARK  Name = =
REMARK  3 active torsions:
REMARK  status: ('A' for Active; 'I' for Inactive)
REMARK    1  A    between atoms: C_1  and  N_18
REMARK    2  A    between atoms: C_2  and  N_8
REMARK    3  A    between atoms: N_18  and  N_19
REMARK                            x       y       z     vdW  Elec       q    Type
REMARK                         _______ _______ _______ _____ _____    ______ ____
ROOT
ATOM      1  C   UNL     1      52.297 155.235  27.988  0.00  0.00    +0.238 C 
ATOM      2  C   UNL     1      51.357 155.323  28.978  0.00  0.00    +0.100 C 
ATOM      3  C   UNL     1      50.869 154.095  29.466  0.00  0.00    +0.026 C 
ATOM      4  C   UNL     1      51.322 152.906  28.967  0.00  0.00    +0.084 C 
ATOM      5  C   UNL     1      52.263 152.904  27.981  0.00  0.00    +0.347 C 
ATOM      6  O   UNL     1      52.689 151.825  27.513  0.00  0.00    -0.244 OA
ATOM      7  O   UNL     1      52.700 154.028  27.543  0.00  0.00    -0.404 OA
ENDROOT
BRANCH   2   8
ATOM      8  N   UNL     1      50.892 156.530  29.560  0.00  0.00    -0.301 N 
ATOM      9  C   UNL     1      49.453 156.760  29.610  0.00  0.00    +0.112 C 
ATOM     10  C   UNL     1      49.058 157.954  30.451  0.00  0.00    +0.115 C 
ATOM     11  N   UNL     1      49.895 159.094  30.267  0.00  0.00    -0.269 N 
ATOM     12  C   UNL     1      51.216 158.898  29.619  0.00  0.00    +0.115 C 
ATOM     13  C   UNL     1      51.694 157.563  30.171  0.00  0.00    +0.112 C 
ATOM     14  C   UNL     1      49.468 160.370  30.695  0.00  0.00    +0.303 C 
ATOM     15  O   UNL     1      48.303 160.451  31.230  0.00  0.00    -0.265 OA
ENDBRANCH   2   8
BRANCH   1  18
ATOM     16  C   UNL     1      53.719 157.269  28.051  0.00  0.00    +0.327 C 
ATOM     17  O   UNL     1      54.321 158.244  27.588  0.00  0.00    -0.263 OA
ATOM     18  N   UNL     1      52.905 156.368  27.363  0.00  0.00    -0.145 N 
BRANCH  18  19
ATOM     19  N   UNL     1      52.578 156.576  26.031  0.00  0.00    -0.217 N 
ATOM     20  C   UNL     1      53.439 156.490  24.915  0.00  0.00    +0.317 C 
ATOM     21  O   UNL     1      54.648 156.218  25.035  0.00  0.00    -0.264 OA
ATOM     22  H   UNL     1      51.640 156.810  25.843  0.00  0.00    +0.174 HD
ENDBRANCH  18  19
ENDBRANCH   1  18
TORSDOF 3
