REMARK  Name = =
REMARK  5 active torsions:
REMARK  status: ('A' for Active; 'I' for Inactive)
REMARK    1  A    between atoms: N_1  and  N_4
REMARK    2  A    between atoms: N_1  and  O_17
REMARK    3  A    between atoms: C_2  and  C_15
REMARK    4  A    between atoms: O_17  and  C_18
REMARK    5  A    between atoms: C_22  and  O_26
REMARK                            x       y       z     vdW  Elec       q    Type
REMARK                         _______ _______ _______ _____ _____    ______ ____
ROOT
ATOM      1  N   UNL     1      50.281 160.547  32.586  0.00  0.00    -0.034 N 
ATOM      2  C   UNL     1      49.584 161.463  33.421  0.00  0.00    +0.300 C 
ATOM      3  O   UNL     1      50.216 162.186  34.225  0.00  0.00    -0.265 OA
ENDROOT
BRANCH   1   4
ATOM      4  N   UNL     1      49.560 159.730  31.690  0.00  0.00    -0.154 N 
ATOM      5  C   UNL     1      49.075 158.511  31.971  0.00  0.00    +0.189 C 
ATOM      6  N   UNL     1      48.442 158.030  30.867  0.00  0.00    -0.207 NA
ATOM      7  C   UNL     1      48.526 158.947  29.878  0.00  0.00    +0.166 A 
ATOM      8  C   UNL     1      49.233 160.006  30.420  0.00  0.00    +0.165 A 
ATOM      9  C   UNL     1      49.467 161.099  29.615  0.00  0.00    +0.279 A 
ATOM     10  O   UNL     1      50.113 162.073  30.102  0.00  0.00    -0.266 OA
ATOM     11  N   UNL     1      49.003 161.090  28.347  0.00  0.00    -0.273 N 
ATOM     12  C   UNL     1      48.316 160.030  27.857  0.00  0.00    +0.328 A 
ATOM     13  O   UNL     1      47.895 160.053  26.663  0.00  0.00    -0.247 OA
ATOM     14  N   UNL     1      48.068 158.943  28.620  0.00  0.00    -0.291 N 
ATOM     15  H   UNL     1      49.167 161.869  27.767  0.00  0.00    +0.173 HD
ATOM     16  H   UNL     1      47.567 158.174  28.263  0.00  0.00    +0.172 HD
ENDBRANCH   1   4
BRANCH   2  17
ATOM     17  C   UNL     1      48.137 161.585  33.369  0.00  0.00    +0.063 C 
ATOM     18  C   UNL     1      47.461 161.961  34.428  0.00  0.00    +0.005 C 
ENDBRANCH   2  17
BRANCH   1  19
ATOM     19  O   UNL     1      51.635 160.487  32.673  0.00  0.00    -0.363 OA
BRANCH  19  20
ATOM     20  C   UNL     1      52.550 161.111  31.866  0.00  0.00    +0.197 C 
ATOM     21  C   UNL     1      53.493 160.438  31.241  0.00  0.00    +0.143 C 
ATOM     22  C   UNL     1      54.472 161.105  30.379  0.00  0.00    +0.214 C 
ATOM     23  O   UNL     1      55.384 160.493  29.769  0.00  0.00    -0.288 OA
ATOM     24  C   UNL     1      54.354 162.551  30.245  0.00  0.00    +0.172 C 
ATOM     25  C   UNL     1      53.419 163.248  30.859  0.00  0.00    +0.085 C 
ATOM     26  C   UNL     1      52.464 162.552  31.706  0.00  0.00    +0.232 C 
ATOM     27  O   UNL     1      51.549 163.224  32.310  0.00  0.00    -0.283 OA
BRANCH  24  28
ATOM     28  O   UNL     1      55.247 163.278  29.439  0.00  0.00    -0.503 OA
ATOM     29  H   UNL     1      55.932 162.833  28.979  0.00  0.00    +0.292 HD
ENDBRANCH  24  28
ENDBRANCH  19  20
ENDBRANCH   1  19
TORSDOF 5
