REMARK  Name = =
REMARK  4 active torsions:
REMARK  status: ('A' for Active; 'I' for Inactive)
REMARK    1  A    between atoms: C_1  and  C_5
REMARK    2  A    between atoms: N_3  and  C_22
REMARK    3  A    between atoms: N_3  and  N_37
REMARK    4  A    between atoms: C_23  and  N_29
REMARK                            x       y       z     vdW  Elec       q    Type
REMARK                         _______ _______ _______ _____ _____    ______ ____
ROOT
ATOM      1  C   UNL     1      51.553 154.862  27.912  0.00  0.00    +0.271 C 
ATOM      2  O   UNL     1      50.683 154.280  28.596  0.00  0.00    -0.268 OA
ATOM      3  N   UNL     1      51.942 154.248  26.674  0.00  0.00    -0.149 N 
ENDROOT
BRANCH   1   5
ATOM      4  C   UNL     1      53.485 156.381  28.116  0.00  0.00    +0.005 C 
ATOM      5  C   UNL     1      52.163 156.120  28.341  0.00  0.00    +0.055 C 
ATOM      6  C   UNL     1      51.332 157.041  28.985  0.00  0.00    +0.000 C 
ATOM      7  C   UNL     1      51.861 158.242  29.405  0.00  0.00    -0.022 C 
ATOM      8  C   UNL     1      53.190 158.519  29.186  0.00  0.00    -0.004 C 
ATOM      9  C   UNL     1      54.023 157.597  28.540  0.00  0.00    -0.000 C 
ATOM     10  C   UNL     1      51.007 159.205  30.078  0.00  0.00    +0.026 C 
ATOM     11  C   UNL     1      50.323 160.166  29.152  0.00  0.00    +0.005 C 
ATOM     12  C   UNL     1      49.460 161.135  29.903  0.00  0.00    +0.008 C 
ATOM     13  C   UNL     1      49.644 160.902  31.364  0.00  0.00    +0.058 C 
ATOM     14  C   UNL     1      49.153 159.472  31.636  0.00  0.00    +0.012 C 
ATOM     15  C   UNL     1      49.128 159.461  33.126  0.00  0.00    +0.009 C 
ATOM     16  C   UNL     1      48.612 160.844  33.487  0.00  0.00    +0.065 C 
ATOM     17  C   UNL     1      48.699 161.656  32.225  0.00  0.00    +0.150 C 
ATOM     18  O   UNL     1      48.120 162.682  31.993  0.00  0.00    -0.296 OA
ATOM     19  C   UNL     1      50.055 158.477  30.996  0.00  0.00    +0.026 C 
ATOM     20  C   UNL     1      49.243 157.432  30.312  0.00  0.00    -0.026 C 
ATOM     21  C   UNL     1      49.904 156.699  29.201  0.00  0.00    -0.005 C 
ENDBRANCH   1   5
BRANCH   3  22
ATOM     22  C   UNL     1      52.913 154.911  25.855  0.00  0.00    +0.238 C 
ATOM     23  C   UNL     1      53.982 154.310  25.258  0.00  0.00    +0.100 C 
ATOM     24  C   UNL     1      54.860 155.099  24.471  0.00  0.00    +0.026 C 
ATOM     25  C   UNL     1      54.615 156.433  24.330  0.00  0.00    +0.084 C 
ATOM     26  C   UNL     1      53.515 156.988  24.959  0.00  0.00    +0.347 C 
ATOM     27  O   UNL     1      53.275 158.227  24.838  0.00  0.00    -0.244 OA
ATOM     28  O   UNL     1      52.766 156.223  25.652  0.00  0.00    -0.404 OA
BRANCH  23  29
ATOM     29  N   UNL     1      54.299 152.937  25.387  0.00  0.00    -0.301 N 
ATOM     30  C   UNL     1      54.956 152.229  24.322  0.00  0.00    +0.112 C 
ATOM     31  C   UNL     1      53.925 151.155  23.883  0.00  0.00    +0.115 C 
ATOM     32  N   UNL     1      53.765 150.333  25.059  0.00  0.00    -0.269 N 
ATOM     33  C   UNL     1      53.273 150.899  26.264  0.00  0.00    +0.115 C 
ATOM     34  C   UNL     1      53.914 152.239  26.597  0.00  0.00    +0.112 C 
ATOM     35  C   UNL     1      54.107 148.967  24.986  0.00  0.00    +0.303 C 
ATOM     36  O   UNL     1      54.547 148.437  23.933  0.00  0.00    -0.265 OA
ENDBRANCH  23  29
ENDBRANCH   3  22
BRANCH   3  37
ATOM     37  N   UNL     1      51.346 153.065  26.335  0.00  0.00    -0.217 N 
ATOM     38  C   UNL     1      51.253 151.997  27.264  0.00  0.00    +0.317 C 
ATOM     39  O   UNL     1      51.689 152.014  28.438  0.00  0.00    -0.264 OA
ATOM     40  H   UNL     1      50.975 152.952  25.430  0.00  0.00    +0.174 HD
ENDBRANCH   3  37
TORSDOF 4
