MODEL 1
REMARK VINA RESULT:    -9.929      0.000      0.000
REMARK INTER + INTRA:         -14.873
REMARK INTER:                 -14.283
REMARK INTRA:                  -0.590
REMARK UNBOUND:                -0.590
REMARK  Name = =
REMARK  8 active torsions:
REMARK  status: ('A' for Active; 'I' for Inactive)
REMARK    1  A    between atoms: C_1  and  N_17
REMARK    2  A    between atoms: C_4  and  C_7
REMARK    3  A    between atoms: N_9  and  O_10
REMARK    4  A    between atoms: O_10  and  C_11
REMARK    5  A    between atoms: N_17  and  N_23
REMARK    6  A    between atoms: N_18  and  O_24
REMARK    7  A    between atoms: O_24  and  N_25
REMARK    8  A    between atoms: N_25  and  O_26
REMARK                            x       y       z     vdW  Elec       q    Type
REMARK                         _______ _______ _______ _____ _____    ______ ____
ROOT
ATOM      1  C   UNL     1      50.956 158.566  29.741  0.00  0.00    +0.063 C 
ATOM      2  C   UNL     1      50.040 157.587  29.959  0.00  0.00    +0.016 C 
ATOM      3  C   UNL     1      50.244 156.264  29.641  0.00  0.00    +0.006 C 
ATOM      4  C   UNL     1      51.437 155.873  29.066  0.00  0.00    +0.056 C 
ATOM      5  C   UNL     1      52.391 156.857  28.833  0.00  0.00    +0.006 C 
ATOM      6  C   UNL     1      52.165 158.167  29.158  0.00  0.00    +0.016 C 
ENDROOT
BRANCH   4   7
ATOM      7  C   UNL     1      51.701 154.485  28.700  0.00  0.00    +0.277 C 
ATOM      8  O   UNL     1      52.032 153.693  29.614  0.00  0.00    -0.267 OA
ATOM      9  N   UNL     1      51.600 154.019  27.381  0.00  0.00    -0.144 N 
ATOM     10  H   UNL     1      51.342 154.624  26.649  0.00  0.00    +0.196 HD
BRANCH   9  11
ATOM     11  O   UNL     1      51.875 152.678  27.135  0.00  0.00    -0.382 OA
BRANCH  11  12
ATOM     12  C   UNL     1      52.714 152.472  26.022  0.00  0.00    +0.189 C 
ATOM     13  C   UNL     1      53.067 153.530  25.226  0.00  0.00    +0.139 C 
ATOM     14  N   UNL     1      53.873 153.281  24.174  0.00  0.00    -0.239 NA
ATOM     15  C   UNL     1      54.303 152.027  23.932  0.00  0.00    +0.099 C 
ATOM     16  C   UNL     1      53.955 150.958  24.725  0.00  0.00    +0.024 C 
ATOM     17  C   UNL     1      53.134 151.178  25.807  0.00  0.00    +0.043 C 
ENDBRANCH  11  12
ENDBRANCH   9  11
ENDBRANCH   4   7
BRANCH   1  18
ATOM     18  N   UNL     1      50.756 159.929  30.065  0.00  0.00    -0.247 N 
ATOM     19  H   UNL     1      51.146 160.620  29.482  0.00  0.00    +0.172 HD
BRANCH  18  25
ATOM     20  N   UNL     1      50.573 161.308  32.018  0.00  0.00    -0.054 NA
ATOM     21  C   UNL     1      49.899 161.282  33.317  0.00  0.00    +0.131 C 
ATOM     22  C   UNL     1      48.402 161.491  33.062  0.00  0.00    +0.049 C 
ATOM     23  C   UNL     1      47.955 160.271  32.353  0.00  0.00    -0.005 C 
ATOM     24  C   UNL     1      48.754 159.732  31.459  0.00  0.00    +0.096 C 
ATOM     25  N   UNL     1      50.018 160.327  31.193  0.00  0.00    -0.155 N 
BRANCH  20  26
ATOM     26  O   UNL     1      51.881 161.083  32.132  0.00  0.00    -0.164 OA
BRANCH  26  27
ATOM     27  N   UNL     1      52.647 161.940  31.440  0.00  0.00    -0.059 NA
ATOM     28  H   UNL     1      53.254 162.457  32.076  0.00  0.00    +0.189 HD
BRANCH  27  29
ATOM     29  O   UNL     1      53.398 161.211  30.573  0.00  0.00    -0.289 OA
ATOM     30  H   UNL     1      54.188 160.880  31.028  0.00  0.00    +0.239 HD
ENDBRANCH  27  29
ENDBRANCH  26  27
ENDBRANCH  20  26
ENDBRANCH  18  25
ENDBRANCH   1  18
TORSDOF 8
ENDMDL
