REMARK  Name = =
REMARK  8 active torsions:
REMARK  status: ('A' for Active; 'I' for Inactive)
REMARK    1  A    between atoms: C_1  and  N_17
REMARK    2  A    between atoms: C_4  and  C_7
REMARK    3  A    between atoms: N_9  and  O_10
REMARK    4  A    between atoms: O_10  and  C_11
REMARK    5  A    between atoms: N_17  and  N_23
REMARK    6  A    between atoms: N_18  and  O_24
REMARK    7  A    between atoms: O_24  and  N_25
REMARK    8  A    between atoms: N_25  and  O_26
REMARK                            x       y       z     vdW  Elec       q    Type
REMARK                         _______ _______ _______ _____ _____    ______ ____
ROOT
ATOM      1  C   UNL     1      52.377 154.394  28.117  0.00  0.00    +0.063 C 
ATOM      2  C   UNL     1      51.279 154.736  28.840  0.00  0.00    +0.016 C 
ATOM      3  C   UNL     1      50.922 156.034  29.120  0.00  0.00    +0.006 C 
ATOM      4  C   UNL     1      51.701 157.075  28.656  0.00  0.00    +0.056 C 
ATOM      5  C   UNL     1      52.831 156.751  27.914  0.00  0.00    +0.006 C 
ATOM      6  C   UNL     1      53.166 155.451  27.647  0.00  0.00    +0.016 C 
ENDROOT
BRANCH   4   7
ATOM      7  C   UNL     1      51.373 158.470  28.933  0.00  0.00    +0.277 C 
ATOM      8  O   UNL     1      52.310 159.304  28.922  0.00  0.00    -0.267 OA
ATOM      9  N   UNL     1      50.066 158.899  29.209  0.00  0.00    -0.144 N 
ATOM     10  H   UNL     1      49.317 158.261  29.223  0.00  0.00    +0.196 HD
BRANCH   9  11
ATOM     11  O   UNL     1      49.858 160.251  29.463  0.00  0.00    -0.382 OA
BRANCH  11  12
ATOM     12  C   UNL     1      49.370 160.509  30.759  0.00  0.00    +0.189 C 
ATOM     13  C   UNL     1      48.080 160.180  31.084  0.00  0.00    +0.139 C 
ATOM     14  N   UNL     1      47.662 160.447  32.337  0.00  0.00    -0.239 NA
ATOM     15  C   UNL     1      48.500 161.020  33.224  0.00  0.00    +0.099 C 
ATOM     16  C   UNL     1      49.797 161.355  32.908  0.00  0.00    +0.024 C 
ATOM     17  C   UNL     1      50.255 161.095  31.637  0.00  0.00    +0.043 C 
ENDBRANCH  11  12
ENDBRANCH   9  11
ENDBRANCH   4   7
BRANCH   1  18
ATOM     18  N   UNL     1      52.753 153.061  27.823  0.00  0.00    -0.247 N 
ATOM     19  H   UNL     1      52.595 152.361  28.497  0.00  0.00    +0.172 HD
BRANCH  18  25
ATOM     20  N   UNL     1      52.694 151.746  25.819  0.00  0.00    -0.054 NA
ATOM     21  C   UNL     1      53.635 151.209  24.835  0.00  0.00    +0.131 C 
ATOM     22  C   UNL     1      54.164 152.389  24.013  0.00  0.00    +0.049 C 
ATOM     23  C   UNL     1      54.982 153.184  24.957  0.00  0.00    -0.005 C 
ATOM     24  C   UNL     1      54.562 153.319  26.196  0.00  0.00    +0.096 C 
ATOM     25  N   UNL     1      53.344 152.706  26.599  0.00  0.00    -0.155 N 
BRANCH  20  26
ATOM     26  O   UNL     1      52.216 150.796  26.620  0.00  0.00    -0.164 OA
BRANCH  26  27
ATOM     27  N   UNL     1      52.148 149.582  26.050  0.00  0.00    -0.059 NA
ATOM     28  H   UNL     1      53.074 149.155  26.029  0.00  0.00    +0.189 HD
BRANCH  27  29
ATOM     29  O   UNL     1      51.305 148.824  26.800  0.00  0.00    -0.289 OA
ATOM     30  H   UNL     1      50.427 149.236  26.816  0.00  0.00    +0.239 HD
ENDBRANCH  27  29
ENDBRANCH  26  27
ENDBRANCH  20  26
ENDBRANCH  18  25
ENDBRANCH   1  18
TORSDOF 8
