REMARK  Name = =
REMARK  2 active torsions:
REMARK  status: ('A' for Active; 'I' for Inactive)
REMARK    1  A    between atoms: C_9  and  O_13
REMARK    2  A    between atoms: C_11  and  O_12
REMARK                            x       y       z     vdW  Elec       q    Type
REMARK                         _______ _______ _______ _____ _____    ______ ____
ROOT
ATOM      1  O   UNL     1      -3.951  -3.940  31.057  0.00  0.00    -0.475 OA
ATOM      2  C   UNL     1      -5.240  -3.622  31.510  0.00  0.00    +0.214 C 
ATOM      3  C   UNL     1      -5.586  -2.164  31.418  0.00  0.00    +0.117 C 
ATOM      4  C   UNL     1      -4.426  -1.337  31.017  0.00  0.00    +0.183 C 
ATOM      5  O   UNL     1      -4.225  -0.198  31.474  0.00  0.00    -0.291 OA
ATOM      6  C   UNL     1      -3.479  -1.864  30.056  0.00  0.00    +0.103 C 
ATOM      7  C   UNL     1      -3.249  -3.244  30.103  0.00  0.00    +0.147 C 
ATOM      8  C   UNL     1      -2.365  -3.849  29.235  0.00  0.00    +0.074 C 
ATOM      9  C   UNL     1      -1.705  -3.063  28.309  0.00  0.00    +0.140 C 
ATOM     10  C   UNL     1      -1.937  -1.719  28.273  0.00  0.00    +0.073 C 
ATOM     11  C   UNL     1      -2.827  -1.084  29.141  0.00  0.00    +0.142 C 
ENDROOT
BRANCH  11  12
ATOM     12  O   UNL     1      -3.037   0.268  29.074  0.00  0.00    -0.505 OA
ATOM     13  H   UNL     1      -2.579   0.782  28.439  0.00  0.00    +0.292 HD
ENDBRANCH  11  12
BRANCH   9  14
ATOM     14  O   UNL     1      -0.795  -3.640  27.405  0.00  0.00    -0.505 OA
ATOM     15  H   UNL     1      -0.634  -4.563  27.427  0.00  0.00    +0.292 HD
ENDBRANCH   9  14
TORSDOF 2
