REMARK  Name = =
REMARK  7 active torsions:
REMARK  status: ('A' for Active; 'I' for Inactive)
REMARK    1  A    between atoms: C_9  and  O_20
REMARK    2  A    between atoms: C_10  and  C_12
REMARK    3  A    between atoms: C_11  and  O_21
REMARK    4  A    between atoms: C_13  and  O_19
REMARK    5  A    between atoms: C_16  and  O_18
REMARK    6  A    between atoms: O_21  and  C_22
REMARK    7  A    between atoms: C_23  and  C_24
REMARK                            x       y       z     vdW  Elec       q    Type
REMARK                         _______ _______ _______ _____ _____    ______ ____
ROOT
ATOM      1  O   UNL     1      -3.243  -5.607  30.742  0.00  0.00    -0.475 OA
ATOM      2  C   UNL     1      -3.244  -4.172  30.691  0.00  0.00    +0.214 C 
ATOM      3  C   UNL     1      -2.942  -3.772  29.257  0.00  0.00    +0.117 C 
ATOM      4  C   UNL     1      -1.722  -4.455  28.765  0.00  0.00    +0.183 C 
ATOM      5  O   UNL     1      -0.965  -3.923  27.914  0.00  0.00    -0.291 OA
ATOM      6  C   UNL     1      -1.379  -5.778  29.271  0.00  0.00    +0.103 C 
ATOM      7  C   UNL     1      -2.159  -6.333  30.264  0.00  0.00    +0.147 C 
ATOM      8  C   UNL     1      -1.827  -7.584  30.735  0.00  0.00    +0.074 C 
ATOM      9  C   UNL     1      -0.731  -8.307  30.245  0.00  0.00    +0.140 C 
ATOM     10  C   UNL     1       0.040  -7.736  29.250  0.00  0.00    +0.072 C 
ATOM     11  C   UNL     1      -0.291  -6.486  28.777  0.00  0.00    +0.154 C 
ENDROOT
BRANCH  10  12
ATOM     12  C   UNL     1       1.197  -8.415  28.682  0.00  0.00    +0.043 C 
ATOM     13  C   UNL     1       2.475  -7.902  28.787  0.00  0.00    +0.134 C 
ATOM     14  C   UNL     1       3.586  -8.515  28.263  0.00  0.00    +0.040 C 
ATOM     15  C   UNL     1       3.421  -9.710  27.595  0.00  0.00    +0.040 C 
ATOM     16  C   UNL     1       2.171 -10.262  27.464  0.00  0.00    +0.134 C 
ATOM     17  C   UNL     1       1.072  -9.616  28.004  0.00  0.00    +0.040 C 
BRANCH  16  18
ATOM     18  O   UNL     1       2.036 -11.458  26.790  0.00  0.00    -0.506 OA
ATOM     19  H   UNL     1       2.791 -11.881  26.431  0.00  0.00    +0.292 HD
ENDBRANCH  16  18
BRANCH  13  20
ATOM     20  O   UNL     1       2.653  -6.699  29.457  0.00  0.00    -0.506 OA
ATOM     21  H   UNL     1       1.915  -6.255  29.826  0.00  0.00    +0.292 HD
ENDBRANCH  13  20
ENDBRANCH  10  12
BRANCH   9  22
ATOM     22  O   UNL     1      -0.402  -9.547  30.712  0.00  0.00    -0.505 OA
ATOM     23  H   UNL     1      -0.916  -9.945  31.386  0.00  0.00    +0.292 HD
ENDBRANCH   9  22
BRANCH  11  24
ATOM     24  O   UNL     1       0.479  -5.925  27.790  0.00  0.00    -0.450 OA
BRANCH  24  25
ATOM     25  C   UNL     1       0.725  -6.727  26.652  0.00  0.00    +0.180 C 
ATOM     26  C   UNL     1       0.037  -7.798  26.399  0.00  0.00    +0.041 C 
BRANCH  26  27
ATOM     27  C   UNL     1       0.284  -8.623  25.236  0.00  0.00    +0.003 C 
ATOM     28  C   UNL     1      -0.552  -9.703  24.922  0.00  0.00    +0.000 C 
ATOM     29  C   UNL     1      -0.338 -10.499  23.826  0.00  0.00    +0.000 C 
ATOM     30  C   UNL     1       0.736 -10.210  23.024  0.00  0.00    +0.000 C 
ATOM     31  C   UNL     1       1.602  -9.167  23.267  0.00  0.00    +0.000 C 
ATOM     32  C   UNL     1       1.338  -8.384  24.402  0.00  0.00    +0.000 C 
ENDBRANCH  26  27
ENDBRANCH  24  25
ENDBRANCH  11  24
TORSDOF 7
