REMARK  Name = =
REMARK  9 active torsions:
REMARK  status: ('A' for Active; 'I' for Inactive)
REMARK    1  A    between atoms: C_9  and  O_20
REMARK    2  A    between atoms: C_10  and  C_12
REMARK    3  A    between atoms: C_11  and  O_21
REMARK    4  A    between atoms: C_13  and  O_19
REMARK    5  A    between atoms: C_16  and  O_18
REMARK    6  A    between atoms: O_21  and  C_22
REMARK    7  A    between atoms: C_23  and  C_24
REMARK    8  A    between atoms: C_27  and  C_30
REMARK    9  A    between atoms: N_31  and  O_32
REMARK                            x       y       z     vdW  Elec       q    Type
REMARK                         _______ _______ _______ _____ _____    ______ ____
ROOT
ATOM      1  O   UNL     1      -1.788  -3.530  30.360  0.00  0.00    -0.475 OA
ATOM      2  C   UNL     1      -0.928  -2.544  29.823  0.00  0.00    +0.214 C 
ATOM      3  C   UNL     1      -1.651  -1.571  28.940  0.00  0.00    +0.117 C 
ATOM      4  C   UNL     1      -2.845  -1.077  29.643  0.00  0.00    +0.183 C 
ATOM      5  O   UNL     1      -3.274   0.106  29.543  0.00  0.00    -0.291 OA
ATOM      6  C   UNL     1      -3.593  -1.991  30.511  0.00  0.00    +0.103 C 
ATOM      7  C   UNL     1      -3.051  -3.220  30.865  0.00  0.00    +0.147 C 
ATOM      8  C   UNL     1      -3.731  -4.097  31.678  0.00  0.00    +0.074 C 
ATOM      9  C   UNL     1      -4.967  -3.724  32.135  0.00  0.00    +0.140 C 
ATOM     10  C   UNL     1      -5.563  -2.520  31.823  0.00  0.00    +0.072 C 
ATOM     11  C   UNL     1      -4.859  -1.654  31.003  0.00  0.00    +0.154 C 
ENDROOT
BRANCH  10  12
ATOM     12  C   UNL     1      -6.880  -2.138  32.317  0.00  0.00    +0.043 C 
ATOM     13  C   UNL     1      -7.035  -1.089  33.199  0.00  0.00    +0.134 C 
ATOM     14  C   UNL     1      -8.295  -0.753  33.649  0.00  0.00    +0.040 C 
ATOM     15  C   UNL     1      -9.396  -1.465  33.217  0.00  0.00    +0.040 C 
ATOM     16  C   UNL     1      -9.227  -2.528  32.323  0.00  0.00    +0.134 C 
ATOM     17  C   UNL     1      -7.965  -2.861  31.876  0.00  0.00    +0.040 C 
BRANCH  16  18
ATOM     18  O   UNL     1     -10.326  -3.252  31.881  0.00  0.00    -0.506 OA
ATOM     19  H   UNL     1     -11.185  -3.030  32.182  0.00  0.00    +0.292 HD
ENDBRANCH  16  18
BRANCH  13  20
ATOM     20  O   UNL     1      -5.918  -0.376  33.629  0.00  0.00    -0.506 OA
ATOM     21  H   UNL     1      -5.065  -0.610  33.319  0.00  0.00    +0.292 HD
ENDBRANCH  13  20
ENDBRANCH  10  12
BRANCH   9  22
ATOM     22  O   UNL     1      -5.683  -4.588  32.960  0.00  0.00    -0.505 OA
ATOM     23  H   UNL     1      -5.318  -5.417  33.199  0.00  0.00    +0.292 HD
ENDBRANCH   9  22
BRANCH  11  24
ATOM     24  O   UNL     1      -5.367  -0.420  30.628  0.00  0.00    -0.450 OA
BRANCH  24  25
ATOM     25  C   UNL     1      -6.723  -0.247  30.290  0.00  0.00    +0.180 C 
ATOM     26  C   UNL     1      -7.317   0.893  30.494  0.00  0.00    +0.041 C 
BRANCH  26  27
ATOM     27  C   UNL     1      -8.715   1.131  30.164  0.00  0.00    +0.003 C 
ATOM     28  C   UNL     1      -9.577   0.149  29.740  0.00  0.00    +0.000 C 
ATOM     29  C   UNL     1     -10.911   0.444  29.440  0.00  0.00    +0.002 C 
ATOM     30  C   UNL     1     -11.420   1.720  29.554  0.00  0.00    +0.022 C 
ATOM     31  C   UNL     1     -10.560   2.709  29.979  0.00  0.00    +0.002 C 
ATOM     32  C   UNL     1      -9.247   2.411  30.274  0.00  0.00    +0.000 C 
BRANCH  30  33
ATOM     33  C   UNL     1     -12.821   2.020  29.236  0.00  0.00    +0.140 C 
ATOM     34  N   UNL     1     -13.309   3.196  29.357  0.00  0.00    -0.085 NA
BRANCH  34  35
ATOM     35  O   UNL     1     -14.608   3.492  29.067  0.00  0.00    -0.409 OA
ATOM     36  H   UNL     1     -14.923   4.368  29.170  0.00  0.00    +0.328 HD
ENDBRANCH  34  35
ENDBRANCH  30  33
ENDBRANCH  26  27
ENDBRANCH  24  25
ENDBRANCH  11  24
TORSDOF 9
