REMARK  Name = =
REMARK  0 active torsions:
REMARK  status: ('A' for Active; 'I' for Inactive)
REMARK                            x       y       z     vdW  Elec       q    Type
REMARK                         _______ _______ _______ _____ _____    ______ ____
ROOT
ATOM      1  C   UNL     1      -3.043  -4.108  30.916  0.00  0.00    +0.092 C 
ATOM      2  C   UNL     1      -2.573  -5.404  30.306  0.00  0.00    +0.019 C 
ATOM      3  C   UNL     1      -1.304  -5.270  29.524  0.00  0.00    +0.001 C 
ATOM      4  C   UNL     1      -1.262  -4.069  28.634  0.00  0.00    +0.000 C 
ATOM      5  C   UNL     1      -2.541  -3.289  28.604  0.00  0.00    +0.001 C 
ATOM      6  C   UNL     1      -3.112  -2.981  29.941  0.00  0.00    +0.019 C 
ATOM      7  N   UNL     1      -4.389  -4.371  31.448  0.00  0.00    -0.133 NA
ENDROOT
TORSDOF 0
