REMARK  Name = =
REMARK  1 active torsions:
REMARK  status: ('A' for Active; 'I' for Inactive)
REMARK    1  A    between atoms: C_2  and  C_8
REMARK                            x       y       z     vdW  Elec       q    Type
REMARK                         _______ _______ _______ _____ _____    ______ ____
ROOT
ATOM      1  C   UNL     1      -3.641  -4.422  30.540  0.00  0.00    +0.094 C 
ATOM      2  C   UNL     1      -2.504  -5.345  30.307  0.00  0.00    +0.045 C 
ATOM      3  C   UNL     1      -1.228  -4.552  30.282  0.00  0.00    +0.004 C 
ATOM      4  C   UNL     1      -1.238  -3.487  29.218  0.00  0.00    +0.000 C 
ATOM      5  C   UNL     1      -2.379  -2.551  29.450  0.00  0.00    +0.001 C 
ATOM      6  C   UNL     1      -3.662  -3.332  29.519  0.00  0.00    +0.019 C 
ATOM      7  N   UNL     1      -3.466  -3.802  31.844  0.00  0.00    -0.133 NA
ENDROOT
BRANCH   2   8
ATOM      8  C   UNL     1      -2.368  -6.448  31.306  0.00  0.00    +0.117 C 
ATOM      9  C   UNL     1      -3.468  -7.439  31.319  0.00  0.00    +0.030 C 
ATOM     10  C   UNL     1      -2.929  -8.875  31.367  0.00  0.00    +0.005 C 
ATOM     11  C   UNL     1      -1.958  -8.912  32.530  0.00  0.00    +0.032 C 
ATOM     12  C   UNL     1      -0.929  -7.838  32.311  0.00  0.00    +0.142 C 
ATOM     13  O   UNL     1      -1.159  -7.120  31.123  0.00  0.00    -0.356 OA
ENDBRANCH   2   8
TORSDOF 1
