REMARK  Name = =
REMARK  2 active torsions:
REMARK  status: ('A' for Active; 'I' for Inactive)
REMARK    1  A    between atoms: C_1  and  C_7
REMARK    2  A    between atoms: C_1  and  C_16
REMARK                            x       y       z     vdW  Elec       q    Type
REMARK                         _______ _______ _______ _____ _____    ______ ____
ROOT
ATOM      1  C   UNL     1      -2.570  -4.850  30.706  0.00  0.00    +0.113 C 
ATOM      2  C   UNL     1      -1.365  -4.064  30.988  0.00  0.00    +0.032 C 
ATOM      3  C   UNL     1      -0.457  -3.876  29.757  0.00  0.00    +0.005 C 
ATOM      4  C   UNL     1      -1.273  -2.994  28.802  0.00  0.00    +0.032 C 
ATOM      5  C   UNL     1      -2.700  -3.550  28.854  0.00  0.00    +0.142 C 
ATOM      6  O   UNL     1      -2.700  -4.878  29.293  0.00  0.00    -0.354 OA
ENDROOT
BRANCH   1   7
ATOM      7  C   UNL     1      -3.816  -4.111  31.144  0.00  0.00    +0.003 C 
ATOM      8  C   UNL     1      -4.006  -3.754  32.460  0.00  0.00    +0.010 C 
ATOM      9  C   UNL     1      -5.122  -3.080  32.891  0.00  0.00    +0.068 C 
ATOM     10  C   UNL     1      -6.071  -2.768  31.907  0.00  0.00    +0.068 C 
ATOM     11  C   UNL     1      -5.905  -3.115  30.589  0.00  0.00    +0.012 C 
ATOM     12  C   UNL     1      -4.772  -3.793  30.183  0.00  0.00    -0.001 C 
ATOM     13 CL   UNL     1      -7.512  -1.912  32.378  0.00  0.00    -0.081 Cl
ATOM     14 CL   UNL     1      -5.381  -2.621  34.566  0.00  0.00    -0.081 Cl
ENDBRANCH   1   7
BRANCH   1  16
ATOM     15  C   UNL     1      -1.952  -7.308  30.581  0.00  0.00    +0.116 C 
ATOM     16  C   UNL     1      -2.709  -6.221  31.237  0.00  0.00    +0.051 C 
ATOM     17  C   UNL     1      -2.586  -6.327  32.742  0.00  0.00    +0.009 C 
ATOM     18  C   UNL     1      -3.342  -7.611  33.110  0.00  0.00    +0.026 C 
ATOM     19  C   UNL     1      -2.561  -8.766  32.601  0.00  0.00    -0.029 C 
ATOM     20  C   UNL     1      -1.846  -8.601  31.333  0.00  0.00    -0.012 C 
ATOM     21  N   UNL     1      -0.557  -6.925  30.283  0.00  0.00    -0.128 NA
ENDBRANCH   1  16
TORSDOF 2
