REMARK  Name = =
REMARK  2 active torsions:
REMARK  status: ('A' for Active; 'I' for Inactive)
REMARK    1  A    between atoms: C_3  and  C_8
REMARK    2  A    between atoms: C_5  and  O_15
REMARK                            x       y       z     vdW  Elec       q    Type
REMARK                         _______ _______ _______ _____ _____    ______ ____
ROOT
ATOM      1  F   UNL     1     -14.357 -43.368  29.228  0.00  0.00    -0.204 F 
ATOM      2  C   UNL     1     -14.476 -43.319  27.866  0.00  0.00    +0.139 C 
ATOM      3  C   UNL     1     -13.545 -43.984  27.117  0.00  0.00    +0.037 C 
ATOM      4  C   UNL     1     -13.675 -43.928  25.738  0.00  0.00    +0.037 C 
ATOM      5  C   UNL     1     -14.695 -43.237  25.124  0.00  0.00    +0.134 C 
ATOM      6  C   UNL     1     -15.633 -42.567  25.908  0.00  0.00    +0.039 C 
ATOM      7  C   UNL     1     -15.507 -42.619  27.279  0.00  0.00    +0.032 C 
ENDROOT
BRANCH   3   8
ATOM      8  C   UNL     1     -12.463 -44.718  27.772  0.00  0.00    +0.149 C 
ATOM      9  S   UNL     1     -13.039 -45.544  29.307  0.00  0.00    -0.115 S 
ATOM     10  C   UNL     1     -11.577 -45.134  30.338  0.00  0.00    +0.081 C 
ATOM     11  C   UNL     1     -10.671 -44.484  29.320  0.00  0.00    +0.107 C 
ATOM     12  N   UNL     1     -11.473 -43.803  28.365  0.00  0.00    -0.260 N 
ATOM     13  C   UNL     1     -11.374 -42.450  28.004  0.00  0.00    +0.304 C 
ATOM     14  O   UNL     1     -10.513 -41.728  28.544  0.00  0.00    -0.265 OA
ENDBRANCH   3   8
BRANCH   5  15
ATOM     15  O   UNL     1     -14.812 -43.190  23.723  0.00  0.00    -0.506 OA
ATOM     16  H   UNL     1     -14.188 -43.636  23.185  0.00  0.00    +0.292 HD
ENDBRANCH   5  15
TORSDOF 2
