MODEL 1
REMARK VINA RESULT:    -8.676      0.000      0.000
REMARK INTER + INTRA:         -13.880
REMARK INTER:                 -12.479
REMARK INTRA:                  -1.401
REMARK UNBOUND:                -1.401
REMARK  Name = =
REMARK  9 active torsions:
REMARK  status: ('A' for Active; 'I' for Inactive)
REMARK    1  A    between atoms: C_1  and  O_32
REMARK    2  A    between atoms: C_8  and  N_30
REMARK    3  A    between atoms: C_9  and  C_13
REMARK    4  A    between atoms: C_16  and  O_29
REMARK    5  A    between atoms: C_18  and  N_20
REMARK    6  A    between atoms: C_21  and  C_23
REMARK    7  A    between atoms: N_30  and  N_31
REMARK    8  A    between atoms: O_32  and  C_33
REMARK    9  A    between atoms: C_33  and  O_35
REMARK                            x       y       z     vdW  Elec       q    Type
REMARK                         _______ _______ _______ _____ _____    ______ ____
ROOT
ATOM      1  C   UNL     1       1.003  -0.996  26.889  0.00  0.00    +0.194 C 
ATOM      2  C   UNL     1      -0.127  -1.448  26.370  0.00  0.00    +0.083 C 
ATOM      3  C   UNL     1      -0.800  -2.593  26.964  0.00  0.00    +0.199 C 
ATOM      4  O   UNL     1      -1.877  -2.998  26.443  0.00  0.00    -0.286 OA
ATOM      5  C   UNL     1      -0.244  -3.270  28.144  0.00  0.00    +0.042 C 
ATOM      6  C   UNL     1       0.931  -2.794  28.678  0.00  0.00    +0.046 C 
ATOM      7  C   UNL     1       1.459  -3.428  29.789  0.00  0.00    +0.019 C 
ATOM      8  C   UNL     1       0.807  -4.521  30.350  0.00  0.00    +0.058 C 
ATOM      9  C   UNL     1      -0.369  -5.005  29.824  0.00  0.00    +0.016 C 
ATOM     10  C   UNL     1      -0.885  -4.367  28.717  0.00  0.00    +0.005 C 
ATOM     11  C   UNL     1       1.577  -1.648  28.061  0.00  0.00    +0.230 C 
ATOM     12  O   UNL     1       2.654  -1.253  28.591  0.00  0.00    -0.283 OA
ENDROOT
BRANCH   9  13
ATOM     13  C   UNL     1      -1.006  -6.140  30.440  0.00  0.00    +0.015 C 
ATOM     14  C   UNL     1      -2.012  -6.020  31.369  0.00  0.00    +0.011 C 
ATOM     15  C   UNL     1      -2.628  -7.103  31.955  0.00  0.00    +0.068 C 
ATOM     16  C   UNL     1      -2.228  -8.368  31.602  0.00  0.00    +0.141 C 
ATOM     17  C   UNL     1      -1.206  -8.524  30.658  0.00  0.00    +0.052 C 
ATOM     18  C   UNL     1      -0.587  -7.430  30.070  0.00  0.00    +0.054 C 
ATOM     19 BR   UNL     1      -4.030  -6.861  33.251  0.00  0.00    -0.046 Br
BRANCH  18  20
ATOM     20  N   UNL     1       0.446  -7.488  29.126  0.00  0.00    -0.280 N 
ATOM     21  C   UNL     1       0.262  -7.724  27.754  0.00  0.00    +0.249 C 
ATOM     22  O   UNL     1      -0.876  -7.899  27.270  0.00  0.00    -0.270 OA
ATOM     23  H   UNL     1       1.367  -7.353  29.447  0.00  0.00    +0.155 HD
BRANCH  21  24
ATOM     24  C   UNL     1       1.393  -7.778  26.809  0.00  0.00    +0.054 C 
ATOM     25  C   UNL     1       2.169  -8.877  26.736  0.00  0.00    +0.005 C 
ATOM     26  C   UNL     1       3.246  -8.932  25.855  0.00  0.00    +0.000 C 
ATOM     27  C   UNL     1       3.484  -7.834  25.071  0.00  0.00    +0.000 C 
ATOM     28  C   UNL     1       2.688  -6.708  25.148  0.00  0.00    +0.000 C 
ATOM     29  C   UNL     1       1.630  -6.684  26.030  0.00  0.00    +0.005 C 
ENDBRANCH  21  24
ENDBRANCH  18  20
BRANCH  16  30
ATOM     30  O   UNL     1      -2.794  -9.503  32.143  0.00  0.00    -0.505 OA
ATOM     31  H   UNL     1      -3.048 -10.211  31.584  0.00  0.00    +0.292 HD
ENDBRANCH  16  30
ENDBRANCH   9  13
BRANCH   8  32
ATOM     32  N   UNL     1       1.338  -5.173  31.489  0.00  0.00    -0.282 N 
ATOM     33  H   UNL     1       1.092  -6.103  31.699  0.00  0.00    +0.166 HD
BRANCH  32  34
ATOM     34  N   UNL     1       2.220  -4.461  32.308  0.00  0.00    -0.256 NA
ATOM     35  H   UNL     1       2.942  -4.027  31.732  0.00  0.00    +0.140 HD
ATOM     36  H   UNL     1       2.655  -5.099  32.974  0.00  0.00    +0.140 HD
ENDBRANCH  32  34
ENDBRANCH   8  32
BRANCH   1  37
ATOM     37  O   UNL     1       1.685   0.109  26.347  0.00  0.00    -0.390 OA
BRANCH  37  38
ATOM     38  C   UNL     1       2.258   0.005  25.093  0.00  0.00    +0.513 C 
ATOM     39  O   UNL     1       3.345  -0.616  24.927  0.00  0.00    -0.203 OA
BRANCH  38  40
ATOM     40  O   UNL     1       1.698   0.564  23.946  0.00  0.00    -0.449 OA
ATOM     41  H   UNL     1       1.841   1.469  23.748  0.00  0.00    +0.299 HD
ENDBRANCH  38  40
ENDBRANCH  37  38
ENDBRANCH   1  37
TORSDOF 9
ENDMDL
