REMARK  Name = =
REMARK  0 active torsions:
REMARK  status: ('A' for Active; 'I' for Inactive)
REMARK                            x       y       z     vdW  Elec       q    Type
REMARK                         _______ _______ _______ _____ _____    ______ ____
ROOT
ATOM      1  C   UNL     1      50.849 159.314  30.377  0.00  0.00    -0.026 C 
ATOM      2  C   UNL     1      49.538 158.859  30.529  0.00  0.00    -0.026 C 
ATOM      3  C   UNL     1      49.224 157.572  30.141  0.00  0.00    -0.005 C 
ATOM      4  C   UNL     1      50.144 156.711  29.610  0.00  0.00    -0.000 C 
ATOM      5  C   UNL     1      51.439 157.161  29.460  0.00  0.00    -0.000 C 
ATOM      6  C   UNL     1      51.773 158.457  29.845  0.00  0.00    -0.005 C 
ATOM      7  C   UNL     1      48.574 159.811  31.104  0.00  0.00    +0.026 C 
ATOM      8  C   UNL     1      49.141 160.533  32.287  0.00  0.00    +0.005 C 
ATOM      9  C   UNL     1      50.515 161.056  32.104  0.00  0.00    +0.005 C 
ATOM     10  C   UNL     1      51.158 160.683  30.795  0.00  0.00    +0.026 C 
ENDROOT
TORSDOF 0
