REMARK  Name = =
REMARK  2 active torsions:
REMARK  status: ('A' for Active; 'I' for Inactive)
REMARK    1  A    between atoms: C_7  and  S_11
REMARK    2  A    between atoms: S_11  and  C_12
REMARK                            x       y       z     vdW  Elec       q    Type
REMARK                         _______ _______ _______ _____ _____    ______ ____
ROOT
ATOM      1  C   UNL     1      51.027 159.217  30.501  0.00  0.00    -0.025 C 
ATOM      2  C   UNL     1      49.771 158.743  30.809  0.00  0.00    -0.016 C 
ATOM      3  C   UNL     1      49.340 157.502  30.388  0.00  0.00    -0.004 C 
ATOM      4  C   UNL     1      50.180 156.721  29.646  0.00  0.00    -0.000 C 
ATOM      5  C   UNL     1      51.422 157.167  29.330  0.00  0.00    -0.000 C 
ATOM      6  C   UNL     1      51.846 158.407  29.754  0.00  0.00    -0.005 C 
ATOM      7  C   UNL     1      48.919 159.649  31.626  0.00  0.00    +0.077 C 
ATOM      8  C   UNL     1      49.845 160.119  32.744  0.00  0.00    +0.016 C 
ATOM      9  C   UNL     1      50.757 161.138  32.099  0.00  0.00    +0.006 C 
ATOM     10  C   UNL     1      51.486 160.548  30.948  0.00  0.00    +0.026 C 
ENDROOT
BRANCH   7  11
ATOM     11  S   UNL     1      48.496 161.046  30.545  0.00  0.00    -0.065 S 
BRANCH  11  12
ATOM     12  C   UNL     1      48.660 160.567  28.841  0.00  0.00    +0.266 C 
ATOM     13  O   UNL     1      48.715 161.412  27.980  0.00  0.00    -0.276 OA
ENDBRANCH  11  12
ENDBRANCH   7  11
TORSDOF 2
