REMARK  Name = =
REMARK  4 active torsions:
REMARK  status: ('A' for Active; 'I' for Inactive)
REMARK    1  A    between atoms: C_7  and  S_11
REMARK    2  A    between atoms: S_11  and  C_12
REMARK    3  A    between atoms: S_11  and  S_14
REMARK    4  A    between atoms: S_14  and  C_15
REMARK                            x       y       z     vdW  Elec       q    Type
REMARK                         _______ _______ _______ _____ _____    ______ ____
ROOT
ATOM      1  C   UNL     1      49.145 160.152  31.233  0.00  0.00    -0.025 C 
ATOM      2  C   UNL     1      48.943 159.209  30.250  0.00  0.00    -0.017 C 
ATOM      3  C   UNL     1      48.718 159.698  28.981  0.00  0.00    -0.004 C 
ATOM      4  C   UNL     1      48.689 161.057  28.682  0.00  0.00    -0.000 C 
ATOM      5  C   UNL     1      48.893 161.969  29.678  0.00  0.00    -0.000 C 
ATOM      6  C   UNL     1      49.119 161.507  30.946  0.00  0.00    -0.005 C 
ATOM      7  C   UNL     1      48.953 157.746  30.457  0.00  0.00    +0.066 C 
ATOM      8  C   UNL     1      49.313 157.430  31.919  0.00  0.00    +0.015 C 
ATOM      9  C   UNL     1      48.749 158.434  32.864  0.00  0.00    +0.006 C 
ATOM     10  C   UNL     1      49.399 159.788  32.644  0.00  0.00    +0.026 C 
ENDROOT
BRANCH   7  11
ATOM     11  S   UNL     1      50.093 156.885  29.503  0.00  0.00    -0.117 S 
ATOM     12  H   UNL     1      49.579 156.524  28.296  0.00  0.00    +0.102 HD
BRANCH  11  13
ATOM     13  C   UNL     1      50.815 155.593  30.292  0.00  0.00    +0.255 C 
ATOM     14  O   UNL     1      51.444 154.728  29.660  0.00  0.00    -0.277 OA
ENDBRANCH  11  13
BRANCH  11  15
ATOM     15  S   UNL     1      51.479 158.053  29.854  0.00  0.00    -0.025 S 
BRANCH  15  16
ATOM     16  C   UNL     1      52.942 157.733  29.135  0.00  0.00    +0.275 C 
ATOM     17  O   UNL     1      53.074 157.282  27.985  0.00  0.00    -0.275 OA
ENDBRANCH  15  16
ENDBRANCH  11  15
ENDBRANCH   7  11
TORSDOF 4
