REMARK  Name = =
REMARK  8 active torsions:
REMARK  status: ('A' for Active; 'I' for Inactive)
REMARK    1  A    between atoms: S_1  and  C_8
REMARK    2  A    between atoms: S_1  and  C_12
REMARK    3  A    between atoms: S_1  and  S_14
REMARK    4  A    between atoms: S_14  and  C_15
REMARK    5  A    between atoms: S_14  and  S_17
REMARK    6  A    between atoms: S_17  and  P_18
REMARK    7  A    between atoms: P_18  and  O_20
REMARK    8  A    between atoms: P_18  and  O_21
REMARK                            x       y       z     vdW  Elec       q    Type
REMARK                         _______ _______ _______ _____ _____    ______ ____
ROOT
ATOM      1  S   UNL     1      50.235 157.604  29.431  0.00  0.00    -0.129 S 
ATOM      2  H   UNL     1      50.434 158.355  28.315  0.00  0.00    +0.101 HD
ENDROOT
BRANCH   1   9
ATOM      3  C   UNL     1      49.034 160.468  31.865  0.00  0.00    -0.025 C 
ATOM      4  C   UNL     1      49.284 159.810  30.652  0.00  0.00    -0.017 C 
ATOM      5  C   UNL     1      48.939 160.390  29.475  0.00  0.00    -0.004 C 
ATOM      6  C   UNL     1      48.337 161.640  29.513  0.00  0.00    -0.000 C 
ATOM      7  C   UNL     1      48.089 162.293  30.702  0.00  0.00    -0.000 C 
ATOM      8  C   UNL     1      48.443 161.696  31.896  0.00  0.00    -0.005 C 
ATOM      9  C   UNL     1      49.925 158.492  30.819  0.00  0.00    +0.065 C 
ATOM     10  C   UNL     1      49.016 157.720  31.755  0.00  0.00    +0.015 C 
ATOM     11  C   UNL     1      49.086 158.323  33.150  0.00  0.00    +0.006 C 
ATOM     12  C   UNL     1      49.439 159.783  33.118  0.00  0.00    +0.026 C 
ENDBRANCH   1   9
BRANCH   1  13
ATOM     13  C   UNL     1      48.958 156.602  29.274  0.00  0.00    +0.254 C 
ATOM     14  O   UNL     1      48.715 155.695  30.088  0.00  0.00    -0.277 OA
ENDBRANCH   1  13
BRANCH   1  15
ATOM     15  S   UNL     1      51.691 156.583  29.844  0.00  0.00    -0.088 S 
ATOM     16  H   UNL     1      51.734 156.220  31.154  0.00  0.00    +0.111 HD
BRANCH  15  17
ATOM     17  C   UNL     1      52.954 157.666  29.273  0.00  0.00    +0.263 C 
ATOM     18  O   UNL     1      52.862 158.870  29.232  0.00  0.00    -0.276 OA
ENDBRANCH  15  17
BRANCH  15  19
ATOM     19  S   UNL     1      51.764 155.197  29.197  0.00  0.00    +0.021 S 
BRANCH  19  20
ATOM     20  P   UNL     1      52.591 154.595  27.539  0.00  0.00    +0.396 P 
ATOM     21  O   UNL     1      51.684 154.133  26.387  0.00  0.00    -0.245 OA
BRANCH  20  22
ATOM     22  O   UNL     1      53.590 155.794  26.818  0.00  0.00    -0.316 OA
ATOM     23  H   UNL     1      54.203 156.146  27.482  0.00  0.00    +0.221 HD
ENDBRANCH  20  22
BRANCH  20  24
ATOM     24  O   UNL     1      53.655 153.265  27.780  0.00  0.00    -0.316 OA
ATOM     25  H   UNL     1      53.169 152.532  28.189  0.00  0.00    +0.221 HD
ENDBRANCH  20  24
ENDBRANCH  19  20
ENDBRANCH  15  19
ENDBRANCH   1  15
TORSDOF 8
