REMARK  Name = =
REMARK  12 active torsions:
REMARK  status: ('A' for Active; 'I' for Inactive)
REMARK    1  A    between atoms: C_6  and  S_22
REMARK    2  A    between atoms: C_7  and  S_11
REMARK    3  A    between atoms: S_11  and  C_12
REMARK    4  A    between atoms: S_11  and  S_14
REMARK    5  A    between atoms: S_14  and  C_15
REMARK    6  A    between atoms: S_14  and  S_17
REMARK    7  A    between atoms: S_17  and  P_18
REMARK    8  A    between atoms: P_18  and  O_20
REMARK    9  A    between atoms: P_18  and  O_21
REMARK   10  A    between atoms: S_22  and  P_23
REMARK   11  A    between atoms: P_23  and  O_25
REMARK   12  A    between atoms: P_23  and  O_26
REMARK                            x       y       z     vdW  Elec       q    Type
REMARK                         _______ _______ _______ _____ _____    ______ ____
ROOT
ATOM      1  C   UNL     1      50.248 159.836  31.364  0.00  0.00    -0.019 C 
ATOM      2  C   UNL     1      50.708 159.346  30.158  0.00  0.00    -0.017 C 
ATOM      3  C   UNL     1      51.818 159.999  29.653  0.00  0.00    -0.004 C 
ATOM      4  C   UNL     1      52.437 161.066  30.290  0.00  0.00    +0.000 C 
ATOM      5  C   UNL     1      51.951 161.522  31.484  0.00  0.00    +0.006 C 
ATOM      6  C   UNL     1      50.842 160.882  32.005  0.00  0.00    +0.032 C 
ATOM      7  C   UNL     1      50.103 158.219  29.445  0.00  0.00    +0.065 C 
ATOM      8  C   UNL     1      48.741 157.801  30.014  0.00  0.00    +0.015 C 
ATOM      9  C   UNL     1      48.146 158.977  30.692  0.00  0.00    +0.006 C 
ATOM     10  C   UNL     1      49.043 159.198  31.939  0.00  0.00    +0.027 C 
ENDROOT
BRANCH   7  11
ATOM     11  S   UNL     1      51.056 156.775  29.523  0.00  0.00    -0.129 S 
ATOM     12  H   UNL     1      51.831 156.617  30.629  0.00  0.00    +0.101 HD
BRANCH  11  13
ATOM     13  C   UNL     1      49.921 155.595  29.296  0.00  0.00    +0.254 C 
ATOM     14  O   UNL     1      49.970 154.496  29.825  0.00  0.00    -0.277 OA
ENDBRANCH  11  13
BRANCH  11  15
ATOM     15  S   UNL     1      52.008 156.831  27.897  0.00  0.00    -0.088 S 
ATOM     16  H   UNL     1      51.414 157.556  26.911  0.00  0.00    +0.111 HD
BRANCH  15  17
ATOM     17  C   UNL     1      53.494 157.449  28.501  0.00  0.00    +0.263 C 
ATOM     18  O   UNL     1      54.284 156.757  29.125  0.00  0.00    -0.276 OA
ENDBRANCH  15  17
BRANCH  15  19
ATOM     19  S   UNL     1      52.148 155.488  27.187  0.00  0.00    +0.021 S 
BRANCH  19  20
ATOM     20  P   UNL     1      52.937 153.805  27.730  0.00  0.00    +0.396 P 
ATOM     21  O   UNL     1      51.931 152.663  27.938  0.00  0.00    -0.245 OA
BRANCH  20  22
ATOM     22  O   UNL     1      53.804 153.881  29.207  0.00  0.00    -0.316 OA
ATOM     23  H   UNL     1      53.226 154.230  29.904  0.00  0.00    +0.221 HD
ENDBRANCH  20  22
BRANCH  20  24
ATOM     24  O   UNL     1      54.060 153.179  26.594  0.00  0.00    -0.316 OA
ATOM     25  H   UNL     1      53.635 153.107  25.725  0.00  0.00    +0.221 HD
ENDBRANCH  20  24
ENDBRANCH  19  20
ENDBRANCH  15  19
ENDBRANCH  11  15
ENDBRANCH   7  11
BRANCH   6  26
ATOM     26  S   UNL     1      50.155 161.442  33.581  0.00  0.00    -0.004 S 
BRANCH  26  27
ATOM     27  P   UNL     1      48.126 161.981  33.352  0.00  0.00    +0.391 P 
ATOM     28  O   UNL     1      47.633 162.523  34.683  0.00  0.00    -0.246 OA
BRANCH  27  29
ATOM     29  O   UNL     1      47.262 160.585  32.916  0.00  0.00    -0.316 OA
ATOM     30  H   UNL     1      47.390 159.901  33.592  0.00  0.00    +0.221 HD
ENDBRANCH  27  29
BRANCH  27  31
ATOM     31  O   UNL     1      47.941 163.207  32.211  0.00  0.00    -0.316 OA
ATOM     32  H   UNL     1      48.446 163.987  32.490  0.00  0.00    +0.221 HD
ENDBRANCH  27  31
ENDBRANCH  26  27
ENDBRANCH   6  26
TORSDOF 12
