REMARK  Name = =
REMARK  0 active torsions:
REMARK  status: ('A' for Active; 'I' for Inactive)
REMARK                            x       y       z     vdW  Elec       q    Type
REMARK                         _______ _______ _______ _____ _____    ______ ____
ROOT
ATOM      1  C   UNL     1      52.456 156.333  28.429  0.00  0.00    +0.100 C 
ATOM      2  N   UNL     1      53.080 155.401  27.668  0.00  0.00    -0.230 NA
ATOM      3  C   UNL     1      52.860 154.093  27.859  0.00  0.00    +0.125 C 
ATOM      4  C   UNL     1      51.994 153.671  28.835  0.00  0.00    +0.034 C 
ATOM      5  C   UNL     1      51.324 154.573  29.647  0.00  0.00    +0.004 C 
ATOM      6  C   UNL     1      51.582 155.916  29.414  0.00  0.00    +0.021 C 
ATOM      7  N   UNL     1      53.532 153.155  27.044  0.00  0.00    -0.343 N 
ATOM      8  H   UNL     1      54.152 153.465  26.345  0.00  0.00    +0.144 HD
ATOM      9  H   UNL     1      53.380 152.191  27.175  0.00  0.00    +0.144 HD
ENDROOT
TORSDOF 0
