REMARK  Name = =
REMARK  0 active torsions:
REMARK  status: ('A' for Active; 'I' for Inactive)
REMARK                            x       y       z     vdW  Elec       q    Type
REMARK                         _______ _______ _______ _____ _____    ______ ____
ROOT
ATOM      1  C   UNL     1      48.576 165.947  24.615  0.00  0.00    +0.000 C 
ATOM      2  C   UNL     1      49.538 165.040  24.986  0.00  0.00    +0.000 C 
ATOM      3  C   UNL     1      49.504 164.532  26.279  0.00  0.00    +0.000 C 
ATOM      4  C   UNL     1      48.527 164.918  27.188  0.00  0.00    +0.000 C 
ATOM      5  C   UNL     1      48.481 164.416  28.489  0.00  0.00    +0.000 C 
ATOM      6  C   UNL     1      49.464 163.497  28.851  0.00  0.00    +0.000 C 
ATOM      7  C   UNL     1      49.429 162.983  30.160  0.00  0.00    +0.000 C 
ATOM      8  C   UNL     1      48.433 163.394  31.047  0.00  0.00    +0.000 C 
ATOM      9  C   UNL     1      47.469 164.300  30.675  0.00  0.00    +0.000 C 
ATOM     10  C   UNL     1      47.520 164.792  29.392  0.00  0.00    +0.000 C 
ATOM     11  C   UNL     1      48.385 162.895  32.340  0.00  0.00    +0.000 C 
ATOM     12  C   UNL     1      49.348 161.988  32.714  0.00  0.00    +0.000 C 
ATOM     13  C   UNL     1      50.335 161.575  31.848  0.00  0.00    +0.000 C 
ATOM     14  C   UNL     1      50.381 162.075  30.555  0.00  0.00    +0.000 C 
ATOM     15  C   UNL     1      50.444 163.097  27.969  0.00  0.00    +0.000 C 
ATOM     16  C   UNL     1      50.449 163.622  26.692  0.00  0.00    +0.000 C 
ATOM     17  C   UNL     1      47.564 165.823  26.821  0.00  0.00    +0.000 C 
ATOM     18  C   UNL     1      47.613 166.327  25.513  0.00  0.00    +0.000 C 
ENDROOT
TORSDOF 0
