REMARK  Name = =
REMARK  2 active torsions:
REMARK  status: ('A' for Active; 'I' for Inactive)
REMARK    1  A    between atoms: C_1  and  C_8
REMARK    2  A    between atoms: C_8  and  C_10
REMARK                            x       y       z     vdW  Elec       q    Type
REMARK                         _______ _______ _______ _____ _____    ______ ____
ROOT
ATOM      1  C   UNL     1      52.342 155.727  28.331  0.00  0.00    +0.125 C 
ATOM      2  N   UNL     1      52.406 154.499  27.792  0.00  0.00    -0.228 NA
ATOM      3  C   UNL     1      51.853 153.432  28.386  0.00  0.00    +0.125 C 
ATOM      4  C   UNL     1      51.196 153.576  29.586  0.00  0.00    +0.034 C 
ATOM      5  C   UNL     1      51.110 154.814  30.169  0.00  0.00    +0.005 C 
ATOM      6  C   UNL     1      51.687 155.880  29.530  0.00  0.00    +0.023 C 
ATOM      7  N   UNL     1      51.982 152.193  27.727  0.00  0.00    -0.343 N 
ATOM      8  H   UNL     1      52.462 152.139  26.869  0.00  0.00    +0.144 HD
ATOM      9  H   UNL     1      51.592 151.381  28.125  0.00  0.00    +0.144 HD
ENDROOT
BRANCH   1  10
ATOM     10  C   UNL     1      52.956 156.855  27.652  0.00  0.00    +0.255 C 
ATOM     11  O   UNL     1      53.228 157.874  28.318  0.00  0.00    -0.281 OA
BRANCH  10  12
ATOM     12  C   UNL     1      53.258 156.830  26.237  0.00  0.00    +0.278 C 
ATOM     13  O   UNL     1      52.810 155.881  25.511  0.00  0.00    -0.280 OA
ENDBRANCH  10  12
ENDBRANCH   1  10
TORSDOF 2
