REMARK  Name = =
REMARK  1 active torsions:
REMARK  status: ('A' for Active; 'I' for Inactive)
REMARK    1  A    between atoms: C_1  and  C_19
REMARK                            x       y       z     vdW  Elec       q    Type
REMARK                         _______ _______ _______ _____ _____    ______ ____
ROOT
ATOM      1  C   UNL     1      48.957 164.391  24.586  0.00  0.00    +0.019 C 
ATOM      2  C   UNL     1      49.983 164.157  25.474  0.00  0.00    +0.002 C 
ATOM      3  C   UNL     1      49.950 163.183  26.473  0.00  0.00    +0.000 C 
ATOM      4  C   UNL     1      48.816 162.401  26.578  0.00  0.00    +0.000 C 
ATOM      5  C   UNL     1      48.791 161.436  27.573  0.00  0.00    +0.000 C 
ATOM      6  C   UNL     1      49.874 161.251  28.445  0.00  0.00    +0.000 C 
ATOM      7  C   UNL     1      49.862 160.287  29.446  0.00  0.00    +0.000 C 
ATOM      8  C   UNL     1      48.714 159.505  29.544  0.00  0.00    +0.000 C 
ATOM      9  C   UNL     1      47.641 159.667  28.701  0.00  0.00    +0.000 C 
ATOM     10  C   UNL     1      47.685 160.641  27.710  0.00  0.00    +0.000 C 
ATOM     11  C   UNL     1      48.691 158.535  30.544  0.00  0.00    +0.000 C 
ATOM     12  C   UNL     1      49.753 158.355  31.398  0.00  0.00    +0.000 C 
ATOM     13  C   UNL     1      50.894 159.130  31.303  0.00  0.00    +0.000 C 
ATOM     14  C   UNL     1      50.918 160.091  30.314  0.00  0.00    +0.000 C 
ATOM     15  C   UNL     1      50.980 162.043  28.311  0.00  0.00    +0.000 C 
ATOM     16  C   UNL     1      51.012 163.007  27.324  0.00  0.00    +0.000 C 
ATOM     17  C   UNL     1      47.768 162.608  25.704  0.00  0.00    +0.000 C 
ATOM     18  C   UNL     1      47.845 163.591  24.724  0.00  0.00    +0.002 C 
ENDROOT
BRANCH   1  19
ATOM     19  C   UNL     1      49.084 165.468  23.600  0.00  0.00    +0.103 C 
ATOM     20  C   UNL     1      49.235 165.259  22.250  0.00  0.00    +0.021 C 
ATOM     21  C   UNL     1      49.352 166.366  21.409  0.00  0.00    +0.022 C 
ATOM     22  C   UNL     1      49.322 167.648  21.904  0.00  0.00    +0.122 C 
ATOM     23  N   UNL     1      49.174 167.799  23.227  0.00  0.00    -0.146 NA
ATOM     24  N   UNL     1      49.061 166.764  24.034  0.00  0.00    -0.148 NA
ATOM     25  C   UNL     1      49.518 166.175  20.040  0.00  0.00    +0.002 C 
ATOM     26  C   UNL     1      49.564 164.894  19.544  0.00  0.00    +0.000 C 
ATOM     27  C   UNL     1      49.448 163.807  20.395  0.00  0.00    +0.000 C 
ATOM     28  C   UNL     1      49.282 163.986  21.757  0.00  0.00    +0.002 C 
ENDBRANCH   1  19
TORSDOF 1
