REMARK  Name = =
REMARK  3 active torsions:
REMARK  status: ('A' for Active; 'I' for Inactive)
REMARK    1  A    between atoms: C_1  and  C_14
REMARK    2  A    between atoms: C_5  and  C_7
REMARK    3  A    between atoms: C_14  and  C_16
REMARK                            x       y       z     vdW  Elec       q    Type
REMARK                         _______ _______ _______ _____ _____    ______ ____
ROOT
ATOM      1  C   UNL     1      52.067 155.135  28.722  0.00  0.00    +0.125 C 
ATOM      2  N   UNL     1      52.880 155.719  27.801  0.00  0.00    -0.228 NA
ATOM      3  C   UNL     1      52.968 157.067  27.660  0.00  0.00    +0.125 C 
ATOM      4  C   UNL     1      52.210 157.871  28.475  0.00  0.00    +0.030 C 
ATOM      5  C   UNL     1      51.381 157.297  29.414  0.00  0.00    -0.018 C 
ATOM      6  C   UNL     1      51.294 155.922  29.556  0.00  0.00    +0.018 C 
ATOM      7  N   UNL     1      53.839 157.639  26.675  0.00  0.00    -0.343 N 
ATOM      8  H   UNL     1      54.378 157.054  26.096  0.00  0.00    +0.144 HD
ATOM      9  H   UNL     1      53.898 158.617  26.578  0.00  0.00    +0.144 HD
ENDROOT
BRANCH   5  10
ATOM     10  C   UNL     1      50.563 158.163  30.293  0.00  0.00    +0.022 C 
ATOM     11  C   UNL     1      51.243 159.428  30.671  0.00  0.00    +0.004 C 
ATOM     12  C   UNL     1      50.494 160.601  30.087  0.00  0.00    +0.000 C 
ATOM     13  C   UNL     1      49.118 160.575  30.776  0.00  0.00    +0.000 C 
ATOM     14  C   UNL     1      48.351 159.347  30.320  0.00  0.00    +0.000 C 
ATOM     15  C   UNL     1      49.250 158.384  29.580  0.00  0.00    +0.004 C 
ENDBRANCH   5  10
BRANCH   1  16
ATOM     16  C   UNL     1      52.034 153.688  28.808  0.00  0.00    +0.255 C 
ATOM     17  O   UNL     1      51.205 153.147  29.570  0.00  0.00    -0.281 OA
BRANCH  16  18
ATOM     18  C   UNL     1      52.955 152.903  28.013  0.00  0.00    +0.278 C 
ATOM     19  O   UNL     1      53.810 153.422  27.256  0.00  0.00    -0.280 OA
ENDBRANCH  16  18
ENDBRANCH   1  16
TORSDOF 3
