REMARK  Name = =
REMARK  5 active torsions:
REMARK  status: ('A' for Active; 'I' for Inactive)
REMARK    1  A    between atoms: C_1  and  C_14
REMARK    2  A    between atoms: C_3  and  N_13
REMARK    3  A    between atoms: C_5  and  C_7
REMARK    4  A    between atoms: C_14  and  C_16
REMARK    5  A    between atoms: C_16  and  C_18
REMARK                            x       y       z     vdW  Elec       q    Type
REMARK                         _______ _______ _______ _____ _____    ______ ____
ROOT
ATOM      1  C   UNL     1      51.827 159.205  29.906  0.00  0.00    +0.124 C 
ATOM      2  N   UNL     1      52.862 159.749  30.578  0.00  0.00    -0.228 NA
ATOM      3  C   UNL     1      52.730 160.701  31.501  0.00  0.00    +0.125 C 
ATOM      4  C   UNL     1      51.470 161.187  31.817  0.00  0.00    +0.030 C 
ATOM      5  C   UNL     1      50.377 160.674  31.169  0.00  0.00    -0.018 C 
ATOM      6  C   UNL     1      50.569 159.700  30.232  0.00  0.00    +0.018 C 
ENDROOT
BRANCH   5   7
ATOM      7  C   UNL     1      49.026 161.190  31.504  0.00  0.00    +0.022 C 
ATOM      8  C   UNL     1      49.139 162.695  31.607  0.00  0.00    +0.004 C 
ATOM      9  C   UNL     1      47.861 163.331  32.097  0.00  0.00    +0.000 C 
ATOM     10  C   UNL     1      47.294 162.659  33.305  0.00  0.00    +0.000 C 
ATOM     11  C   UNL     1      48.336 161.691  33.858  0.00  0.00    +0.000 C 
ATOM     12  C   UNL     1      48.532 160.602  32.819  0.00  0.00    +0.004 C 
ENDBRANCH   5   7
BRANCH   3  13
ATOM     13  N   UNL     1      53.826 161.272  32.207  0.00  0.00    -0.343 N 
ATOM     14  H   UNL     1      54.743 160.965  32.023  0.00  0.00    +0.144 HD
ATOM     15  H   UNL     1      53.667 161.974  32.879  0.00  0.00    +0.144 HD
ENDBRANCH   3  13
BRANCH   1  16
ATOM     16  C   UNL     1      51.986 158.172  28.908  0.00  0.00    +0.248 C 
ATOM     17  O   UNL     1      50.975 157.638  28.413  0.00  0.00    -0.282 OA
BRANCH  16  18
ATOM     18  C   UNL     1      53.303 157.761  28.484  0.00  0.00    +0.217 C 
ATOM     19  O   UNL     1      54.302 158.355  28.988  0.00  0.00    -0.288 OA
BRANCH  18  20
ATOM     20  C   UNL     1      53.524 156.665  27.475  0.00  0.00    +0.087 C 
ATOM     21  C   UNL     1      52.541 155.580  27.738  0.00  0.00    -0.019 C 
ATOM     22  C   UNL     1      52.941 154.644  28.814  0.00  0.00    -0.004 C 
ATOM     23  C   UNL     1      52.267 153.321  28.829  0.00  0.00    -0.000 C 
ATOM     24  C   UNL     1      51.137 153.144  27.910  0.00  0.00    -0.000 C 
ATOM     25  C   UNL     1      50.957 153.889  26.840  0.00  0.00    -0.005 C 
ATOM     26  C   UNL     1      51.948 154.952  26.564  0.00  0.00    -0.026 C 
ATOM     27  C   UNL     1      52.233 155.252  25.332  0.00  0.00    +0.026 C 
ATOM     28  C   UNL     1      53.226 156.299  25.016  0.00  0.00    +0.005 C 
ATOM     29  C   UNL     1      53.314 157.295  26.109  0.00  0.00    +0.013 C 
ENDBRANCH  18  20
ENDBRANCH  16  18
ENDBRANCH   1  16
TORSDOF 5
