REMARK  Name = =
REMARK  7 active torsions:
REMARK  status: ('A' for Active; 'I' for Inactive)
REMARK    1  A    between atoms: C_1  and  C_3
REMARK    2  A    between atoms: C_1  and  C_16
REMARK    3  A    between atoms: C_5  and  N_15
REMARK    4  A    between atoms: C_7  and  C_9
REMARK    5  A    between atoms: C_16  and  C_18
REMARK    6  A    between atoms: C_18  and  N_28
REMARK    7  A    between atoms: N_28  and  O_29
REMARK                            x       y       z     vdW  Elec       q    Type
REMARK                         _______ _______ _______ _____ _____    ______ ____
ROOT
ATOM      1  C   UNL     1      49.811 157.718  29.842  0.00  0.00    +0.249 C 
ATOM      2  O   UNL     1      48.765 157.327  29.269  0.00  0.00    -0.282 OA
ENDROOT
BRANCH   1   3
ATOM      3  C   UNL     1      51.095 157.312  29.299  0.00  0.00    +0.124 C 
ATOM      4  N   UNL     1      52.186 158.070  29.450  0.00  0.00    -0.228 NA
ATOM      5  C   UNL     1      53.395 157.750  28.973  0.00  0.00    +0.125 C 
ATOM      6  C   UNL     1      53.555 156.585  28.286  0.00  0.00    +0.030 C 
ATOM      7  C   UNL     1      52.481 155.747  28.083  0.00  0.00    -0.018 C 
ATOM      8  C   UNL     1      51.263 156.132  28.600  0.00  0.00    +0.018 C 
BRANCH   7   9
ATOM      9  C   UNL     1      52.689 154.499  27.338  0.00  0.00    +0.022 C 
ATOM     10  C   UNL     1      52.894 154.726  25.860  0.00  0.00    +0.004 C 
ATOM     11  C   UNL     1      52.966 153.383  25.167  0.00  0.00    +0.000 C 
ATOM     12  C   UNL     1      52.958 152.236  26.141  0.00  0.00    +0.000 C 
ATOM     13  C   UNL     1      51.775 152.245  27.061  0.00  0.00    +0.000 C 
ATOM     14  C   UNL     1      51.447 153.648  27.491  0.00  0.00    +0.004 C 
ENDBRANCH   7   9
BRANCH   5  15
ATOM     15  N   UNL     1      54.455 158.672  29.224  0.00  0.00    -0.343 N 
ATOM     16  H   UNL     1      54.279 159.499  29.727  0.00  0.00    +0.144 HD
ATOM     17  H   UNL     1      55.362 158.481  28.894  0.00  0.00    +0.144 HD
ENDBRANCH   5  15
ENDBRANCH   1   3
BRANCH   1  18
ATOM     18  C   UNL     1      49.661 158.553  31.018  0.00  0.00    +0.230 C 
ATOM     19  O   UNL     1      49.046 157.998  31.995  0.00  0.00    -0.286 OA
BRANCH  18  20
ATOM     20  C   UNL     1      50.174 159.947  31.102  0.00  0.00    +0.149 C 
ATOM     21  C   UNL     1      49.524 160.778  32.125  0.00  0.00    +0.047 C 
ATOM     22  C   UNL     1      49.039 160.186  33.376  0.00  0.00    +0.011 C 
ATOM     23  C   UNL     1      48.066 161.211  33.994  0.00  0.00    +0.026 C 
ATOM     24  C   UNL     1      48.719 162.529  34.187  0.00  0.00    -0.026 C 
ATOM     25  C   UNL     1      49.783 162.887  33.443  0.00  0.00    -0.009 C 
ATOM     26  C   UNL     1      50.316 161.984  32.433  0.00  0.00    -0.025 C 
ATOM     27  C   UNL     1      51.467 162.306  31.869  0.00  0.00    -0.030 C 
ATOM     28  C   UNL     1      52.090 161.436  30.827  0.00  0.00    +0.028 C 
ATOM     29  C   UNL     1      51.684 159.978  31.079  0.00  0.00    +0.031 C 
BRANCH  20  30
ATOM     30  N   UNL     1      49.780 160.577  29.813  0.00  0.00    -0.083 NA
BRANCH  30  31
ATOM     31  O   UNL     1      48.429 160.562  29.701  0.00  0.00    -0.295 OA
ATOM     32  H   UNL     1      48.170 160.972  28.861  0.00  0.00    +0.238 HD
ENDBRANCH  30  31
ENDBRANCH  20  30
ENDBRANCH  18  20
ENDBRANCH   1  18
TORSDOF 7
