REMARK  Name = =
REMARK  8 active torsions:
REMARK  status: ('A' for Active; 'I' for Inactive)
REMARK    1  A    between atoms: C_1  and  C_13
REMARK    2  A    between atoms: C_3  and  N_29
REMARK    3  A    between atoms: C_5  and  C_7
REMARK    4  A    between atoms: C_13  and  C_15
REMARK    5  A    between atoms: C_15  and  C_17
REMARK    6  A    between atoms: C_17  and  N_27
REMARK    7  A    between atoms: N_27  and  O_28
REMARK    8  A    between atoms: N_29  and  N_30
REMARK                            x       y       z     vdW  Elec       q    Type
REMARK                         _______ _______ _______ _____ _____    ______ ____
ROOT
ATOM      1  C   UNL     1      52.129 157.038  29.145  0.00  0.00    +0.124 C 
ATOM      2  N   UNL     1      50.800 157.044  29.245  0.00  0.00    -0.226 NA
ATOM      3  C   UNL     1      50.100 158.074  29.756  0.00  0.00    +0.141 C 
ATOM      4  C   UNL     1      50.821 159.164  30.191  0.00  0.00    +0.031 C 
ATOM      5  C   UNL     1      52.201 159.223  30.119  0.00  0.00    -0.018 C 
ATOM      6  C   UNL     1      52.844 158.124  29.580  0.00  0.00    +0.018 C 
ENDROOT
BRANCH   5   7
ATOM      7  C   UNL     1      52.887 160.418  30.603  0.00  0.00    +0.022 C 
ATOM      8  C   UNL     1      52.207 161.709  30.177  0.00  0.00    +0.004 C 
ATOM      9  C   UNL     1      52.793 162.803  31.063  0.00  0.00    +0.000 C 
ATOM     10  C   UNL     1      54.281 162.933  30.858  0.00  0.00    +0.000 C 
ATOM     11  C   UNL     1      55.003 161.623  30.912  0.00  0.00    +0.000 C 
ATOM     12  C   UNL     1      54.322 160.518  30.155  0.00  0.00    +0.004 C 
ENDBRANCH   5   7
BRANCH   1  13
ATOM     13  C   UNL     1      52.789 155.859  28.569  0.00  0.00    +0.249 C 
ATOM     14  O   UNL     1      53.477 155.099  29.321  0.00  0.00    -0.282 OA
BRANCH  13  15
ATOM     15  C   UNL     1      52.694 155.520  27.175  0.00  0.00    +0.230 C 
ATOM     16  O   UNL     1      52.858 156.400  26.306  0.00  0.00    -0.286 OA
BRANCH  15  17
ATOM     17  C   UNL     1      52.403 154.138  26.760  0.00  0.00    +0.149 C 
ATOM     18  C   UNL     1      53.628 153.315  26.532  0.00  0.00    +0.047 C 
ATOM     19  C   UNL     1      54.666 153.916  25.649  0.00  0.00    +0.011 C 
ATOM     20  C   UNL     1      55.728 152.861  25.365  0.00  0.00    +0.026 C 
ATOM     21  C   UNL     1      55.112 151.701  24.703  0.00  0.00    -0.026 C 
ATOM     22  C   UNL     1      53.917 151.291  25.037  0.00  0.00    -0.009 C 
ATOM     23  C   UNL     1      53.182 151.983  26.073  0.00  0.00    -0.025 C 
ATOM     24  C   UNL     1      52.117 151.432  26.599  0.00  0.00    -0.030 C 
ATOM     25  C   UNL     1      51.306 152.082  27.663  0.00  0.00    +0.028 C 
ATOM     26  C   UNL     1      51.693 153.487  27.961  0.00  0.00    +0.031 C 
BRANCH  17  27
ATOM     27  N   UNL     1      51.489 154.154  25.631  0.00  0.00    -0.083 NA
BRANCH  27  28
ATOM     28  O   UNL     1      52.080 154.698  24.565  0.00  0.00    -0.295 OA
ATOM     29  H   UNL     1      51.460 154.703  23.819  0.00  0.00    +0.238 HD
ENDBRANCH  27  28
ENDBRANCH  17  27
ENDBRANCH  15  17
ENDBRANCH  13  15
ENDBRANCH   1  13
BRANCH   3  30
ATOM     30  N   UNL     1      48.686 158.113  29.872  0.00  0.00    -0.260 N 
ATOM     31  H   UNL     1      48.152 157.287  29.843  0.00  0.00    +0.168 HD
BRANCH  30  32
ATOM     32  N   UNL     1      48.080 159.352  30.027  0.00  0.00    -0.202 NA
ATOM     33  C   UNL     1      46.934 159.372  30.877  0.00  0.00    +0.097 C 
ATOM     34  C   UNL     1      47.334 159.298  32.340  0.00  0.00    +0.045 C 
ATOM     35  C   UNL     1      48.094 160.544  32.624  0.00  0.00    -0.023 C 
ATOM     36  C   UNL     1      48.888 161.033  31.605  0.00  0.00    -0.008 C 
ATOM     37  C   UNL     1      49.591 162.183  31.861  0.00  0.00    -0.003 C 
ATOM     38  C   UNL     1      49.500 162.820  33.098  0.00  0.00    -0.000 C 
ATOM     39  C   UNL     1      48.699 162.310  34.099  0.00  0.00    -0.000 C 
ATOM     40  C   UNL     1      47.983 161.148  33.852  0.00  0.00    -0.004 C 
ATOM     41  C   UNL     1      49.026 160.410  30.287  0.00  0.00    +0.118 C 
ENDBRANCH  30  32
ENDBRANCH   3  30
TORSDOF 8
