REMARK  Name = =
REMARK  3 active torsions:
REMARK  status: ('A' for Active; 'I' for Inactive)
REMARK    1  A    between atoms: C_1  and  C_23
REMARK    2  A    between atoms: C_7  and  O_28
REMARK    3  A    between atoms: C_15  and  O_27
REMARK                            x       y       z     vdW  Elec       q    Type
REMARK                         _______ _______ _______ _____ _____    ______ ____
ROOT
ATOM      1  C   UNL     1      -1.419  -6.312  30.509  0.00  0.00    +0.032 C 
ATOM      2  C   UNL     1      -2.608  -5.428  30.086  0.00  0.00    +0.005 C 
ATOM      3  C   UNL     1      -2.121  -4.053  29.718  0.00  0.00    +0.005 C 
ATOM      4  C   UNL     1      -0.608  -3.955  29.731  0.00  0.00    +0.026 C 
ATOM      5  C   UNL     1      -0.118  -5.098  28.929  0.00  0.00    -0.023 C 
ATOM      6  C   UNL     1      -0.565  -6.373  29.316  0.00  0.00    +0.008 C 
ATOM      7  C   UNL     1      -0.222  -7.509  28.639  0.00  0.00    +0.132 C 
ATOM      8  C   UNL     1       0.617  -7.348  27.521  0.00  0.00    +0.075 C 
ATOM      9  C   UNL     1       1.074  -6.097  27.120  0.00  0.00    +0.045 C 
ATOM     10  C   UNL     1       0.693  -4.964  27.842  0.00  0.00    -0.001 C 
ATOM     11  C   UNL     1       1.937  -5.983  25.961  0.00  0.00    +0.196 C 
ATOM     12  O   UNL     1       2.338  -4.846  25.617  0.00  0.00    -0.287 OA
ATOM     13  C   UNL     1       2.308  -7.192  25.238  0.00  0.00    +0.045 C 
ATOM     14  C   UNL     1       1.863  -8.437  25.623  0.00  0.00    +0.076 C 
ATOM     15  C   UNL     1       2.224  -9.578  24.925  0.00  0.00    +0.137 C 
ATOM     16  C   UNL     1       3.044  -9.444  23.830  0.00  0.00    +0.037 C 
ATOM     17  C   UNL     1       3.493  -8.210  23.436  0.00  0.00    +0.003 C 
ATOM     18  C   UNL     1       3.134  -7.075  24.129  0.00  0.00    +0.003 C 
ATOM     19  C   UNL     1       0.988  -8.553  26.797  0.00  0.00    +0.202 C 
ATOM     20  O   UNL     1       0.601  -9.692  27.123  0.00  0.00    -0.286 OA
ENDROOT
BRANCH   1  23
ATOM     21  C   UNL     1      -1.488  -7.670  33.553  0.00  0.00    +0.008 C 
ATOM     22  C   UNL     1      -0.933  -8.071  32.208  0.00  0.00    +0.008 C 
ATOM     23  C   UNL     1      -1.848  -7.556  31.162  0.00  0.00    +0.062 C 
ATOM     24  C   UNL     1      -3.118  -7.294  31.881  0.00  0.00    +0.151 C 
ATOM     25  O   UNL     1      -4.267  -7.417  31.526  0.00  0.00    -0.296 OA
ATOM     26  C   UNL     1      -2.699  -6.809  33.234  0.00  0.00    +0.065 C 
ENDBRANCH   1  23
BRANCH  15  27
ATOM     27  O   UNL     1       1.749 -10.810  25.356  0.00  0.00    -0.505 OA
ATOM     28  H   UNL     1       1.192 -10.860  26.107  0.00  0.00    +0.292 HD
ENDBRANCH  15  27
BRANCH   7  29
ATOM     29  O   UNL     1      -0.705  -8.678  29.082  0.00  0.00    -0.506 OA
ATOM     30  H   UNL     1      -1.260  -8.700  29.837  0.00  0.00    +0.292 HD
ENDBRANCH   7  29
TORSDOF 3
