REMARK  Name = =
REMARK  4 active torsions:
REMARK  status: ('A' for Active; 'I' for Inactive)
REMARK    1  A    between atoms: C_1  and  C_31
REMARK    2  A    between atoms: C_4  and  C_21
REMARK    3  A    between atoms: C_7  and  O_36
REMARK    4  A    between atoms: C_15  and  O_35
REMARK                            x       y       z     vdW  Elec       q    Type
REMARK                         _______ _______ _______ _____ _____    ______ ____
ROOT
ATOM      1  C   UNL     1       0.953  -3.457  27.936  0.00  0.00    +0.032 C 
ATOM      2  C   UNL     1       1.505  -2.324  28.791  0.00  0.00    +0.006 C 
ATOM      3  C   UNL     1       2.497  -1.602  27.882  0.00  0.00    +0.014 C 
ATOM      4  C   UNL     1       3.675  -2.518  27.761  0.00  0.00    +0.099 C 
ATOM      5  C   UNL     1       3.302  -3.967  27.676  0.00  0.00    -0.015 C 
ATOM      6  C   UNL     1       2.009  -4.434  27.759  0.00  0.00    +0.008 C 
ATOM      7  C   UNL     1       1.830  -5.820  27.659  0.00  0.00    +0.132 C 
ATOM      8  C   UNL     1       2.893  -6.690  27.483  0.00  0.00    +0.075 C 
ATOM      9  C   UNL     1       4.176  -6.185  27.403  0.00  0.00    +0.045 C 
ATOM     10  C   UNL     1       4.364  -4.824  27.501  0.00  0.00    -0.001 C 
ATOM     11  C   UNL     1       5.278  -7.102  27.220  0.00  0.00    +0.196 C 
ATOM     12  O   UNL     1       6.457  -6.655  27.145  0.00  0.00    -0.287 OA
ATOM     13  C   UNL     1       5.080  -8.542  27.117  0.00  0.00    +0.045 C 
ATOM     14  C   UNL     1       3.806  -9.063  27.195  0.00  0.00    +0.076 C 
ATOM     15  C   UNL     1       3.554 -10.431  27.103  0.00  0.00    +0.137 C 
ATOM     16  C   UNL     1       4.669 -11.273  26.927  0.00  0.00    +0.037 C 
ATOM     17  C   UNL     1       5.924 -10.738  26.851  0.00  0.00    +0.003 C 
ATOM     18  C   UNL     1       6.169  -9.388  26.942  0.00  0.00    +0.003 C 
ATOM     19  C   UNL     1       2.679  -8.133  27.382  0.00  0.00    +0.202 C 
ATOM     20  O   UNL     1       1.534  -8.602  27.452  0.00  0.00    -0.286 OA
ENDROOT
BRANCH   4  21
ATOM     21  C   UNL     1       4.680  -2.127  26.774  0.00  0.00    +0.229 C 
ATOM     22  O   UNL     1       5.911  -2.118  27.156  0.00  0.00    -0.275 OA
ATOM     23  N   UNL     1       4.458  -1.753  25.432  0.00  0.00    -0.276 N 
ATOM     24  C   UNL     1       5.543  -1.376  24.549  0.00  0.00    +0.110 C 
ATOM     25  C   UNL     1       5.033  -1.335  23.110  0.00  0.00    +0.090 C 
ATOM     26  N   UNL     1       3.906  -0.458  22.971  0.00  0.00    -0.295 NA
ATOM     27  C   UNL     1       3.043  -0.392  24.109  0.00  0.00    +0.090 C 
ATOM     28  C   UNL     1       3.141  -1.728  24.857  0.00  0.00    +0.110 C 
ATOM     29  H   UNL     1       3.354  -0.777  22.174  0.00  0.00    +0.123 HD
ENDBRANCH   4  21
BRANCH   1  32
ATOM     30  C   UNL     1      -2.110  -3.492  30.013  0.00  0.00    +0.008 C 
ATOM     31  C   UNL     1      -0.603  -3.227  29.880  0.00  0.00    +0.008 C 
ATOM     32  C   UNL     1      -0.328  -3.851  28.544  0.00  0.00    +0.062 C 
ATOM     33  C   UNL     1      -1.443  -3.305  27.723  0.00  0.00    +0.151 C 
ATOM     34  O   UNL     1      -1.404  -2.924  26.572  0.00  0.00    -0.296 OA
ATOM     35  C   UNL     1      -2.640  -3.317  28.604  0.00  0.00    +0.065 C 
ENDBRANCH   1  32
BRANCH  15  36
ATOM     36  O   UNL     1       2.326 -11.007  27.173  0.00  0.00    -0.505 OA
ATOM     37  H   UNL     1       1.564 -10.474  27.290  0.00  0.00    +0.292 HD
ENDBRANCH  15  36
BRANCH   7  38
ATOM     38  O   UNL     1       0.572  -6.254  27.741  0.00  0.00    -0.506 OA
ATOM     39  H   UNL     1      -0.128  -5.642  27.860  0.00  0.00    +0.292 HD
ENDBRANCH   7  38
TORSDOF 4
