REMARK  Name = =
REMARK  4 active torsions:
REMARK  status: ('A' for Active; 'I' for Inactive)
REMARK    1  A    between atoms: N_1  and  C_7
REMARK    2  A    between atoms: C_2  and  N_25
REMARK    3  A    between atoms: N_25  and  C_26
REMARK    4  A    between atoms: C_26  and  O_28
REMARK                            x       y       z     vdW  Elec       q    Type
REMARK                         _______ _______ _______ _____ _____    ______ ____
ROOT
ATOM      1  C   UNL     1      50.348 158.303  31.094  0.00  0.00    +0.081 C 
ATOM      2  C   UNL     1      48.990 158.440  31.651  0.00  0.00    +0.021 C 
ATOM      3  C   UNL     1      48.736 159.765  32.345  0.00  0.00    +0.006 C 
ATOM      4  C   UNL     1      48.994 160.900  31.343  0.00  0.00    +0.026 C 
ATOM      5  C   UNL     1      50.489 160.836  31.156  0.00  0.00    -0.025 C 
ATOM      6  C   UNL     1      51.091 159.626  31.053  0.00  0.00    -0.012 C 
ATOM      7  C   UNL     1      52.459 159.569  30.901  0.00  0.00    -0.008 C 
ATOM      8  C   UNL     1      53.222 160.713  30.851  0.00  0.00    -0.022 C 
ATOM      9  C   UNL     1      52.597 161.940  30.956  0.00  0.00    -0.022 C 
ATOM     10  C   UNL     1      51.228 161.992  31.109  0.00  0.00    -0.009 C 
ATOM     11  C   UNL     1      53.420 163.181  30.902  0.00  0.00    +0.052 C 
ATOM     12  C   UNL     1      54.661 162.914  31.699  0.00  0.00    -0.021 C 
ATOM     13  C   UNL     1      55.320 161.701  31.615  0.00  0.00    -0.021 C 
ATOM     14  C   UNL     1      56.462 161.452  32.346  0.00  0.00    -0.004 C 
ATOM     15  C   UNL     1      56.999 162.405  33.197  0.00  0.00    -0.000 C 
ATOM     16  C   UNL     1      56.338 163.617  33.279  0.00  0.00    -0.000 C 
ATOM     17  C   UNL     1      55.182 163.877  32.543  0.00  0.00    -0.004 C 
ATOM     18  C   UNL     1      54.712 160.702  30.692  0.00  0.00    +0.052 C 
ENDROOT
BRANCH   1  19
ATOM     19  N   UNL     1      50.527 157.568  29.898  0.00  0.00    -0.252 NA
ATOM     20  C   UNL     1      51.111 156.282  29.973  0.00  0.00    +0.171 C 
ATOM     21  C   UNL     1      50.084 155.250  30.335  0.00  0.00    +0.108 C 
ATOM     22  N   UNL     1      48.933 155.355  29.557  0.00  0.00    -0.294 NA
ATOM     23  C   UNL     1      48.504 156.543  28.975  0.00  0.00    +0.086 C 
ATOM     24  C   UNL     1      49.474 157.685  28.934  0.00  0.00    +0.091 C 
ATOM     25  H   UNL     1      48.165 155.043  30.152  0.00  0.00    +0.123 HD
BRANCH  20  26
ATOM     26  N   UNL     1      51.746 155.851  28.737  0.00  0.00    -0.183 NA
BRANCH  26  27
ATOM     27  C   UNL     1      52.702 156.558  28.008  0.00  0.00    +0.247 C 
ATOM     28  S   UNL     1      53.439 157.898  28.567  0.00  0.00    +0.007 S 
BRANCH  27  29
ATOM     29  O   UNL     1      53.076 156.135  26.741  0.00  0.00    -0.489 OA
ATOM     30  H   UNL     1      53.719 156.615  26.258  0.00  0.00    +0.294 HD
ENDBRANCH  27  29
ENDBRANCH  26  27
ENDBRANCH  20  26
ENDBRANCH   1  19
TORSDOF 4
REMARK  Name = =
REMARK  4 active torsions:
REMARK  status: ('A' for Active; 'I' for Inactive)
REMARK    1  A    between atoms: N_1  and  C_7
REMARK    2  A    between atoms: C_2  and  N_25
REMARK    3  A    between atoms: N_25  and  C_26
REMARK    4  A    between atoms: C_26  and  O_28
REMARK                            x       y       z     vdW  Elec       q    Type
REMARK                         _______ _______ _______ _____ _____    ______ ____
ROOT
ATOM      1  I   UNL     1      51.161 153.972  27.997  0.00  0.00    -0.107 I 
ATOM      2  H   UNL     1      52.722 153.972  27.997  0.00  0.00    +0.107 HD
ENDROOT
TORSDOF 0
REMARK  Name = =
REMARK  4 active torsions:
REMARK  status: ('A' for Active; 'I' for Inactive)
REMARK    1  A    between atoms: N_1  and  C_7
REMARK    2  A    between atoms: C_2  and  N_25
REMARK    3  A    between atoms: N_25  and  C_26
REMARK    4  A    between atoms: C_26  and  O_28
REMARK                            x       y       z     vdW  Elec       q    Type
REMARK                         _______ _______ _______ _____ _____    ______ ____
ROOT
ATOM      1  C   UNL     1      52.661 153.347  26.683  0.00  0.00    +0.000 C 
ATOM      2  C   UNL     1      53.922 153.124  27.163  0.00  0.00    +0.000 C 
ATOM      3  C   UNL     1      54.907 152.711  26.289  0.00  0.00    +0.000 C 
ATOM      4  C   UNL     1      54.647 152.521  24.957  0.00  0.00    +0.000 C 
ATOM      5  C   UNL     1      53.377 152.746  24.473  0.00  0.00    +0.000 C 
ATOM      6  C   UNL     1      52.402 153.157  25.351  0.00  0.00    +0.000 C 
ENDROOT
TORSDOF 0
