REMARK  Name = =
REMARK  2 active torsions:
REMARK  status: ('A' for Active; 'I' for Inactive)
REMARK    1  A    between atoms: C_1  and  C_8
REMARK    2  A    between atoms: N_7  and  N_9
REMARK                            x       y       z     vdW  Elec       q    Type
REMARK                         _______ _______ _______ _____ _____    ______ ____
ROOT
ATOM      1  C   UNL     1      52.698 155.789  26.858  0.00  0.00    +0.059 C 
ATOM      2  C   UNL     1      52.384 154.549  26.332  0.00  0.00    +0.104 C 
ATOM      3  N   UNL     1      52.911 154.133  25.165  0.00  0.00    -0.222 NA
ATOM      4  C   UNL     1      53.763 154.897  24.458  0.00  0.00    +0.199 C 
ATOM      5  N   UNL     1      54.066 156.102  24.972  0.00  0.00    -0.222 NA
ATOM      6  C   UNL     1      53.571 156.568  26.129  0.00  0.00    +0.104 C 
ENDROOT
BRANCH   1   8
ATOM      7  N   UNL     1      51.642 155.462  28.989  0.00  0.00    -0.187 NA
ATOM      8  C   UNL     1      52.139 156.239  28.102  0.00  0.00    +0.120 C 
BRANCH   7   9
ATOM      9  N   UNL     1      51.103 155.886  30.189  0.00  0.00    -0.282 N 
ATOM     10  H   UNL     1      50.738 155.228  30.824  0.00  0.00    +0.164 HD
ATOM     11  H   UNL     1      51.084 156.846  30.408  0.00  0.00    +0.164 HD
ENDBRANCH   7   9
ENDBRANCH   1   8
TORSDOF 2
