REMARK  Name = =
REMARK  4 active torsions:
REMARK  status: ('A' for Active; 'I' for Inactive)
REMARK    1  A    between atoms: N_1  and  N_2
REMARK    2  A    between atoms: N_1  and  N_6
REMARK    3  A    between atoms: N_2  and  N_5
REMARK    4  A    between atoms: C_7  and  C_8
REMARK                            x       y       z     vdW  Elec       q    Type
REMARK                         _______ _______ _______ _____ _____    ______ ____
ROOT
ATOM      1  N   UNL     1      55.153 154.764  25.357  0.00  0.00    -0.185 N 
ATOM      2  H   UNL     1      55.955 154.206  25.479  0.00  0.00    +0.191 HD
ENDROOT
BRANCH   1   3
ATOM      3  N   UNL     1      54.807 155.215  24.084  0.00  0.00    -0.145 NA
ATOM      4  H   UNL     1      55.637 155.255  23.492  0.00  0.00    +0.169 HD
BRANCH   3   7
ATOM      5  C   UNL     1      52.852 156.620  24.362  0.00  0.00    +0.315 C 
ATOM      6  O   UNL     1      52.151 155.579  24.363  0.00  0.00    -0.264 OA
ATOM      7  N   UNL     1      54.259 156.490  24.220  0.00  0.00    -0.226 N 
ATOM      8  H   UNL     1      54.838 157.286  24.218  0.00  0.00    +0.171 HD
ENDBRANCH   3   7
ENDBRANCH   1   3
BRANCH   1   9
ATOM      9  N   UNL     1      54.365 155.101  26.459  0.00  0.00    -0.168 NA
ATOM     10  C   UNL     1      53.346 154.389  26.766  0.00  0.00    +0.122 C 
BRANCH  10  11
ATOM     11  C   UNL     1      52.495 154.709  27.909  0.00  0.00    +0.059 C 
ATOM     12  C   UNL     1      52.110 156.011  28.168  0.00  0.00    +0.104 C 
ATOM     13  N   UNL     1      51.336 156.276  29.233  0.00  0.00    -0.222 NA
ATOM     14  C   UNL     1      50.899 155.341  30.085  0.00  0.00    +0.199 C 
ATOM     15  N   UNL     1      51.266 154.075  29.849  0.00  0.00    -0.222 NA
ATOM     16  C   UNL     1      52.042 153.752  28.793  0.00  0.00    +0.104 C 
ENDBRANCH  10  11
ENDBRANCH   1   9
TORSDOF 4
