MODEL 1
REMARK VINA RESULT:     0.726      0.000      0.000
REMARK INTER + INTRA:           5.155
REMARK INTER:                   1.130
REMARK INTRA:                   4.025
REMARK UNBOUND:                 4.025
REMARK  Name = =
REMARK  11 active torsions:
REMARK  status: ('A' for Active; 'I' for Inactive)
REMARK    1  A    between atoms: C_1  and  C_6
REMARK    2  A    between atoms: C_1  and  C_33
REMARK    3  A    between atoms: C_3  and  C_20
REMARK    4  A    between atoms: C_6  and  C_12
REMARK    5  A    between atoms: C_12  and  C_14
REMARK    6  A    between atoms: C_21  and  O_32
REMARK    7  A    between atoms: C_25  and  C_26
REMARK    8  A    between atoms: C_33  and  C_35
REMARK    9  A    between atoms: C_35  and  O_37
REMARK   10  A    between atoms: O_37  and  N_38
REMARK   11  A    between atoms: N_41  and  C_42
REMARK                            x       y       z     vdW  Elec       q    Type
REMARK                         _______ _______ _______ _____ _____    ______ ____
ROOT
ATOM      1  C   UNL     1      51.214 158.902  29.799  0.00  0.00    +0.046 C 
ATOM      2  C   UNL     1      51.470 157.443  29.848  0.00  0.00    +0.008 C 
ATOM      3  C   UNL     1      51.773 156.904  28.696  0.00  0.00    +0.025 C 
ATOM      4  C   UNL     1      51.851 158.033  27.736  0.00  0.00    +0.005 C 
ATOM      5  C   UNL     1      50.812 158.975  28.280  0.00  0.00    +0.004 C 
ENDROOT
BRANCH   1   6
ATOM      6  C   UNL     1      50.007 159.340  30.604  0.00  0.00    +0.061 C 
ATOM      7  C   UNL     1      48.954 160.052  29.852  0.00  0.00    +0.076 C 
ATOM      8  C   UNL     1      47.705 159.297  30.032  0.00  0.00    +0.173 C 
ATOM      9  O   UNL     1      46.510 159.590  29.704  0.00  0.00    -0.291 OA
ATOM     10  C   UNL     1      48.048 158.057  30.701  0.00  0.00    +0.033 C 
ATOM     11  C   UNL     1      49.310 158.046  31.033  0.00  0.00    -0.021 C 
BRANCH   6  12
ATOM     12  C   UNL     1      50.424 160.049  31.809  0.00  0.00    +0.178 C 
ATOM     13  O   UNL     1      51.675 159.927  32.106  0.00  0.00    -0.218 OA
BRANCH  12  14
ATOM     14  C   UNL     1      49.625 160.872  32.692  0.00  0.00    +0.008 C 
ATOM     15  C   UNL     1      49.035 161.990  32.097  0.00  0.00    -0.002 C 
ATOM     16  C   UNL     1      48.255 162.834  32.843  0.00  0.00    -0.000 C 
ATOM     17  C   UNL     1      48.057 162.576  34.210  0.00  0.00    -0.000 C 
ATOM     18  C   UNL     1      48.629 161.494  34.786  0.00  0.00    -0.000 C 
ATOM     19  C   UNL     1      49.412 160.643  34.028  0.00  0.00    -0.002 C 
ENDBRANCH  12  14
ENDBRANCH   6  12
ENDBRANCH   1   6
BRANCH   3  20
ATOM     20  C   UNL     1      52.079 155.482  28.382  0.00  0.00    +0.008 C 
ATOM     21  C   UNL     1      51.857 154.532  29.383  0.00  0.00    +0.129 C 
ATOM     22  C   UNL     1      52.138 153.182  29.181  0.00  0.00    +0.036 C 
ATOM     23  C   UNL     1      52.639 152.771  27.987  0.00  0.00    +0.003 C 
ATOM     24  C   UNL     1      52.853 153.705  26.997  0.00  0.00    -0.003 C 
ATOM     25  C   UNL     1      52.564 155.095  27.197  0.00  0.00    -0.005 C 
BRANCH  25  26
ATOM     26  C   UNL     1      52.667 155.955  25.995  0.00  0.00    +0.147 C 
ATOM     27  S   UNL     1      52.458 154.928  24.442  0.00  0.00    -0.106 S 
ATOM     28  C   UNL     1      54.136 154.231  24.539  0.00  0.00    +0.150 C 
ATOM     29  N   UNL     1      54.828 155.432  24.954  0.00  0.00    -0.294 N 
ATOM     30  C   UNL     1      54.122 156.306  25.742  0.00  0.00    +0.237 C 
ATOM     31  O   UNL     1      54.614 157.344  26.249  0.00  0.00    -0.274 OA
ATOM     32  H   UNL     1      55.757 155.614  24.684  0.00  0.00    +0.150 HD
ENDBRANCH  25  26
BRANCH  21  33
ATOM     33  O   UNL     1      51.370 154.880  30.583  0.00  0.00    -0.506 OA
ATOM     34  H   UNL     1      50.979 154.232  31.136  0.00  0.00    +0.292 HD
ENDBRANCH  21  33
ENDBRANCH   3  20
BRANCH   1  35
ATOM     35  C   UNL     1      52.324 159.783  29.933  0.00  0.00    +0.252 C 
ATOM     36  O   UNL     1      53.497 159.159  29.931  0.00  0.00    -0.211 OA
BRANCH  35  37
ATOM     37  C   UNL     1      52.397 161.239  30.079  0.00  0.00    +0.369 C 
ATOM     38  O   UNL     1      51.489 162.041  29.857  0.00  0.00    -0.245 OA
BRANCH  37  39
ATOM     39  O   UNL     1      53.595 161.762  30.516  0.00  0.00    -0.343 OA
BRANCH  39  40
ATOM     40  N   UNL     1      54.079 161.927  31.699  0.00  0.00    -0.128 N 
ATOM     41  C   UNL     1      55.599 161.904  31.863  0.00  0.00    +0.334 C 
ATOM     42  O   UNL     1      56.230 161.822  30.921  0.00  0.00    -0.250 OA
ATOM     43  N   UNL     1      55.798 161.984  33.282  0.00  0.00    -0.259 N 
ATOM     44  H   UNL     1      53.488 162.063  32.474  0.00  0.00    +0.198 HD
ATOM     45  H   UNL     1      55.177 162.114  34.035  0.00  0.00    +0.153 HD
BRANCH  43  46
ATOM     46  C   UNL     1      57.532 161.771  33.202  0.00  0.00    +0.278 C 
ATOM     47  O   UNL     1      58.042 161.740  34.239  0.00  0.00    -0.196 OA
ENDBRANCH  43  46
ENDBRANCH  39  40
ENDBRANCH  37  39
ENDBRANCH  35  37
ENDBRANCH   1  35
TORSDOF 11
ENDMDL
