MODEL 1
REMARK VINA RESULT:    -8.937      0.000      0.000
REMARK INTER + INTRA:         -10.932
REMARK INTER:                 -10.505
REMARK INTRA:                  -0.427
REMARK UNBOUND:                -0.427
REMARK  Name = =
REMARK  3 active torsions:
REMARK  status: ('A' for Active; 'I' for Inactive)
REMARK    1  A    between atoms: N_1  and  S_17
REMARK    2  A    between atoms: C_4  and  C_7
REMARK    3  A    between atoms: S_17  and  N_20
REMARK                            x       y       z     vdW  Elec       q    Type
REMARK                         _______ _______ _______ _____ _____    ______ ____
ROOT
ATOM      1  N   UNL     1      50.881 158.048  30.047  0.00  0.00    -0.069 NA
ATOM      2  N   UNL     1      52.214 158.340  29.753  0.00  0.00    -0.125 NA
ATOM      3  C   UNL     1      52.792 157.642  28.839  0.00  0.00    +0.114 C 
ATOM      4  C   UNL     1      51.911 156.602  28.225  0.00  0.00    +0.043 C 
ATOM      5  C   UNL     1      51.291 155.796  29.317  0.00  0.00    +0.027 C 
ATOM      6  C   UNL     1      50.574 156.660  30.314  0.00  0.00    +0.117 C 
ENDROOT
BRANCH   4   7
ATOM      7  C   UNL     1      52.534 155.838  27.158  0.00  0.00    -0.021 C 
ATOM      8  C   UNL     1      53.172 156.490  26.118  0.00  0.00    -0.003 C 
ATOM      9  C   UNL     1      53.770 155.787  25.084  0.00  0.00    +0.019 C 
ATOM     10  C   UNL     1      53.749 154.409  25.053  0.00  0.00    +0.081 C 
ATOM     11  C   UNL     1      53.104 153.755  26.104  0.00  0.00    +0.017 C 
ATOM     12  C   UNL     1      52.523 154.462  27.108  0.00  0.00    -0.003 C 
ATOM     13  C   UNL     1      53.056 152.384  26.115  0.00  0.00    +0.003 C 
ATOM     14  C   UNL     1      53.651 151.690  25.083  0.00  0.00    +0.021 C 
ATOM     15  C   UNL     1      54.290 152.327  24.044  0.00  0.00    +0.099 C 
ATOM     16  N   UNL     1      54.311 153.678  24.077  0.00  0.00    -0.244 NA
ENDBRANCH   4   7
BRANCH   1  17
ATOM     17  S   UNL     1      49.605 159.186  30.148  0.00  0.00    +0.129 S 
ATOM     18  O   UNL     1      48.302 158.449  29.906  0.00  0.00    -0.137 OA
ATOM     19  O   UNL     1      49.768 160.232  29.077  0.00  0.00    -0.137 OA
BRANCH  17  20
ATOM     20  N   UNL     1      49.546 159.968  31.679  0.00  0.00    -0.166 N 
ATOM     21  C   UNL     1      50.526 160.857  32.153  0.00  0.00    +0.320 C 
ATOM     22  O   UNL     1      51.519 161.116  31.428  0.00  0.00    -0.263 OA
ATOM     23  H   UNL     1      48.775 159.779  32.262  0.00  0.00    +0.178 HD
ENDBRANCH  17  20
ENDBRANCH   1  17
TORSDOF 3
ENDMDL
