MODEL 1
REMARK VINA RESULT:    -7.879      0.000      0.000
REMARK INTER + INTRA:         -14.366
REMARK INTER:                 -12.946
REMARK INTRA:                  -1.420
REMARK UNBOUND:                -1.420
REMARK  Name = =
REMARK  13 active torsions:
REMARK  status: ('A' for Active; 'I' for Inactive)
REMARK    1  A    between atoms: N_1  and  N_2
REMARK    2  A    between atoms: N_1  and  N_15
REMARK    3  A    between atoms: N_1  and  N_31
REMARK    4  A    between atoms: C_7  and  C_10
REMARK    5  A    between atoms: N_12  and  N_13
REMARK    6  A    between atoms: C_16  and  O_21
REMARK    7  A    between atoms: O_21  and  C_22
REMARK    8  A    between atoms: C_26  and  O_30
REMARK    9  A    between atoms: N_31  and  C_34
REMARK   10  A    between atoms: C_32  and  O_40
REMARK   11  A    between atoms: C_34  and  P_36
REMARK   12  A    between atoms: P_36  and  O_38
REMARK   13  A    between atoms: P_36  and  O_39
REMARK                            x       y       z     vdW  Elec       q    Type
REMARK                         _______ _______ _______ _____ _____    ______ ____
ROOT
ATOM      1  N   UNL     1       0.213  -5.720  29.498  0.00  0.00    -0.053 NA
ENDROOT
BRANCH   1   2
ATOM      2  N   UNL     1      -0.256  -6.708  30.347  0.00  0.00    -0.192 N 
ATOM      3  C   UNL     1      -1.458  -7.361  29.962  0.00  0.00    +0.241 C 
ATOM      4  O   UNL     1      -2.047  -6.961  28.899  0.00  0.00    -0.273 OA
ATOM      5  C   UNL     1      -2.215  -8.499  30.600  0.00  0.00    +0.087 C 
ATOM      6  C   UNL     1      -1.490  -9.013  31.801  0.00  0.00    +0.019 C 
ATOM      7  C   UNL     1      -1.369  -7.998  32.889  0.00  0.00    +0.080 C 
ATOM      8  C   UNL     1      -0.165  -7.126  32.807  0.00  0.00    +0.032 C 
ATOM      9  C   UNL     1       0.525  -6.984  31.514  0.00  0.00    +0.115 C 
BRANCH   7  10
ATOM     10  C   UNL     1      -2.605  -7.222  33.132  0.00  0.00    +0.241 C 
ATOM     11  O   UNL     1      -3.640  -7.843  33.477  0.00  0.00    -0.273 OA
ATOM     12  N   UNL     1      -2.737  -5.815  33.011  0.00  0.00    -0.206 N 
ATOM     13  H   UNL     1      -1.950  -5.285  32.748  0.00  0.00    +0.177 HD
BRANCH  12  14
ATOM     14  N   UNL     1      -3.943  -5.159  33.250  0.00  0.00    -0.176 NA
ATOM     15  C   UNL     1      -4.224  -3.949  33.075  0.00  0.00    +0.140 C 
ENDBRANCH  12  14
ENDBRANCH   7  10
ENDBRANCH   1   2
BRANCH   1  16
ATOM     16  N   UNL     1      -0.183  -4.477  29.610  0.00  0.00    -0.145 NA
ATOM     17  C   UNL     1      -0.240  -3.583  28.474  0.00  0.00    +0.274 C 
ATOM     18  C   UNL     1      -1.658  -3.570  27.924  0.00  0.00    +0.205 C 
ATOM     19  O   UNL     1      -2.542  -3.389  28.996  0.00  0.00    -0.347 OA
ATOM     20  C   UNL     1      -1.947  -2.959  30.151  0.00  0.00    +0.161 C 
ATOM     21  C   UNL     1      -0.958  -3.985  30.681  0.00  0.00    +0.128 C 
BRANCH  17  22
ATOM     22  O   UNL     1       0.756  -3.770  27.576  0.00  0.00    -0.456 OA
BRANCH  22  23
ATOM     23  C   UNL     1       1.541  -2.911  26.850  0.00  0.00    +0.182 C 
ATOM     24  C   UNL     1       1.291  -1.629  26.653  0.00  0.00    +0.085 C 
ATOM     25  C   UNL     1       2.160  -0.738  25.867  0.00  0.00    +0.232 C 
ATOM     26  O   UNL     1       1.841   0.454  25.733  0.00  0.00    -0.283 OA
ATOM     27  C   UNL     1       3.375  -1.293  25.270  0.00  0.00    +0.176 C 
ATOM     28  C   UNL     1       3.660  -2.555  25.443  0.00  0.00    +0.085 C 
ATOM     29  C   UNL     1       2.787  -3.421  26.220  0.00  0.00    +0.233 C 
ATOM     30  O   UNL     1       3.111  -4.623  26.349  0.00  0.00    -0.283 OA
BRANCH  27  31
ATOM     31  O   UNL     1       4.210  -0.441  24.524  0.00  0.00    -0.503 OA
ATOM     32  H   UNL     1       4.918  -0.798  24.025  0.00  0.00    +0.292 HD
ENDBRANCH  27  31
ENDBRANCH  22  23
ENDBRANCH  17  22
ENDBRANCH   1  16
BRANCH   1  33
ATOM     33  N   UNL     1       1.594  -5.819  29.233  0.00  0.00    -0.128 N 
ATOM     34  C   UNL     1       2.564  -4.954  29.776  0.00  0.00    +0.422 C 
ATOM     35  O   UNL     1       2.300  -4.020  30.595  0.00  0.00    -0.225 OA
BRANCH  33  36
ATOM     36  C   UNL     1       2.007  -6.886  28.378  0.00  0.00    +0.155 C 
ATOM     37  C   UNL     1       3.086  -7.590  28.659  0.00  0.00    +0.026 C 
BRANCH  36  38
ATOM     38  P   UNL     1       1.084  -7.292  26.911  0.00  0.00    +0.375 P 
ATOM     39  O   UNL     1       0.644  -8.724  26.987  0.00  0.00    -0.252 OA
BRANCH  38  40
ATOM     40  O   UNL     1      -0.237  -6.244  26.733  0.00  0.00    -0.320 OA
ATOM     41  H   UNL     1       0.084  -5.350  26.535  0.00  0.00    +0.220 HD
ENDBRANCH  38  40
BRANCH  38  42
ATOM     42  O   UNL     1       2.057  -7.152  25.512  0.00  0.00    -0.320 OA
ATOM     43  H   UNL     1       2.489  -8.002  25.332  0.00  0.00    +0.220 HD
ENDBRANCH  38  42
ENDBRANCH  36  38
ENDBRANCH  33  36
BRANCH  34  44
ATOM     44  O   UNL     1       3.886  -5.095  29.421  0.00  0.00    -0.465 OA
ATOM     45  H   UNL     1       4.251  -5.951  29.306  0.00  0.00    +0.297 HD
ENDBRANCH  34  44
ENDBRANCH   1  33
TORSDOF 13
ENDMDL
