MODEL 1
REMARK VINA RESULT:   -11.112      0.000      0.000
REMARK INTER + INTRA:         -15.606
REMARK INTER:                 -14.360
REMARK INTRA:                  -1.246
REMARK UNBOUND:                -1.246
REMARK  Name = =
REMARK  5 active torsions:
REMARK  status: ('A' for Active; 'I' for Inactive)
REMARK    1  A    between atoms: N_1  and  C_22
REMARK    2  A    between atoms: C_2  and  N_7
REMARK    3  A    between atoms: C_5  and  C_38
REMARK    4  A    between atoms: C_13  and  C_17
REMARK    5  A    between atoms: C_27  and  C_28
REMARK                            x       y       z     vdW  Elec       q    Type
REMARK                         _______ _______ _______ _____ _____    ______ ____
ROOT
ATOM      1  N   UNL     1      -0.324  -6.905  30.204  0.00  0.00    -0.289 N 
ATOM      2  C   UNL     1      -1.711  -7.123  30.070  0.00  0.00    +0.196 C 
ATOM      3  C   UNL     1      -1.792  -8.598  29.565  0.00  0.00    +0.186 C 
ATOM      4  O   UNL     1      -1.240  -8.661  28.288  0.00  0.00    -0.351 OA
ATOM      5  C   UNL     1       0.156  -8.484  28.459  0.00  0.00    +0.137 C 
ATOM      6  C   UNL     1       0.376  -7.090  28.874  0.00  0.00    +0.122 C 
ENDROOT
BRANCH   2   7
ATOM      7  N   UNL     1      -2.563  -7.074  31.175  0.00  0.00    -0.263 N 
ATOM      8  C   UNL     1      -3.135  -5.967  31.729  0.00  0.00    +0.077 A 
ATOM      9  C   UNL     1      -3.896  -6.432  32.809  0.00  0.00    +0.076 A 
ATOM     10  C   UNL     1      -4.649  -5.597  33.608  0.00  0.00    +0.019 C 
ATOM     11  C   UNL     1      -4.653  -4.262  33.328  0.00  0.00    +0.001 C 
ATOM     12  C   UNL     1      -3.919  -3.793  32.273  0.00  0.00    -0.003 C 
ATOM     13  C   UNL     1      -3.137  -4.607  31.433  0.00  0.00    -0.005 C 
ATOM     14  N   UNL     1      -3.744  -7.780  32.846  0.00  0.00    -0.305 N 
ATOM     15  C   UNL     1      -2.940  -8.180  31.860  0.00  0.00    +0.329 A 
ATOM     16  O   UNL     1      -2.661  -9.394  31.694  0.00  0.00    -0.246 OA
ATOM     17  H   UNL     1      -4.166  -8.376  33.506  0.00  0.00    +0.170 HD
BRANCH  13  18
ATOM     18  C   UNL     1      -2.419  -4.082  30.303  0.00  0.00    +0.024 C 
ATOM     19  C   UNL     1      -2.058  -2.646  30.287  0.00  0.00    +0.004 C 
ATOM     20  C   UNL     1      -2.102  -2.144  29.043  0.00  0.00    +0.000 C 
ATOM     21  C   UNL     1      -2.513  -3.251  28.113  0.00  0.00    +0.000 C 
ATOM     22  C   UNL     1      -3.457  -3.977  29.128  0.00  0.00    +0.004 C 
ENDBRANCH  13  18
ENDBRANCH   2   7
BRANCH   1  23
ATOM     23  C   UNL     1       0.604  -6.563  31.195  0.00  0.00    +0.049 C 
ATOM     24  C   UNL     1       0.273  -6.583  32.493  0.00  0.00    +0.129 C 
ATOM     25  N   UNL     1       1.127  -6.268  33.566  0.00  0.00    -0.327 N 
ATOM     26  C   UNL     1       2.455  -5.907  33.227  0.00  0.00    +0.058 C 
ATOM     27  C   UNL     1       2.804  -5.885  31.996  0.00  0.00    +0.020 C 
ATOM     28  C   UNL     1       1.973  -6.194  30.834  0.00  0.00    +0.048 C 
ATOM     29  H   UNL     1       0.820  -6.296  34.500  0.00  0.00    +0.147 HD
BRANCH  28  30
ATOM     30  C   UNL     1       2.071  -4.937  29.999  0.00  0.00    +0.163 C 
ATOM     31  N   UNL     1       2.977  -4.865  29.021  0.00  0.00    -0.227 NA
ATOM     32  C   UNL     1       3.157  -3.782  28.266  0.00  0.00    +0.084 C 
ATOM     33  C   UNL     1       2.384  -2.668  28.480  0.00  0.00    +0.037 C 
ATOM     34  C   UNL     1       2.565  -1.527  27.695  0.00  0.00    +0.003 C 
ATOM     35  C   UNL     1       3.508  -1.519  26.715  0.00  0.00    +0.000 C 
ATOM     36  C   UNL     1       4.289  -2.626  26.488  0.00  0.00    +0.002 C 
ATOM     37  C   UNL     1       4.100  -3.754  27.275  0.00  0.00    +0.019 C 
ATOM     38  C   UNL     1       1.446  -2.727  29.482  0.00  0.00    +0.102 C 
ATOM     39  N   UNL     1       1.314  -3.860  30.214  0.00  0.00    -0.225 NA
ENDBRANCH  28  30
ENDBRANCH   1  23
BRANCH   5  40
ATOM     40  C   UNL     1       0.923  -9.043  27.344  0.00  0.00    +0.059 C 
ATOM     41  C   UNL     1       2.334  -9.477  27.580  0.00  0.00    +0.034 C 
ATOM     42  C   UNL     1       2.548 -10.296  26.290  0.00  0.00    +0.115 C 
ATOM     43  O   UNL     1       1.351 -10.149  25.541  0.00  0.00    -0.359 OA
ATOM     44  C   UNL     1       0.415 -10.240  26.626  0.00  0.00    +0.118 C 
ATOM     45  C   UNL     1       0.820 -11.576  27.143  0.00  0.00    +0.032 C 
ATOM     46  C   UNL     1       2.294 -11.748  26.731  0.00  0.00    +0.032 C 
ENDBRANCH   5  40
TORSDOF 5
ENDMDL
