REMARK  Name = =
REMARK  2 active torsions:
REMARK  status: ('A' for Active; 'I' for Inactive)
REMARK    1  A    between atoms: C_1  and  C_18
REMARK    2  A    between atoms: N_17  and  C_22
REMARK                            x       y       z     vdW  Elec       q    Type
REMARK                         _______ _______ _______ _____ _____    ______ ____
ROOT
ATOM      1  C   UNL     1      -0.237  -4.872  29.597  0.00  0.00    +0.043 C 
ATOM      2  C   UNL     1      -1.391  -5.343  30.383  0.00  0.00    -0.022 C 
ATOM      3  C   UNL     1      -2.440  -4.446  30.474  0.00  0.00    -0.023 C 
ATOM      4  C   UNL     1      -3.540  -4.768  31.203  0.00  0.00    +0.036 C 
ATOM      5  C   UNL     1      -3.634  -6.000  31.869  0.00  0.00    +0.176 C 
ATOM      6  C   UNL     1      -2.580  -6.876  31.762  0.00  0.00    +0.176 C 
ATOM      7  C   UNL     1      -1.447  -6.574  31.024  0.00  0.00    +0.036 C 
ATOM      8  O   UNL     1      -2.936  -8.007  32.510  0.00  0.00    -0.435 OA
ATOM      9  C   UNL     1      -4.049  -7.720  33.337  0.00  0.00    +0.429 C 
ATOM     10  O   UNL     1      -4.604  -6.591  32.667  0.00  0.00    -0.435 OA
ATOM     11  C   UNL     1      -2.293  -3.200  29.677  0.00  0.00    +0.029 C 
ATOM     12  C   UNL     1      -2.016  -3.804  28.274  0.00  0.00    +0.037 C 
ATOM     13  C   UNL     1      -0.653  -4.456  28.247  0.00  0.00    +0.038 C 
ATOM     14  C   UNL     1       0.200  -3.377  27.619  0.00  0.00    +0.143 C 
ATOM     15  O   UNL     1      -0.590  -2.210  27.618  0.00  0.00    -0.354 OA
ATOM     16  C   UNL     1      -1.876  -2.654  27.330  0.00  0.00    +0.143 C 
ENDROOT
BRANCH   1  18
ATOM     17  N   UNL     1       1.569  -6.159  28.542  0.00  0.00    -0.309 N 
ATOM     18  C   UNL     1       0.957  -5.753  29.757  0.00  0.00    +0.077 C 
ATOM     19  C   UNL     1       2.002  -4.994  30.497  0.00  0.00    +0.022 C 
ATOM     20  C   UNL     1       3.268  -5.068  29.718  0.00  0.00    +0.023 C 
ATOM     21  C   UNL     1       2.732  -5.334  28.329  0.00  0.00    +0.091 C 
BRANCH  17  22
ATOM     22  C   UNL     1       1.198  -7.186  27.625  0.00  0.00    +0.049 C 
ATOM     23  C   UNL     1       1.558  -7.126  26.307  0.00  0.00    +0.034 C 
ATOM     24  C   UNL     1       1.195  -8.143  25.406  0.00  0.00    +0.083 C 
ATOM     25  N   UNL     1       1.533  -8.111  24.106  0.00  0.00    -0.244 NA
ATOM     26  C   UNL     1       1.185  -9.086  23.243  0.00  0.00    +0.099 C 
ATOM     27  C   UNL     1       0.455 -10.180  23.657  0.00  0.00    +0.021 C 
ATOM     28  C   UNL     1       0.101 -10.226  24.994  0.00  0.00    +0.003 C 
ATOM     29  C   UNL     1       0.465  -9.214  25.876  0.00  0.00    +0.018 C 
ATOM     30  C   UNL     1       0.117  -9.244  27.219  0.00  0.00    +0.003 C 
ATOM     31  C   UNL     1       0.474  -8.246  28.095  0.00  0.00    +0.015 C 
ENDBRANCH  17  22
ENDBRANCH   1  18
TORSDOF 2
