MODEL 1
REMARK VINA RESULT:    -6.344      0.000      0.000
REMARK INTER + INTRA:         -10.347
REMARK INTER:                  -9.496
REMARK INTRA:                  -0.851
REMARK UNBOUND:                -0.851
REMARK  Name = =
REMARK  11 active torsions:
REMARK  status: ('A' for Active; 'I' for Inactive)
REMARK    1  A    between atoms: C_1  and  S_16
REMARK    2  A    between atoms: C_1  and  S_38
REMARK    3  A    between atoms: C_17  and  N_23
REMARK    4  A    between atoms: C_25  and  C_28
REMARK    5  A    between atoms: C_29  and  O_37
REMARK    6  A    between atoms: C_32  and  C_34
REMARK    7  A    between atoms: C_34  and  O_36
REMARK    8  A    between atoms: S_38  and  S_39
REMARK    9  A    between atoms: S_38  and  P_40
REMARK   10  A    between atoms: P_40  and  O_42
REMARK   11  A    between atoms: P_40  and  O_43
REMARK                            x       y       z     vdW  Elec       q    Type
REMARK                         _______ _______ _______ _____ _____    ______ ____
ROOT
ATOM      1  C   UNL     1      62.917 167.204  35.931  0.00  0.00    +0.099 C 
ATOM      2  C   UNL     1      62.926 168.624  36.344  0.00  0.00    -0.006 C 
ATOM      3  C   UNL     1      63.421 169.797  35.807  0.00  0.00    -0.024 C 
ATOM      4  C   UNL     1      63.252 171.047  36.420  0.00  0.00    -0.005 C 
ATOM      5  C   UNL     1      62.574 171.167  37.607  0.00  0.00    -0.000 C 
ATOM      6  C   UNL     1      62.072 170.031  38.173  0.00  0.00    -0.000 C 
ATOM      7  C   UNL     1      62.245 168.819  37.564  0.00  0.00    -0.003 C 
ATOM      8  C   UNL     1      64.233 170.032  34.601  0.00  0.00    +0.031 C 
ATOM      9  C   UNL     1      65.498 169.191  34.826  0.00  0.00    +0.031 C 
ATOM     10  C   UNL     1      65.128 167.811  34.549  0.00  0.00    -0.024 C 
ATOM     11  C   UNL     1      64.146 167.061  34.983  0.00  0.00    -0.006 C 
ATOM     12  C   UNL     1      64.077 165.729  34.546  0.00  0.00    -0.003 C 
ATOM     13  C   UNL     1      65.020 165.199  33.669  0.00  0.00    -0.000 C 
ATOM     14  C   UNL     1      66.044 165.989  33.218  0.00  0.00    -0.000 C 
ATOM     15  C   UNL     1      66.089 167.292  33.665  0.00  0.00    -0.005 C 
ENDROOT
BRANCH   1  16
ATOM     16  S   UNL     1      63.237 166.049  37.233  0.00  0.00    -0.189 S 
ATOM     17  C   UNL     1      62.608 165.713  38.727  0.00  0.00    +0.119 C 
ATOM     18  N   UNL     1      63.551 166.308  39.670  0.00  0.00    -0.256 NA
ATOM     19  C   UNL     1      64.856 166.401  39.157  0.00  0.00    +0.084 C 
ATOM     20  C   UNL     1      65.030 166.304  37.902  0.00  0.00    +0.058 C 
ATOM     21  C   UNL     1      62.415 166.419  40.603  0.00  0.00    +0.078 C 
ATOM     22  C   UNL     1      61.473 166.368  39.388  0.00  0.00    +0.057 C 
ATOM     23  H   UNL     1      62.655 165.128  36.420  0.00  0.00    +0.087 HD
BRANCH  17  24
ATOM     24  N   UNL     1      62.598 164.294  39.164  0.00  0.00    -0.256 NA
ATOM     25  C   UNL     1      61.313 163.744  39.375  0.00  0.00    +0.078 C 
ATOM     26  C   UNL     1      61.524 162.303  39.093  0.00  0.00    +0.043 C 
ATOM     27  C   UNL     1      62.735 162.129  38.563  0.00  0.00    +0.023 C 
ATOM     28  C   UNL     1      63.442 163.448  38.447  0.00  0.00    +0.074 C 
BRANCH  26  29
ATOM     29  C   UNL     1      60.643 161.147  39.324  0.00  0.00    +0.013 C 
ATOM     30  C   UNL     1      59.851 160.583  38.359  0.00  0.00    +0.130 C 
ATOM     31  C   UNL     1      59.021 159.487  38.696  0.00  0.00    +0.036 C 
ATOM     32  C   UNL     1      58.969 158.956  39.947  0.00  0.00    +0.010 C 
ATOM     33  C   UNL     1      59.752 159.508  40.909  0.00  0.00    +0.075 C 
ATOM     34  C   UNL     1      60.569 160.579  40.601  0.00  0.00    +0.005 C 
BRANCH  33  35
ATOM     35  C   UNL     1      59.705 158.946  42.260  0.00  0.00    +0.338 C 
ATOM     36  O   UNL     1      58.589 158.583  42.702  0.00  0.00    -0.245 OA
BRANCH  35  37
ATOM     37  O   UNL     1      60.837 158.809  43.034  0.00  0.00    -0.477 OA
ATOM     38  H   UNL     1      60.768 158.808  43.969  0.00  0.00    +0.295 HD
ENDBRANCH  35  37
ENDBRANCH  33  35
BRANCH  30  39
ATOM     39  O   UNL     1      59.779 160.976  37.079  0.00  0.00    -0.506 OA
ATOM     40  H   UNL     1      60.549 161.277  36.637  0.00  0.00    +0.292 HD
ENDBRANCH  30  39
ENDBRANCH  26  29
ENDBRANCH  17  24
ENDBRANCH   1  16
BRANCH   1  41
ATOM     41  S   UNL     1      61.637 166.752  34.879  0.00  0.00    -0.086 S 
ATOM     42  H   UNL     1      62.127 165.875  33.963  0.00  0.00    +0.105 HD
BRANCH  41  43
ATOM     43  S   UNL     1      61.049 168.280  34.135  0.00  0.00    -0.121 S 
ATOM     44  H   UNL     1      59.844 168.610  34.671  0.00  0.00    +0.113 HD
ENDBRANCH  41  43
BRANCH  41  45
ATOM     45  P   UNL     1      60.313 165.799  35.605  0.00  0.00    +0.377 P 
ATOM     46  O   UNL     1      60.654 164.329  35.661  0.00  0.00    -0.247 OA
BRANCH  45  47
ATOM     47  O   UNL     1      59.011 165.824  34.450  0.00  0.00    -0.317 OA
ATOM     48  H   UNL     1      58.164 165.877  34.919  0.00  0.00    +0.221 HD
ENDBRANCH  45  47
BRANCH  45  49
ATOM     49  O   UNL     1      59.585 166.380  37.005  0.00  0.00    -0.317 OA
ATOM     50  H   UNL     1      58.632 166.479  36.857  0.00  0.00    +0.221 HD
ENDBRANCH  45  49
ENDBRANCH  41  45
ENDBRANCH   1  41
TORSDOF 11
ENDMDL
