REMARK  Name = =
REMARK  0 active torsions:
REMARK  status: ('A' for Active; 'I' for Inactive)
REMARK                            x       y       z     vdW  Elec       q    Type
REMARK                         _______ _______ _______ _____ _____    ______ ____
ROOT
ATOM      1  C   UNL     1      51.816 155.191  28.473  0.00  0.00    +0.000 C 
ATOM      2  C   UNL     1      51.288 155.846  29.711  0.00  0.00    +0.000 C 
ATOM      3  C   UNL     1      51.529 157.329  29.536  0.00  0.00    +0.000 C 
ATOM      4  C   UNL     1      52.567 157.489  28.470  0.00  0.00    +0.000 C 
ATOM      5  C   UNL     1      52.728 156.164  27.786  0.00  0.00    +0.000 C 
ENDROOT
TORSDOF 0
