REMARK  Name = =
REMARK  1 active torsions:
REMARK  status: ('A' for Active; 'I' for Inactive)
REMARK    1  A    between atoms: C_1  and  C_15
REMARK                            x       y       z     vdW  Elec       q    Type
REMARK                         _______ _______ _______ _____ _____    ______ ____
ROOT
ATOM      1  C   UNL     1      51.334 155.379  27.445  0.00  0.00    +0.193 C 
ATOM      2  O   UNL     1      52.450 155.810  26.765  0.00  0.00    -0.329 OA
ATOM      3  C   UNL     1      53.292 154.748  26.574  0.00  0.00    +0.213 C 
ATOM      4  N   UNL     1      52.839 153.644  27.369  0.00  0.00    -0.245 N 
ATOM      5  C   UNL     1      53.534 152.378  27.267  0.00  0.00    +0.181 C 
ATOM      6  C   UNL     1      53.615 152.051  25.803  0.00  0.00    +0.246 C 
ATOM      7  O   UNL     1      53.615 150.845  25.457  0.00  0.00    -0.273 OA
ATOM      8  N   UNL     1      53.690 153.067  24.828  0.00  0.00    -0.276 N 
ATOM      9  C   UNL     1      53.415 154.439  25.117  0.00  0.00    +0.122 C 
ATOM     10  C   UNL     1      54.549 155.157  24.433  0.00  0.00    +0.026 C 
ATOM     11  C   UNL     1      54.937 154.231  23.286  0.00  0.00    +0.023 C 
ATOM     12  C   UNL     1      54.027 153.007  23.429  0.00  0.00    +0.094 C 
ATOM     13  C   UNL     1      51.728 154.137  28.111  0.00  0.00    +0.255 C 
ATOM     14  O   UNL     1      51.239 153.565  29.123  0.00  0.00    -0.272 OA
ENDROOT
BRANCH   1  15
ATOM     15  C   UNL     1      50.829 156.449  28.354  0.00  0.00    +0.036 C 
ATOM     16  C   UNL     1      49.935 155.971  29.447  0.00  0.00    +0.003 C 
ATOM     17  C   UNL     1      49.771 157.264  30.260  0.00  0.00    +0.000 C 
ATOM     18  C   UNL     1      51.105 157.971  30.125  0.00  0.00    +0.000 C 
ATOM     19  C   UNL     1      51.894 157.199  29.084  0.00  0.00    +0.003 C 
ENDBRANCH   1  15
TORSDOF 1
