REMARK  Name = =
REMARK  2 active torsions:
REMARK  status: ('A' for Active; 'I' for Inactive)
REMARK    1  A    between atoms: C_1  and  C_15
REMARK    2  A    between atoms: C_15  and  N_20
REMARK                            x       y       z     vdW  Elec       q    Type
REMARK                         _______ _______ _______ _____ _____    ______ ____
ROOT
ATOM      1  C   UNL     1      51.036 155.574  27.761  0.00  0.00    +0.206 C 
ATOM      2  O   UNL     1      51.792 156.112  26.766  0.00  0.00    -0.328 OA
ATOM      3  C   UNL     1      52.310 155.093  26.003  0.00  0.00    +0.213 C 
ATOM      4  N   UNL     1      52.270 153.876  26.817  0.00  0.00    -0.245 N 
ATOM      5  C   UNL     1      52.768 152.666  26.227  0.00  0.00    +0.181 C 
ATOM      6  C   UNL     1      54.169 152.921  25.788  0.00  0.00    +0.246 C 
ATOM      7  O   UNL     1      54.970 151.958  25.745  0.00  0.00    -0.273 OA
ATOM      8  N   UNL     1      54.546 154.239  25.436  0.00  0.00    -0.276 N 
ATOM      9  C   UNL     1      53.724 155.405  25.627  0.00  0.00    +0.122 C 
ATOM     10  C   UNL     1      53.841 156.091  24.277  0.00  0.00    +0.026 C 
ATOM     11  C   UNL     1      55.212 155.667  23.762  0.00  0.00    +0.023 C 
ATOM     12  C   UNL     1      55.771 154.726  24.833  0.00  0.00    +0.094 C 
ATOM     13  C   UNL     1      51.701 154.294  28.055  0.00  0.00    +0.256 C 
ATOM     14  O   UNL     1      51.804 153.630  29.118  0.00  0.00    -0.272 OA
ENDROOT
BRANCH   1  15
ATOM     15  C   UNL     1      50.849 156.452  28.967  0.00  0.00    +0.079 C 
ATOM     16  C   UNL     1      49.830 157.508  28.637  0.00  0.00    +0.018 C 
ATOM     17  C   UNL     1      48.724 157.412  29.649  0.00  0.00    +0.001 C 
ATOM     18  C   UNL     1      49.023 156.257  30.557  0.00  0.00    +0.001 C 
ATOM     19  C   UNL     1      50.236 155.564  30.032  0.00  0.00    +0.018 C 
BRANCH  15  20
ATOM     20  N   UNL     1      52.091 157.029  29.392  0.00  0.00    -0.270 NA
ATOM     21  C   UNL     1      52.548 158.071  28.524  0.00  0.00    +0.094 C 
ATOM     22  C   UNL     1      53.373 159.140  29.206  0.00  0.00    +0.111 C 
ATOM     23  N   UNL     1      52.565 159.696  30.271  0.00  0.00    -0.270 N 
ATOM     24  C   UNL     1      51.924 158.762  31.148  0.00  0.00    +0.111 C 
ATOM     25  C   UNL     1      52.203 157.327  30.773  0.00  0.00    +0.094 C 
ATOM     26  C   UNL     1      52.383 161.074  30.480  0.00  0.00    +0.303 C 
ATOM     27  O   UNL     1      52.939 161.888  29.718  0.00  0.00    -0.265 OA
ENDBRANCH  15  20
ENDBRANCH   1  15
TORSDOF 2
