REMARK  Name = =
REMARK  3 active torsions:
REMARK  status: ('A' for Active; 'I' for Inactive)
REMARK    1  A    between atoms: C_1  and  C_16
REMARK    2  A    between atoms: C_1  and  C_21
REMARK    3  A    between atoms: C_21  and  N_26
REMARK                            x       y       z     vdW  Elec       q    Type
REMARK                         _______ _______ _______ _____ _____    ______ ____
ROOT
ATOM      1  C   UNL     1      52.501 155.128  27.414  0.00  0.00    +0.191 C 
ATOM      2  O   UNL     1      52.333 154.729  26.067  0.00  0.00    -0.329 OA
ATOM      3  C   UNL     1      53.464 154.045  25.710  0.00  0.00    +0.213 C 
ATOM      4  N   UNL     1      54.224 153.706  26.860  0.00  0.00    -0.245 N 
ATOM      5  C   UNL     1      55.437 152.962  26.748  0.00  0.00    +0.181 C 
ATOM      6  C   UNL     1      55.415 152.061  25.586  0.00  0.00    +0.246 C 
ATOM      7  O   UNL     1      56.332 151.180  25.479  0.00  0.00    -0.273 OA
ATOM      8  N   UNL     1      54.416 152.134  24.581  0.00  0.00    -0.276 N 
ATOM      9  C   UNL     1      53.257 152.985  24.698  0.00  0.00    +0.122 C 
ATOM     10  C   UNL     1      53.226 153.618  23.298  0.00  0.00    +0.026 C 
ATOM     11  C   UNL     1      53.944 152.645  22.392  0.00  0.00    +0.023 C 
ATOM     12  C   UNL     1      54.281 151.470  23.309  0.00  0.00    +0.094 C 
ATOM     13  C   UNL     1      53.501 154.249  27.979  0.00  0.00    +0.255 C 
ATOM     14  O   UNL     1      53.781 153.938  29.155  0.00  0.00    -0.272 OA
ENDROOT
BRANCH   1  16
ATOM     15  N   UNL     1      50.853 155.448  29.246  0.00  0.00    -0.303 N 
ATOM     16  C   UNL     1      51.133 154.806  28.015  0.00  0.00    +0.107 C 
ATOM     17  C   UNL     1      50.943 153.332  28.218  0.00  0.00    +0.032 C 
ATOM     18  C   UNL     1      50.909 153.088  29.703  0.00  0.00    +0.087 C 
ATOM     19  C   UNL     1      50.930 154.451  30.268  0.00  0.00    +0.223 C 
ATOM     20  O   UNL     1      51.007 154.704  31.519  0.00  0.00    -0.275 OA
ATOM     21  H   UNL     1      50.645 156.402  29.374  0.00  0.00    +0.149 HD
ENDBRANCH   1  16
BRANCH   1  22
ATOM     22  C   UNL     1      52.768 156.605  27.384  0.00  0.00    +0.078 C 
ATOM     23  C   UNL     1      54.292 156.781  27.265  0.00  0.00    +0.018 C 
ATOM     24  C   UNL     1      54.621 157.125  25.862  0.00  0.00    +0.001 C 
ATOM     25  C   UNL     1      53.430 158.015  25.500  0.00  0.00    +0.001 C 
ATOM     26  C   UNL     1      52.306 157.171  26.055  0.00  0.00    +0.018 C 
BRANCH  22  27
ATOM     27  N   UNL     1      52.330 157.357  28.496  0.00  0.00    -0.270 NA
ATOM     28  C   UNL     1      53.260 157.807  29.452  0.00  0.00    +0.094 C 
ATOM     29  C   UNL     1      53.073 159.278  29.839  0.00  0.00    +0.111 C 
ATOM     30  N   UNL     1      51.686 159.520  30.142  0.00  0.00    -0.270 N 
ATOM     31  C   UNL     1      50.782 158.420  29.968  0.00  0.00    +0.111 C 
ATOM     32  C   UNL     1      51.031 157.878  28.546  0.00  0.00    +0.094 C 
ATOM     33  C   UNL     1      51.247 160.767  30.585  0.00  0.00    +0.303 C 
ATOM     34  O   UNL     1      50.018 160.932  30.841  0.00  0.00    -0.265 OA
ENDBRANCH  22  27
ENDBRANCH   1  22
TORSDOF 3
