REMARK  Name = =
REMARK  6 active torsions:
REMARK  status: ('A' for Active; 'I' for Inactive)
REMARK    1  A    between atoms: C_1  and  C_16
REMARK    2  A    between atoms: C_1  and  C_29
REMARK    3  A    between atoms: N_15  and  C_22
REMARK    4  A    between atoms: C_21  and  S_27
REMARK    5  A    between atoms: C_24  and  O_28
REMARK    6  A    between atoms: C_29  and  N_34
REMARK                            x       y       z     vdW  Elec       q    Type
REMARK                         _______ _______ _______ _____ _____    ______ ____
ROOT
ATOM      1  C   UNL     1      52.478 155.228  27.872  0.00  0.00    +0.191 C 
ATOM      2  O   UNL     1      53.626 155.807  27.175  0.00  0.00    -0.329 OA
ATOM      3  C   UNL     1      53.925 154.812  26.238  0.00  0.00    +0.213 C 
ATOM      4  N   UNL     1      52.669 154.376  25.715  0.00  0.00    -0.245 N 
ATOM      5  C   UNL     1      52.588 153.670  24.480  0.00  0.00    +0.181 C 
ATOM      6  C   UNL     1      53.774 153.889  23.602  0.00  0.00    +0.246 C 
ATOM      7  O   UNL     1      53.912 153.174  22.586  0.00  0.00    -0.273 OA
ATOM      8  N   UNL     1      54.731 154.888  23.907  0.00  0.00    -0.276 N 
ATOM      9  C   UNL     1      54.907 155.348  25.268  0.00  0.00    +0.122 C 
ATOM     10  C   UNL     1      54.916 156.834  25.099  0.00  0.00    +0.026 C 
ATOM     11  C   UNL     1      55.692 157.009  23.795  0.00  0.00    +0.023 C 
ATOM     12  C   UNL     1      55.677 155.646  23.116  0.00  0.00    +0.094 C 
ATOM     13  C   UNL     1      51.688 154.804  26.670  0.00  0.00    +0.255 C 
ATOM     14  O   UNL     1      50.480 154.772  26.419  0.00  0.00    -0.272 OA
ENDROOT
BRANCH   1  16
ATOM     15  N   UNL     1      52.927 152.744  27.875  0.00  0.00    -0.257 N 
ATOM     16  C   UNL     1      53.020 154.030  28.485  0.00  0.00    +0.115 C 
ATOM     17  C   UNL     1      52.719 153.804  29.959  0.00  0.00    +0.033 C 
ATOM     18  C   UNL     1      51.854 152.579  29.997  0.00  0.00    +0.087 C 
ATOM     19  C   UNL     1      52.052 151.944  28.649  0.00  0.00    +0.229 C 
ATOM     20  O   UNL     1      51.467 150.864  28.387  0.00  0.00    -0.275 OA
BRANCH  15  22
ATOM     21  C   UNL     1      53.146 151.446  25.773  0.00  0.00    +0.035 C 
ATOM     22  C   UNL     1      53.625 152.289  26.738  0.00  0.00    +0.062 C 
ATOM     23  C   UNL     1      54.946 152.724  26.568  0.00  0.00    +0.052 C 
ATOM     24  C   UNL     1      55.713 152.347  25.521  0.00  0.00    +0.135 C 
ATOM     25  C   UNL     1      55.211 151.500  24.562  0.00  0.00    +0.037 C 
ATOM     26  C   UNL     1      53.923 151.037  24.673  0.00  0.00    +0.010 C 
BRANCH  21  27
ATOM     27  S   UNL     1      51.496 150.753  25.794  0.00  0.00    -0.140 S 
ATOM     28  H   UNL     1      50.828 151.205  26.889  0.00  0.00    +0.107 HD
ENDBRANCH  21  27
BRANCH  24  29
ATOM     29  O   UNL     1      57.018 152.838  25.443  0.00  0.00    -0.505 OA
ATOM     30  H   UNL     1      57.342 153.415  26.107  0.00  0.00    +0.292 HD
ENDBRANCH  24  29
ENDBRANCH  15  22
ENDBRANCH   1  16
BRANCH   1  31
ATOM     31  C   UNL     1      51.932 156.372  28.622  0.00  0.00    +0.078 C 
ATOM     32  C   UNL     1      51.792 157.470  27.469  0.00  0.00    +0.018 C 
ATOM     33  C   UNL     1      51.679 158.729  28.283  0.00  0.00    +0.001 C 
ATOM     34  C   UNL     1      52.823 158.592  29.231  0.00  0.00    +0.001 C 
ATOM     35  C   UNL     1      53.047 157.120  29.378  0.00  0.00    +0.018 C 
BRANCH  31  36
ATOM     36  N   UNL     1      50.730 156.268  29.285  0.00  0.00    -0.270 NA
ATOM     37  C   UNL     1      49.523 155.924  28.667  0.00  0.00    +0.094 C 
ATOM     38  C   UNL     1      48.341 156.416  29.528  0.00  0.00    +0.111 C 
ATOM     39  N   UNL     1      48.667 157.647  30.196  0.00  0.00    -0.270 N 
ATOM     40  C   UNL     1      49.809 157.657  31.085  0.00  0.00    +0.111 C 
ATOM     41  C   UNL     1      50.625 156.426  30.685  0.00  0.00    +0.094 C 
ATOM     42  C   UNL     1      47.923 158.817  30.013  0.00  0.00    +0.303 C 
ATOM     43  O   UNL     1      48.213 159.887  30.597  0.00  0.00    -0.265 OA
ENDBRANCH  31  36
ENDBRANCH   1  31
TORSDOF 6
