REMARK  Name = =
REMARK  12 active torsions:
REMARK  status: ('A' for Active; 'I' for Inactive)
REMARK    1  A    between atoms: S_1  and  N_4
REMARK    2  A    between atoms: S_1  and  N_24
REMARK    3  A    between atoms: N_4  and  C_5
REMARK    4  A    between atoms: C_8  and  N_11
REMARK    5  A    between atoms: C_12  and  C_14
REMARK    6  A    between atoms: C_15  and  O_23
REMARK    7  A    between atoms: C_16  and  N_20
REMARK    8  A    between atoms: N_24  and  N_27
REMARK    9  A    between atoms: N_24  and  S_30
REMARK   10  A    between atoms: N_27  and  N_28
REMARK   11  A    between atoms: N_28  and  O_29
REMARK   12  A    between atoms: S_30  and  C_33
REMARK                            x       y       z     vdW  Elec       q    Type
REMARK                         _______ _______ _______ _____ _____    ______ ____
ROOT
ATOM      1  S   UNL     1      -8.393  -3.925  19.135  0.00  0.00    +0.148 S 
ATOM      2  O   UNL     1      -8.014  -5.316  18.684  0.00  0.00    -0.135 OA
ATOM      3  O   UNL     1      -7.724  -2.893  18.287  0.00  0.00    -0.135 OA
ENDROOT
BRANCH   1   4
ATOM      4  N   UNL     1     -10.124  -3.759  19.092  0.00  0.00    -0.203 N 
ATOM      5  H   UNL     1     -10.544  -2.893  18.886  0.00  0.00    +0.175 HD
BRANCH   4   6
ATOM      6  C   UNL     1     -10.909  -4.899  19.360  0.00  0.00    +0.066 C 
ATOM      7  C   UNL     1     -11.411  -5.713  18.370  0.00  0.00    +0.017 C 
ATOM      8  C   UNL     1     -12.159  -6.870  18.635  0.00  0.00    +0.016 C 
ATOM      9  C   UNL     1     -12.392  -7.186  19.933  0.00  0.00    +0.051 C 
ATOM     10  C   UNL     1     -11.883  -6.354  20.941  0.00  0.00    +0.016 C 
ATOM     11  C   UNL     1     -11.154  -5.228  20.675  0.00  0.00    +0.017 C 
BRANCH   9  12
ATOM     12  N   UNL     1     -13.113  -8.350  20.328  0.00  0.00    -0.280 N 
ATOM     13  C   UNL     1     -14.501  -8.452  20.449  0.00  0.00    +0.252 C 
ATOM     14  O   UNL     1     -15.203  -7.385  20.206  0.00  0.00    -0.270 OA
ATOM     15  H   UNL     1     -12.585  -9.155  20.534  0.00  0.00    +0.155 HD
BRANCH  13  16
ATOM     16  C   UNL     1     -15.203  -9.655  20.816  0.00  0.00    +0.089 C 
ATOM     17  C   UNL     1     -16.407  -9.719  21.471  0.00  0.00    +0.151 C 
ATOM     18  C   UNL     1     -16.975 -10.965  21.859  0.00  0.00    +0.085 C 
ATOM     19  C   UNL     1     -16.315 -12.120  21.574  0.00  0.00    +0.018 C 
ATOM     20  C   UNL     1     -15.085 -12.067  20.902  0.00  0.00    +0.002 C 
ATOM     21  C   UNL     1     -14.559 -10.865  20.541  0.00  0.00    +0.008 C 
BRANCH  18  22
ATOM     22  N   UNL     1     -18.220 -10.953  22.529  0.00  0.00    -0.274 N 
ATOM     23  C   UNL     1     -18.430 -10.572  23.854  0.00  0.00    +0.304 C 
ATOM     24  O   UNL     1     -17.510 -10.194  24.599  0.00  0.00    -0.265 OA
ATOM     25  H   UNL     1     -19.009 -11.239  22.014  0.00  0.00    +0.155 HD
ENDBRANCH  18  22
BRANCH  17  26
ATOM     26  O   UNL     1     -17.085  -8.576  21.752  0.00  0.00    -0.504 OA
ATOM     27  H   UNL     1     -16.727  -7.746  21.504  0.00  0.00    +0.292 HD
ENDBRANCH  17  26
ENDBRANCH  13  16
ENDBRANCH   9  12
ENDBRANCH   4   6
ENDBRANCH   1   4
BRANCH   1  28
ATOM     28  N   UNL     1      -7.927  -3.734  20.767  0.00  0.00    +0.079 NA
BRANCH  28  31
ATOM     29  C   UNL     1      -9.102  -2.747  22.648  0.00  0.00    +0.337 C 
ATOM     30  O   UNL     1      -8.920  -3.802  23.300  0.00  0.00    -0.262 OA
ATOM     31  N   UNL     1      -8.611  -2.660  21.333  0.00  0.00    -0.092 N 
BRANCH  31  32
ATOM     32  N   UNL     1      -8.812  -1.482  20.587  0.00  0.00    -0.101 NA
ATOM     33  H   UNL     1      -8.213  -0.735  20.939  0.00  0.00    +0.179 HD
BRANCH  32  34
ATOM     34  O   UNL     1     -10.108  -1.151  20.740  0.00  0.00    -0.296 OA
ATOM     35  H   UNL     1     -10.667  -1.868  20.402  0.00  0.00    +0.238 HD
ENDBRANCH  32  34
ENDBRANCH  31  32
ENDBRANCH  28  31
BRANCH  28  36
ATOM     36  S   UNL     1      -6.236  -3.438  20.940  0.00  0.00    +0.117 S 
ATOM     37  O   UNL     1      -5.555  -3.863  19.657  0.00  0.00    -0.148 OA
ATOM     38  O   UNL     1      -5.693  -4.306  22.022  0.00  0.00    -0.148 OA
BRANCH  36  39
ATOM     39  C   UNL     1      -5.892  -1.769  21.210  0.00  0.00    +0.226 C 
ATOM     40  N   UNL     1      -5.893  -0.861  20.242  0.00  0.00    -0.223 NA
ATOM     41  C   UNL     1      -5.624   0.413  20.522  0.00  0.00    +0.100 C 
ATOM     42  C   UNL     1      -5.341   0.814  21.805  0.00  0.00    +0.099 C 
ATOM     43  N   UNL     1      -5.338  -0.108  22.789  0.00  0.00    -0.239 NA
ATOM     44  C   UNL     1      -5.606  -1.381  22.516  0.00  0.00    +0.138 C 
ATOM     45  C   UNL     1      -5.073   2.156  22.017  0.00  0.00    +0.021 C 
ATOM     46  C   UNL     1      -5.084   3.079  20.998  0.00  0.00    +0.002 C 
ATOM     47  C   UNL     1      -5.369   2.659  19.721  0.00  0.00    +0.002 C 
ATOM     48  C   UNL     1      -5.637   1.343  19.481  0.00  0.00    +0.021 C 
ENDBRANCH  36  39
ENDBRANCH  28  36
ENDBRANCH   1  28
TORSDOF 12
