MODEL 1
REMARK VINA RESULT:   -10.284      0.000      0.000
REMARK INTER + INTRA:         -15.741
REMARK INTER:                 -15.695
REMARK INTRA:                  -0.046
REMARK UNBOUND:                -0.046
REMARK  Name = =
REMARK  10 active torsions:
REMARK  status: ('A' for Active; 'I' for Inactive)
REMARK    1  A    between atoms: S_1  and  C_4
REMARK    2  A    between atoms: S_1  and  N_23
REMARK    3  A    between atoms: C_7  and  O_22
REMARK    4  A    between atoms: C_9  and  C_10
REMARK    5  A    between atoms: N_23  and  C_24
REMARK    6  A    between atoms: N_23  and  O_28
REMARK    7  A    between atoms: C_24  and  C_25
REMARK    8  A    between atoms: C_25  and  O_27
REMARK    9  A    between atoms: O_28  and  C_29
REMARK   10  A    between atoms: C_30  and  C_35
REMARK                            x       y       z     vdW  Elec       q    Type
REMARK                         _______ _______ _______ _____ _____    ______ ____
ROOT
ATOM      1  S   UNL     1     -11.080 -42.751  28.561  0.00  0.00    +0.093 S 
ATOM      2  O   UNL     1     -11.827 -41.785  29.422  0.00  0.00    -0.150 OA
ATOM      3  O   UNL     1     -10.057 -42.008  27.701  0.00  0.00    -0.150 OA
ENDROOT
BRANCH   1   4
ATOM      4  C   UNL     1     -10.277 -44.011  29.484  0.00  0.00    +0.122 C 
ATOM      5  C   UNL     1      -9.741 -45.079  28.795  0.00  0.00    +0.023 C 
ATOM      6  C   UNL     1      -9.051 -46.075  29.455  0.00  0.00    +0.038 C 
ATOM      7  C   UNL     1      -8.888 -46.011  30.824  0.00  0.00    +0.133 C 
ATOM      8  C   UNL     1      -9.429 -44.937  31.497  0.00  0.00    +0.034 C 
ATOM      9  C   UNL     1     -10.117 -43.944  30.849  0.00  0.00    +0.002 C 
BRANCH   9  10
ATOM     10  C   UNL     1     -10.697 -42.854  31.590  0.00  0.00    +0.053 C 
ATOM     11  C   UNL     1      -9.961 -42.471  32.880  0.00  0.00    +0.092 C 
ATOM     12  N   UNL     1     -10.953 -41.598  33.557  0.00  0.00    -0.335 N 
ATOM     13  C   UNL     1     -12.204 -41.852  32.950  0.00  0.00    +0.026 C 
ATOM     14  C   UNL     1     -12.004 -43.134  32.223  0.00  0.00    +0.065 C 
ATOM     15  C   UNL     1     -12.884 -44.090  32.294  0.00  0.00    +0.002 C 
ATOM     16  C   UNL     1     -14.119 -43.970  33.077  0.00  0.00    +0.078 C 
ATOM     17  N   UNL     1     -14.772 -45.080  32.940  0.00  0.00    -0.244 NA
ATOM     18  C   UNL     1     -14.082 -45.997  32.103  0.00  0.00    +0.099 C 
ATOM     19  C   UNL     1     -12.957 -45.444  31.702  0.00  0.00    +0.018 C 
ATOM     20  C   UNL     1     -14.350 -42.736  33.802  0.00  0.00    +0.020 C 
ATOM     21  C   UNL     1     -13.420 -41.778  33.708  0.00  0.00    +0.012 C 
ATOM     22  H   UNL     1     -10.773 -40.963  34.288  0.00  0.00    +0.147 HD
ENDBRANCH   9  10
BRANCH   7  23
ATOM     23  O   UNL     1      -8.188 -47.032  31.440  0.00  0.00    -0.506 OA
ATOM     24  H   UNL     1      -8.641 -47.650  31.981  0.00  0.00    +0.292 HD
ENDBRANCH   7  23
ENDBRANCH   1   4
BRANCH   1  25
ATOM     25  N   UNL     1     -12.196 -43.447  27.470  0.00  0.00    +0.015 NA
BRANCH  25  26
ATOM     26  C   UNL     1     -12.662 -44.717  27.908  0.00  0.00    +0.248 C 
BRANCH  26  27
ATOM     27  C   UNL     1     -12.689 -45.736  26.836  0.00  0.00    +0.336 C 
ATOM     28  O   UNL     1     -11.809 -46.674  26.932  0.00  0.00    -0.249 OA
BRANCH  27  29
ATOM     29  O   UNL     1     -13.581 -45.722  25.785  0.00  0.00    -0.479 OA
ATOM     30  H   UNL     1     -13.600 -44.992  25.196  0.00  0.00    +0.295 HD
ENDBRANCH  27  29
ENDBRANCH  26  27
ENDBRANCH  25  26
BRANCH  25  31
ATOM     31  O   UNL     1     -13.099 -42.565  27.049  0.00  0.00    -0.379 OA
BRANCH  31  32
ATOM     32  C   UNL     1     -13.940 -42.538  25.987  0.00  0.00    +0.185 C 
ATOM     33  C   UNL     1     -15.303 -42.522  26.268  0.00  0.00    +0.118 C 
ATOM     34  N   UNL     1     -16.199 -42.494  25.279  0.00  0.00    -0.241 NA
ATOM     35  C   UNL     1     -15.846 -42.480  23.992  0.00  0.00    +0.099 C 
ATOM     36  C   UNL     1     -14.511 -42.495  23.664  0.00  0.00    +0.024 C 
ATOM     37  C   UNL     1     -13.565 -42.524  24.666  0.00  0.00    +0.043 C 
BRANCH  33  38
ATOM     38  C   UNL     1     -15.795 -42.540  27.638  0.00  0.00    +0.024 C 
ATOM     39  C   UNL     1     -15.127 -43.268  28.594  0.00  0.00    +0.022 C 
ATOM     40  C   UNL     1     -15.576 -43.303  29.910  0.00  0.00    +0.099 C 
ATOM     41  N   UNL     1     -16.682 -42.590  30.173  0.00  0.00    -0.242 NA
ATOM     42  C   UNL     1     -17.353 -41.874  29.273  0.00  0.00    +0.099 C 
ATOM     43  C   UNL     1     -16.925 -41.827  27.967  0.00  0.00    +0.022 C 
ENDBRANCH  33  38
ENDBRANCH  31  32
ENDBRANCH  25  31
ENDBRANCH   1  25
TORSDOF 10
ENDMDL
