REMARK  Name = =
REMARK  0 active torsions:
REMARK  status: ('A' for Active; 'I' for Inactive)
REMARK                            x       y       z     vdW  Elec       q    Type
REMARK                         _______ _______ _______ _____ _____    ______ ____
ROOT
ATOM      1  O   UNL     1      51.764 155.881  28.449  0.00  0.00    -0.354 OA
ATOM      2  C   UNL     1      52.671 156.909  28.299  0.00  0.00    +0.142 C 
ATOM      3  C   UNL     1      52.161 158.004  29.160  0.00  0.00    +0.035 C 
ATOM      4  C   UNL     1      51.163 157.555  29.905  0.00  0.00    +0.035 C 
ATOM      5  C   UNL     1      50.980 156.145  29.560  0.00  0.00    +0.142 C 
ENDROOT
TORSDOF 0
