REMARK  Name = =
REMARK  1 active torsions:
REMARK  status: ('A' for Active; 'I' for Inactive)
REMARK    1  A    between atoms: C_1  and  C_15
REMARK                            x       y       z     vdW  Elec       q    Type
REMARK                         _______ _______ _______ _____ _____    ______ ____
ROOT
ATOM      1  C   UNL     1      51.711 155.172  28.175  0.00  0.00    +0.005 C 
ATOM      2  C   UNL     1      51.983 155.374  26.840  0.00  0.00    -0.002 C 
ATOM      3  C   UNL     1      52.879 154.533  26.169  0.00  0.00    -0.000 C 
ATOM      4  C   UNL     1      53.508 153.494  26.806  0.00  0.00    -0.000 C 
ATOM      5  C   UNL     1      53.225 153.293  28.170  0.00  0.00    -0.000 C 
ATOM      6  C   UNL     1      52.345 154.137  28.786  0.00  0.00    -0.002 C 
ATOM      7  C   UNL     1      54.452 152.586  26.151  0.00  0.00    -0.000 C 
ATOM      8  C   UNL     1      54.696 152.857  24.731  0.00  0.00    -0.000 C 
ATOM      9  C   UNL     1      53.998 153.973  24.119  0.00  0.00    -0.000 C 
ATOM     10  C   UNL     1      53.162 154.753  24.756  0.00  0.00    -0.000 C 
ENDROOT
BRANCH   1  15
ATOM     11  O   UNL     1      51.187 157.389  28.856  0.00  0.00    -0.352 OA
ATOM     12  C   UNL     1      50.280 157.956  29.750  0.00  0.00    +0.143 C 
ATOM     13  C   UNL     1      50.381 157.022  30.891  0.00  0.00    +0.035 C 
ATOM     14  C   UNL     1      50.691 155.826  30.347  0.00  0.00    +0.037 C 
ATOM     15  C   UNL     1      50.776 156.034  28.902  0.00  0.00    +0.137 C 
ENDBRANCH   1  15
TORSDOF 1
