MODEL 1
REMARK VINA RESULT:    -9.224      0.000      0.000
REMARK INTER + INTRA:         -15.589
REMARK INTER:                 -14.077
REMARK INTRA:                  -1.512
REMARK UNBOUND:                -1.512
REMARK  Name = =
REMARK  10 active torsions:
REMARK  status: ('A' for Active; 'I' for Inactive)
REMARK    1  A    between atoms: N_1  and  C_7
REMARK    2  A    between atoms: C_2  and  C_22
REMARK    3  A    between atoms: C_5  and  N_19
REMARK    4  A    between atoms: C_14  and  S_16
REMARK    5  A    between atoms: S_16  and  S_17
REMARK    6  A    between atoms: S_16  and  S_18
REMARK    7  A    between atoms: C_22  and  C_24
REMARK    8  A    between atoms: N_25  and  S_27
REMARK    9  A    between atoms: S_27  and  N_30
REMARK   10  A    between atoms: N_30  and  C_31
REMARK                            x       y       z     vdW  Elec       q    Type
REMARK                         _______ _______ _______ _____ _____    ______ ____
ROOT
ATOM      1  N   UNL     1       2.289  -4.225  28.073  0.00  0.00    -0.263 NA
ATOM      2  C   UNL     1       2.558  -3.031  27.480  0.00  0.00    +0.155 C 
ATOM      3  C   UNL     1       4.093  -2.785  27.615  0.00  0.00    +0.168 C 
ATOM      4  O   UNL     1       4.740  -3.994  27.824  0.00  0.00    -0.338 OA
ATOM      5  C   UNL     1       4.226  -4.904  26.881  0.00  0.00    +0.192 C 
ATOM      6  C   UNL     1       2.882  -5.338  27.370  0.00  0.00    +0.120 C 
ENDROOT
BRANCH   1   7
ATOM      7  C   UNL     1       1.598  -4.562  29.198  0.00  0.00    +0.067 C 
ATOM      8  C   UNL     1       0.547  -5.653  29.090  0.00  0.00    +0.043 C 
ATOM      9  C   UNL     1       0.581  -6.382  30.375  0.00  0.00    -0.019 C 
ATOM     10  C   UNL     1       1.592  -5.874  31.144  0.00  0.00    -0.024 C 
ATOM     11  C   UNL     1       1.791  -6.430  32.410  0.00  0.00    -0.005 C 
ATOM     12  C   UNL     1       0.997  -7.446  32.857  0.00  0.00    +0.000 C 
ATOM     13  C   UNL     1      -0.020  -7.937  32.051  0.00  0.00    +0.006 C 
ATOM     14  C   UNL     1      -0.232  -7.408  30.809  0.00  0.00    +0.018 C 
ATOM     15  C   UNL     1       2.335  -4.788  30.492  0.00  0.00    +0.042 C 
BRANCH  14  16
ATOM     16  S   UNL     1      -1.509  -8.026  29.797  0.00  0.00    -0.132 S 
ATOM     17  H   UNL     1      -2.215  -6.975  29.300  0.00  0.00    +0.108 HD
BRANCH  16  18
ATOM     18  S   UNL     1      -2.546  -9.126  30.504  0.00  0.00    -0.119 S 
ATOM     19  H   UNL     1      -3.290  -9.732  29.541  0.00  0.00    +0.113 HD
ENDBRANCH  16  18
BRANCH  16  20
ATOM     20  S   UNL     1      -0.605  -9.135  28.843  0.00  0.00    -0.119 S 
ATOM     21  H   UNL     1       0.666  -8.675  28.697  0.00  0.00    +0.113 HD
ENDBRANCH  16  20
ENDBRANCH  14  16
ENDBRANCH   1   7
BRANCH   5  22
ATOM     22  N   UNL     1       5.191  -5.901  26.640  0.00  0.00    -0.247 NA
ATOM     23  C   UNL     1       5.233  -7.174  27.277  0.00  0.00    +0.092 C 
ATOM     24  C   UNL     1       6.272  -6.131  27.540  0.00  0.00    +0.092 C 
ENDBRANCH   5  22
BRANCH   2  25
ATOM     25  C   UNL     1       1.947  -1.783  27.904  0.00  0.00    +0.244 C 
ATOM     26  O   UNL     1       2.606  -0.816  28.311  0.00  0.00    -0.285 OA
BRANCH  25  27
ATOM     27  C   UNL     1       0.504  -1.613  27.871  0.00  0.00    +0.301 C 
ATOM     28  N   UNL     1      -0.371  -2.050  28.908  0.00  0.00    -0.169 N 
ATOM     29  O   UNL     1      -0.016  -1.052  26.885  0.00  0.00    -0.265 OA
ATOM     30  H   UNL     1       0.011  -2.494  29.698  0.00  0.00    +0.178 HD
BRANCH  28  31
ATOM     31  S   UNL     1      -2.084  -1.824  28.822  0.00  0.00    +0.112 S 
ATOM     32  O   UNL     1      -2.356  -0.340  28.595  0.00  0.00    -0.138 OA
ATOM     33  O   UNL     1      -2.566  -2.519  27.615  0.00  0.00    -0.138 OA
BRANCH  31  34
ATOM     34  N   UNL     1      -2.795  -2.250  30.273  0.00  0.00    -0.168 NA
ATOM     35  H   UNL     1      -2.974  -1.382  30.777  0.00  0.00    +0.150 HD
BRANCH  34  36
ATOM     36  C   UNL     1      -3.989  -2.976  30.290  0.00  0.00    +0.077 C 
ATOM     37  C   UNL     1      -4.661  -3.182  31.605  0.00  0.00    +0.018 C 
ATOM     38  C   UNL     1      -3.747  -4.108  32.319  0.00  0.00    +0.006 C 
ATOM     39  C   UNL     1      -4.480  -4.959  33.358  0.00  0.00    +0.022 C 
ATOM     40  C   UNL     1      -4.228  -6.354  32.942  0.00  0.00    -0.044 C 
ATOM     41  C   UNL     1      -4.164  -7.405  33.723  0.00  0.00    -0.009 C 
ATOM     42  C   UNL     1      -4.061  -6.346  31.474  0.00  0.00    +0.022 C 
ATOM     43  C   UNL     1      -3.298  -5.063  31.237  0.00  0.00    +0.006 C 
ATOM     44  C   UNL     1      -3.685  -4.410  29.907  0.00  0.00    +0.018 C 
ENDBRANCH  34  36
ENDBRANCH  31  34
ENDBRANCH  28  31
ENDBRANCH  25  27
ENDBRANCH   2  25
TORSDOF 10
ENDMDL
