REMARK  Name = =
REMARK  8 active torsions:
REMARK  status: ('A' for Active; 'I' for Inactive)
REMARK    1  A    between atoms: C_1  and  O_41
REMARK    2  A    between atoms: C_5  and  C_32
REMARK    3  A    between atoms: C_5  and  C_39
REMARK    4  A    between atoms: C_10  and  C_12
REMARK    5  A    between atoms: C_19  and  N_22
REMARK    6  A    between atoms: C_23  and  C_25
REMARK    7  A    between atoms: C_26  and  O_31
REMARK    8  A    between atoms: O_41  and  N_43
REMARK                            x       y       z     vdW  Elec       q    Type
REMARK                         _______ _______ _______ _____ _____    ______ ____
ROOT
ATOM      1  C   UNL     1       4.490  -6.380  23.822  0.00  0.00    +0.197 C 
ATOM      2  C   UNL     1       4.313  -6.744  25.251  0.00  0.00    +0.047 C 
ATOM      3  C   UNL     1       4.588  -8.195  25.549  0.00  0.00    +0.022 C 
ATOM      4  C   UNL     1       3.879  -9.115  24.573  0.00  0.00    +0.012 C 
ATOM      5  C   UNL     1       4.501  -8.832  23.229  0.00  0.00    +0.059 C 
ATOM      6  C   UNL     1       4.046  -7.431  22.850  0.00  0.00    +0.054 C 
ATOM      7  C   UNL     1       4.258  -8.504  26.951  0.00  0.00    -0.044 C 
ATOM      8  C   UNL     1       5.080  -9.213  27.681  0.00  0.00    -0.009 C 
ATOM      9  C   UNL     1       2.997  -8.018  27.552  0.00  0.00    +0.024 C 
ATOM     10  C   UNL     1       2.888  -6.539  27.252  0.00  0.00    +0.031 C 
ATOM     11  C   UNL     1       2.947  -6.341  25.779  0.00  0.00    +0.007 C 
ENDROOT
BRANCH  10  12
ATOM     12  C   UNL     1       1.606  -5.955  27.801  0.00  0.00    +0.116 C 
ATOM     13  O   UNL     1       1.795  -5.355  29.026  0.00  0.00    -0.354 OA
ATOM     14  C   UNL     1       0.699  -4.750  29.572  0.00  0.00    +0.172 C 
ATOM     15  C   UNL     1      -0.477  -4.658  28.657  0.00  0.00    +0.149 C 
ATOM     16  C   UNL     1      -0.067  -4.135  27.294  0.00  0.00    +0.035 C 
ATOM     17  C   UNL     1       0.985  -5.079  26.751  0.00  0.00    +0.032 C 
ATOM     18  O   UNL     1      -1.179  -5.843  28.496  0.00  0.00    -0.315 OA
ATOM     19  C   UNL     1      -1.584  -6.286  29.748  0.00  0.00    +0.325 C 
ATOM     20  O   UNL     1      -0.486  -6.608  30.545  0.00  0.00    -0.312 OA
ATOM     21  C   UNL     1       0.292  -5.493  30.824  0.00  0.00    +0.178 C 
BRANCH  19  22
ATOM     22  N   UNL     1      -2.322  -5.158  30.344  0.00  0.00    -0.255 N 
ATOM     23  C   UNL     1      -3.418  -5.397  31.170  0.00  0.00    +0.252 C 
ATOM     24  O   UNL     1      -3.731  -6.623  31.371  0.00  0.00    -0.270 OA
ATOM     25  H   UNL     1      -2.040  -4.233  30.158  0.00  0.00    +0.154 HD
BRANCH  23  26
ATOM     26  C   UNL     1      -4.211  -4.381  31.805  0.00  0.00    +0.087 C 
ATOM     27  C   UNL     1      -4.424  -3.114  31.348  0.00  0.00    +0.138 C 
ATOM     28  C   UNL     1      -5.215  -2.200  32.039  0.00  0.00    +0.037 C 
ATOM     29  C   UNL     1      -5.824  -2.536  33.225  0.00  0.00    +0.003 C 
ATOM     30  C   UNL     1      -5.618  -3.815  33.700  0.00  0.00    +0.000 C 
ATOM     31  C   UNL     1      -4.835  -4.706  33.010  0.00  0.00    +0.008 C 
BRANCH  27  32
ATOM     32  O   UNL     1      -3.845  -2.705  30.164  0.00  0.00    -0.505 OA
ATOM     33  H   UNL     1      -3.307  -3.297  29.676  0.00  0.00    +0.292 HD
ENDBRANCH  27  32
ENDBRANCH  23  26
ENDBRANCH  19  22
ENDBRANCH  10  12
BRANCH   5  34
ATOM     34  C   UNL     1       4.041  -9.739  22.128  0.00  0.00    +0.172 C 
ATOM     35  O   UNL     1       4.750  -9.521  20.930  0.00  0.00    -0.452 OA
ATOM     36  C   UNL     1       5.749 -10.363  20.492  0.00  0.00    +0.317 C 
ATOM     37  O   UNL     1       6.258 -10.237  19.351  0.00  0.00    -0.250 OA
ATOM     38  C   UNL     1       6.227 -11.432  21.375  0.00  0.00    +0.110 C 
ATOM     39  C   UNL     1       5.196 -11.987  22.292  0.00  0.00    +0.015 C 
ATOM     40  C   UNL     1       3.950 -11.181  22.447  0.00  0.00    +0.045 C 
ENDBRANCH   5  34
BRANCH   5  41
ATOM     41  C   UNL     1       5.985  -8.861  23.436  0.00  0.00    -0.023 C 
ATOM     42  C   UNL     1       6.562  -9.654  24.315  0.00  0.00    -0.005 C 
ENDBRANCH   5  41
BRANCH   1  43
ATOM     43  O   UNL     1       5.833  -6.070  23.501  0.00  0.00    -0.381 OA
BRANCH  43  45
ATOM     44  C   UNL     1       7.532  -4.621  23.181  0.00  0.00    +0.164 C 
ATOM     45  N   UNL     1       6.283  -4.909  22.974  0.00  0.00    -0.080 NA
ENDBRANCH  43  45
ENDBRANCH   1  43
TORSDOF 8
