REMARK  Name = =
REMARK  2 active torsions:
REMARK  status: ('A' for Active; 'I' for Inactive)
REMARK    1  A    between atoms: C_1  and  S_3
REMARK    2  A    between atoms: C_1  and  O_4
REMARK                            x       y       z     vdW  Elec       q    Type
REMARK                         _______ _______ _______ _____ _____    ______ ____
ROOT
ATOM      1  C   UNL     1      -4.304  -3.106  31.931  0.00  0.00    +0.195 C 
ATOM      2  S   UNL     1      -4.370  -4.041  33.251  0.00  0.00    -0.005 S 
ENDROOT
BRANCH   1   3
ATOM      3  S   UNL     1      -4.095  -3.797  30.275  0.00  0.00    -0.098 S 
ATOM      4  H   UNL     1      -4.074  -2.789  29.362  0.00  0.00    +0.111 HD
ENDBRANCH   1   3
BRANCH   1   5
ATOM      5  O   UNL     1      -4.412  -1.736  32.097  0.00  0.00    -0.496 OA
ATOM      6  H   UNL     1      -4.520  -1.375  32.955  0.00  0.00    +0.293 HD
ENDBRANCH   1   5
TORSDOF 2
