REMARK  Name = =
REMARK  13 active torsions:
REMARK  status: ('A' for Active; 'I' for Inactive)
REMARK    1  A    between atoms: C_1  and  S_15
REMARK    2  A    between atoms: C_2  and  O_23
REMARK    3  A    between atoms: C_3  and  N_7
REMARK    4  A    between atoms: N_7  and  S_10
REMARK    5  A    between atoms: C_8  and  O_13
REMARK    6  A    between atoms: O_13  and  O_14
REMARK    7  A    between atoms: S_15  and  N_16
REMARK    8  A    between atoms: S_15  and  C_18
REMARK    9  A    between atoms: S_15  and  O_21
REMARK   10  A    between atoms: N_16  and  O_17
REMARK   11  A    between atoms: C_18  and  O_20
REMARK   12  A    between atoms: O_21  and  O_22
REMARK   13  A    between atoms: O_23  and  C_24
REMARK                            x       y       z     vdW  Elec       q    Type
REMARK                         _______ _______ _______ _____ _____    ______ ____
ROOT
ATOM      1  C   UNL     1      -9.337  -8.219  22.232  0.00  0.00    +0.092 C 
ATOM      2  C   UNL     1      -9.926  -6.962  22.208  0.00  0.00    +0.172 C 
ATOM      3  C   UNL     1     -10.090  -6.206  23.378  0.00  0.00    +0.114 C 
ATOM      4  C   UNL     1      -9.648  -6.746  24.577  0.00  0.00    +0.020 C 
ATOM      5  C   UNL     1      -9.066  -7.973  24.650  0.00  0.00    +0.002 C 
ATOM      6  C   UNL     1      -8.919  -8.688  23.490  0.00  0.00    +0.012 C 
ENDROOT
BRANCH   3   7
ATOM      7  N   UNL     1     -10.694  -4.923  23.361  0.00  0.00    -0.105 N 
ATOM      8  C   UNL     1     -12.035  -4.663  23.669  0.00  0.00    +0.457 C 
ATOM      9  O   UNL     1     -12.785  -5.589  24.043  0.00  0.00    -0.221 OA
BRANCH   7  10
ATOM     10  S   UNL     1      -9.655  -3.584  22.982  0.00  0.00    +0.044 S 
ATOM     11  O   UNL     1      -9.299  -2.816  24.223  0.00  0.00    -0.157 OA
ATOM     12  O   UNL     1      -8.370  -4.046  22.360  0.00  0.00    -0.157 OA
ATOM     13  H   UNL     1     -10.341  -2.798  22.110  0.00  0.00    +0.234 HD
ENDBRANCH   7  10
BRANCH   8  14
ATOM     14  O   UNL     1     -12.547  -3.387  23.565  0.00  0.00    -0.277 OA
BRANCH  14  15
ATOM     15  O   UNL     1     -13.819  -3.169  23.922  0.00  0.00    -0.197 OA
ATOM     16  H   UNL     1     -14.034  -2.232  23.795  0.00  0.00    +0.268 HD
ENDBRANCH  14  15
ENDBRANCH   8  14
ENDBRANCH   3   7
BRANCH   1  17
ATOM     17  S   UNL     1      -9.068  -9.222  20.915  0.00  0.00    +0.076 S 
BRANCH  17  18
ATOM     18  N   UNL     1      -8.078 -10.403  21.123  0.00  0.00    -0.130 NA
ATOM     19  H   UNL     1      -8.487 -11.038  21.809  0.00  0.00    +0.169 HD
BRANCH  18  20
ATOM     20  O   UNL     1      -7.784 -11.113  20.032  0.00  0.00    -0.303 OA
ATOM     21  H   UNL     1      -7.392 -10.530  19.363  0.00  0.00    +0.237 HD
ENDBRANCH  18  20
ENDBRANCH  17  18
BRANCH  17  22
ATOM     22  C   UNL     1     -10.402  -9.515  19.947  0.00  0.00    +0.225 C 
ATOM     23  S   UNL     1     -10.338  -9.369  18.305  0.00  0.00    -0.002 S 
BRANCH  22  24
ATOM     24  O   UNL     1     -11.624  -9.894  20.477  0.00  0.00    -0.495 OA
ATOM     25  H   UNL     1     -11.722  -9.994  21.404  0.00  0.00    +0.293 HD
ENDBRANCH  22  24
ENDBRANCH  17  22
BRANCH  17  26
ATOM     26  O   UNL     1      -8.058  -8.086  19.877  0.00  0.00    -0.159 OA
BRANCH  26  27
ATOM     27  O   UNL     1      -6.928  -8.157  20.555  0.00  0.00    -0.238 OA
ATOM     28  H   UNL     1      -6.260  -7.596  20.130  0.00  0.00    +0.254 HD
ENDBRANCH  26  27
ENDBRANCH  17  26
ENDBRANCH   1  17
BRANCH   2  29
ATOM     29  O   UNL     1     -10.347  -6.463  20.987  0.00  0.00    -0.415 OA
BRANCH  29  30
ATOM     30  C   UNL     1     -11.664  -6.421  20.616  0.00  0.00    +0.423 C 
ATOM     31  O   UNL     1     -12.572  -7.095  21.133  0.00  0.00    -0.237 OA
ENDBRANCH  29  30
ENDBRANCH   2  29
TORSDOF 13
