REMARK  Name = =
REMARK  1 active torsions:
REMARK  status: ('A' for Active; 'I' for Inactive)
REMARK    1  A    between atoms: C_11  and  O_14
REMARK                            x       y       z     vdW  Elec       q    Type
REMARK                         _______ _______ _______ _____ _____    ______ ____
ROOT
ATOM      1  C   UNL     1     -12.280 -42.793  27.902  0.00  0.00    +0.154 C 
ATOM      2  C   UNL     1     -13.237 -42.713  26.911  0.00  0.00    +0.113 C 
ATOM      3  C   UNL     1     -14.578 -42.987  27.210  0.00  0.00    +0.022 C 
ATOM      4  C   UNL     1     -14.882 -43.330  28.504  0.00  0.00    +0.022 C 
ATOM      5  C   UNL     1     -13.920 -43.407  29.490  0.00  0.00    +0.100 C 
ATOM      6  N   UNL     1     -12.635 -43.132  29.146  0.00  0.00    -0.227 NA
ATOM      7  C   UNL     1     -15.551 -42.914  26.238  0.00  0.00    +0.003 C 
ATOM      8  C   UNL     1     -15.193 -42.564  24.945  0.00  0.00    +0.021 C 
ATOM      9  C   UNL     1     -13.879 -42.298  24.667  0.00  0.00    +0.099 C 
ATOM     10  N   UNL     1     -12.952 -42.378  25.640  0.00  0.00    -0.241 NA
ATOM     11  C   UNL     1      -9.945 -42.282  28.583  0.00  0.00    +0.403 C 
ATOM     12  O   UNL     1     -10.331 -42.338  29.786  0.00  0.00    -0.226 OA
ATOM     13  N   UNL     1     -10.916 -42.510  27.580  0.00  0.00    -0.234 N 
ATOM     14  H   UNL     1     -10.645 -42.473  26.634  0.00  0.00    +0.160 HD
ENDROOT
BRANCH  11  15
ATOM     15  O   UNL     1      -8.619 -42.005  28.334  0.00  0.00    -0.466 OA
ATOM     16  H   UNL     1      -8.308 -41.958  27.451  0.00  0.00    +0.297 HD
ENDBRANCH  11  15
TORSDOF 1
