REMARK  Name = =
REMARK  0 active torsions:
REMARK  status: ('A' for Active; 'I' for Inactive)
REMARK                            x       y       z     vdW  Elec       q    Type
REMARK                         _______ _______ _______ _____ _____    ______ ____
ROOT
ATOM      1  C   UNL     1      52.199 156.473  28.988  0.00  0.00    +0.307 C 
ATOM      2  O   UNL     1      53.178 157.220  28.687  0.00  0.00    -0.265 OA
ATOM      3  N   UNL     1      51.083 157.079  29.634  0.00  0.00    -0.233 N 
ATOM      4  C   UNL     1      51.062 158.481  29.937  0.00  0.00    +0.304 C 
ATOM      5  O   UNL     1      52.061 159.192  29.620  0.00  0.00    -0.253 OA
ATOM      6  N   UNL     1      49.925 159.024  30.582  0.00  0.00    -0.313 N 
ATOM      7  H   UNL     1      50.308 156.523  29.878  0.00  0.00    +0.160 HD
ATOM      8  H   UNL     1      49.166 158.442  30.814  0.00  0.00    +0.146 HD
ATOM      9  H   UNL     1      49.893 159.984  30.799  0.00  0.00    +0.146 HD
ENDROOT
TORSDOF 0
