REMARK  Name = =
REMARK  5 active torsions:
REMARK  status: ('A' for Active; 'I' for Inactive)
REMARK    1  A    between atoms: N_1  and  C_8
REMARK    2  A    between atoms: C_8  and  S_10
REMARK    3  A    between atoms: S_10  and  S_11
REMARK    4  A    between atoms: S_11  and  C_12
REMARK    5  A    between atoms: C_12  and  N_14
REMARK                            x       y       z     vdW  Elec       q    Type
REMARK                         _______ _______ _______ _____ _____    ______ ____
ROOT
ATOM      1  N   UNL     1      51.825 155.609  28.307  0.00  0.00    -0.257 N 
ATOM      2  C   UNL     1      51.317 156.920  28.903  0.00  0.00    +0.312 C 
ATOM      3  O   UNL     1      51.864 157.895  28.402  0.00  0.00    -0.252 OA
ATOM      4  N   UNL     1      50.395 156.628  29.825  0.00  0.00    -0.224 N 
ATOM      5  C   UNL     1      50.078 158.270  30.353  0.00  0.00    +0.305 C 
ATOM      6  O   UNL     1      50.721 159.066  29.792  0.00  0.00    -0.253 OA
ATOM      7  N   UNL     1      49.123 158.259  31.332  0.00  0.00    -0.313 N 
ATOM      8  H   UNL     1      51.463 154.746  28.613  0.00  0.00    +0.157 HD
ATOM      9  H   UNL     1      50.015 155.767  30.115  0.00  0.00    +0.161 HD
ATOM     10  H   UNL     1      48.731 157.406  31.628  0.00  0.00    +0.146 HD
ATOM     11  H   UNL     1      48.827 159.104  31.741  0.00  0.00    +0.146 HD
ENDROOT
BRANCH   1  12
ATOM     12  C   UNL     1      52.791 155.656  27.341  0.00  0.00    +0.125 C 
ATOM     13  S   UNL     1      53.401 157.074  26.815  0.00  0.00    -0.027 S 
BRANCH  12  14
ATOM     14  S   UNL     1      53.449 154.209  26.532  0.00  0.00    -0.027 S 
BRANCH  14  15
ATOM     15  S   UNL     1      52.150 152.572  26.502  0.00  0.00    -0.028 S 
BRANCH  15  16
ATOM     16  C   UNL     1      51.725 151.976  28.123  0.00  0.00    +0.115 C 
ATOM     17  S   UNL     1      51.840 152.974  29.404  0.00  0.00    -0.028 S 
BRANCH  16  18
ATOM     18  N   UNL     1      51.288 150.632  28.258  0.00  0.00    -0.346 N 
ATOM     19  H   UNL     1      51.228 150.052  27.465  0.00  0.00    +0.143 HD
ATOM     20  H   UNL     1      51.045 150.280  29.145  0.00  0.00    +0.143 HD
ENDBRANCH  16  18
ENDBRANCH  15  16
ENDBRANCH  14  15
ENDBRANCH  12  14
ENDBRANCH   1  12
TORSDOF 5
