REMARK  Name = =
REMARK  7 active torsions:
REMARK  status: ('A' for Active; 'I' for Inactive)
REMARK    1  A    between atoms: N_1  and  C_8
REMARK    2  A    between atoms: N_4  and  N_15
REMARK    3  A    between atoms: C_8  and  S_10
REMARK    4  A    between atoms: S_10  and  S_11
REMARK    5  A    between atoms: S_11  and  C_12
REMARK    6  A    between atoms: C_12  and  N_14
REMARK    7  A    between atoms: N_15  and  N_16
REMARK                            x       y       z     vdW  Elec       q    Type
REMARK                         _______ _______ _______ _____ _____    ______ ____
ROOT
ATOM      1  N   UNL     1      51.936 154.950  28.191  0.00  0.00    -0.256 N 
ATOM      2  C   UNL     1      52.756 154.710  27.061  0.00  0.00    +0.330 C 
ATOM      3  O   UNL     1      53.365 155.740  26.575  0.00  0.00    -0.250 OA
ATOM      4  N   UNL     1      52.929 153.447  26.467  0.00  0.00    -0.126 N 
ATOM      5  C   UNL     1      52.354 152.251  26.860  0.00  0.00    +0.322 C 
ATOM      6  O   UNL     1      52.637 151.184  26.184  0.00  0.00    -0.251 OA
ATOM      7  N   UNL     1      51.461 152.024  27.943  0.00  0.00    -0.312 N 
ATOM      8  H   UNL     1      51.446 154.203  28.605  0.00  0.00    +0.157 HD
ATOM      9  H   UNL     1      51.184 152.774  28.518  0.00  0.00    +0.147 HD
ATOM     10  H   UNL     1      51.119 151.117  28.118  0.00  0.00    +0.147 HD
ENDROOT
BRANCH   1  11
ATOM     11  C   UNL     1      51.811 156.274  28.741  0.00  0.00    +0.125 C 
ATOM     12  S   UNL     1      52.851 157.428  28.255  0.00  0.00    -0.027 S 
BRANCH  11  13
ATOM     13  S   UNL     1      50.524 156.593  29.928  0.00  0.00    -0.027 S 
BRANCH  13  14
ATOM     14  S   UNL     1      50.667 158.617  30.519  0.00  0.00    -0.028 S 
BRANCH  14  15
ATOM     15  C   UNL     1      49.091 159.387  30.373  0.00  0.00    +0.115 C 
ATOM     16  S   UNL     1      48.932 160.992  30.550  0.00  0.00    -0.028 S 
BRANCH  15  17
ATOM     17  N   UNL     1      47.945 158.611  30.101  0.00  0.00    -0.346 N 
ATOM     18  H   UNL     1      48.025 157.636  29.991  0.00  0.00    +0.143 HD
ATOM     19  H   UNL     1      47.065 159.044  30.021  0.00  0.00    +0.143 HD
ENDBRANCH  15  17
ENDBRANCH  14  15
ENDBRANCH  13  14
ENDBRANCH  11  13
ENDBRANCH   1  11
BRANCH   4  20
ATOM     20  N   UNL     1      53.799 153.401  25.332  0.00  0.00    -0.166 NA
ATOM     21  H   UNL     1      54.096 152.443  25.146  0.00  0.00    +0.164 HD
BRANCH  20  22
ATOM     22  N   UNL     1      53.028 153.895  24.266  0.00  0.00    -0.254 NA
ATOM     23  H   UNL     1      52.740 154.852  24.469  0.00  0.00    +0.138 HD
ATOM     24  H   UNL     1      52.201 153.310  24.145  0.00  0.00    +0.138 HD
ENDBRANCH  20  22
ENDBRANCH   4  20
TORSDOF 7
