REMARK  Name = =
REMARK  11 active torsions:
REMARK  status: ('A' for Active; 'I' for Inactive)
REMARK    1  A    between atoms: C_1  and  N_3
REMARK    2  A    between atoms: C_1  and  S_12
REMARK    3  A    between atoms: N_6  and  N_10
REMARK    4  A    between atoms: N_10  and  N_11
REMARK    5  A    between atoms: S_12  and  S_13
REMARK    6  A    between atoms: S_12  and  S_18
REMARK    7  A    between atoms: S_13  and  P_14
REMARK    8  A    between atoms: P_14  and  O_16
REMARK    9  A    between atoms: P_14  and  O_17
REMARK   10  A    between atoms: S_18  and  C_19
REMARK   11  A    between atoms: C_19  and  N_21
REMARK                            x       y       z     vdW  Elec       q    Type
REMARK                         _______ _______ _______ _____ _____    ______ ____
ROOT
ATOM      1  C   UNL     1      51.631 153.969  28.875  0.00  0.00    +0.113 C 
ATOM      2  S   UNL     1      50.990 152.565  29.406  0.00  0.00    -0.028 S 
ENDROOT
BRANCH   1   3
ATOM      3  N   UNL     1      50.872 155.130  29.050  0.00  0.00    -0.257 N 
ATOM      4  C   UNL     1      51.280 156.440  29.364  0.00  0.00    +0.330 C 
ATOM      5  O   UNL     1      52.532 156.607  29.517  0.00  0.00    -0.250 OA
ATOM      6  N   UNL     1      50.386 157.524  29.506  0.00  0.00    -0.126 N 
ATOM      7  C   UNL     1      50.949 158.815  29.812  0.00  0.00    +0.322 C 
ATOM      8  O   UNL     1      52.175 158.980  29.948  0.00  0.00    -0.251 OA
ATOM      9  N   UNL     1      50.074 159.900  29.952  0.00  0.00    -0.312 N 
ATOM     10  H   UNL     1      49.901 155.013  28.936  0.00  0.00    +0.157 HD
ATOM     11  H   UNL     1      49.104 159.768  29.844  0.00  0.00    +0.147 HD
ATOM     12  H   UNL     1      50.429 160.795  30.158  0.00  0.00    +0.147 HD
BRANCH   6  13
ATOM     13  N   UNL     1      49.029 157.414  29.371  0.00  0.00    -0.166 NA
ATOM     14  H   UNL     1      48.804 156.428  29.240  0.00  0.00    +0.164 HD
BRANCH  13  15
ATOM     15  N   UNL     1      48.297 157.879  30.434  0.00  0.00    -0.254 NA
ATOM     16  H   UNL     1      48.506 158.866  30.585  0.00  0.00    +0.138 HD
ATOM     17  H   UNL     1      48.538 157.349  31.271  0.00  0.00    +0.138 HD
ENDBRANCH  13  15
ENDBRANCH   6  13
ENDBRANCH   1   3
BRANCH   1  18
ATOM     18  S   UNL     1      53.185 153.967  28.124  0.00  0.00    -0.093 S 
ATOM     19  H   UNL     1      52.862 152.851  27.417  0.00  0.00    +0.111 HD
BRANCH  18  20
ATOM     20  S   UNL     1      54.281 153.905  29.067  0.00  0.00    -0.012 S 
BRANCH  20  21
ATOM     21  P   UNL     1      55.566 152.569  29.679  0.00  0.00    +0.234 P 
ATOM     22  S   UNL     1      56.604 153.156  30.939  0.00  0.00    +0.004 S 
BRANCH  21  23
ATOM     23  O   UNL     1      54.807 151.149  30.272  0.00  0.00    -0.339 OA
ATOM     24  H   UNL     1      54.193 151.384  30.985  0.00  0.00    +0.218 HD
ENDBRANCH  21  23
BRANCH  21  25
ATOM     25  O   UNL     1      56.608 152.006  28.440  0.00  0.00    -0.339 OA
ATOM     26  H   UNL     1      56.078 151.663  27.703  0.00  0.00    +0.218 HD
ENDBRANCH  21  25
ENDBRANCH  20  21
ENDBRANCH  18  20
BRANCH  18  27
ATOM     27  S   UNL     1      53.655 154.906  27.033  0.00  0.00    -0.041 S 
BRANCH  27  28
ATOM     28  C   UNL     1      53.597 154.774  25.392  0.00  0.00    +0.114 C 
ATOM     29  S   UNL     1      53.303 153.372  24.585  0.00  0.00    -0.028 S 
BRANCH  28  30
ATOM     30  N   UNL     1      53.813 155.910  24.521  0.00  0.00    -0.346 N 
ATOM     31  H   UNL     1      53.997 156.797  24.906  0.00  0.00    +0.143 HD
ATOM     32  H   UNL     1      53.776 155.795  23.544  0.00  0.00    +0.143 HD
ENDBRANCH  28  30
ENDBRANCH  27  28
ENDBRANCH  18  27
ENDBRANCH   1  18
TORSDOF 11
