REMARK  Name = =
REMARK  12 active torsions:
REMARK  status: ('A' for Active; 'I' for Inactive)
REMARK    1  A    between atoms: S_1  and  S_2
REMARK    2  A    between atoms: S_1  and  C_13
REMARK    3  A    between atoms: S_1  and  S_24
REMARK    4  A    between atoms: S_2  and  C_4
REMARK    5  A    between atoms: S_2  and  P_9
REMARK    6  A    between atoms: P_9  and  O_11
REMARK    7  A    between atoms: P_9  and  O_12
REMARK    8  A    between atoms: C_13  and  N_15
REMARK    9  A    between atoms: N_18  and  N_22
REMARK   10  A    between atoms: N_22  and  N_23
REMARK   11  A    between atoms: S_24  and  C_25
REMARK   12  A    between atoms: C_25  and  N_27
REMARK                            x       y       z     vdW  Elec       q    Type
REMARK                         _______ _______ _______ _____ _____    ______ ____
ROOT
ATOM      1  S   UNL     1      51.652 158.455  28.906  0.00  0.00    -0.110 S 
ATOM      2  H   UNL     1      50.953 158.813  27.796  0.00  0.00    +0.109 HD
ENDROOT
BRANCH   1   3
ATOM      3  S   UNL     1      50.313 157.831  30.044  0.00  0.00    -0.094 S 
ATOM      4  H   UNL     1      50.686 158.104  31.323  0.00  0.00    +0.105 HD
BRANCH   3   6
ATOM      5  O   UNL     1      49.184 159.956  29.308  0.00  0.00    -0.441 OA
ATOM      6  C   UNL     1      48.933 158.529  29.462  0.00  0.00    +0.213 C 
ATOM      7  C   UNL     1      47.774 158.410  30.362  0.00  0.00    +0.066 C 
ATOM      8  C   UNL     1      47.480 159.832  30.776  0.00  0.00    +0.114 C 
ATOM      9  C   UNL     1      48.766 160.555  30.496  0.00  0.00    +0.318 C 
ATOM     10  O   UNL     1      49.303 161.463  31.177  0.00  0.00    -0.250 OA
ENDBRANCH   3   6
BRANCH   3  11
ATOM     11  P   UNL     1      49.995 156.159  29.911  0.00  0.00    +0.216 P 
ATOM     12  S   UNL     1      50.380 155.451  28.381  0.00  0.00    +0.002 S 
BRANCH  11  13
ATOM     13  O   UNL     1      48.303 155.859  30.109  0.00  0.00    -0.340 OA
ATOM     14  H   UNL     1      48.006 156.230  30.954  0.00  0.00    +0.218 HD
ENDBRANCH  11  13
BRANCH  11  15
ATOM     15  O   UNL     1      50.722 155.145  31.097  0.00  0.00    -0.340 OA
ATOM     16  H   UNL     1      50.537 155.498  31.981  0.00  0.00    +0.218 HD
ENDBRANCH  11  15
ENDBRANCH   3  11
ENDBRANCH   1   3
BRANCH   1  17
ATOM     17  C   UNL     1      52.808 157.288  28.698  0.00  0.00    +0.111 C 
ATOM     18  S   UNL     1      53.772 156.769  29.911  0.00  0.00    -0.028 S 
BRANCH  17  19
ATOM     19  N   UNL     1      53.033 156.649  27.420  0.00  0.00    -0.257 N 
ATOM     20  C   UNL     1      53.161 155.262  27.311  0.00  0.00    +0.330 C 
ATOM     21  O   UNL     1      53.090 154.534  28.401  0.00  0.00    -0.250 OA
ATOM     22  N   UNL     1      53.364 154.589  26.087  0.00  0.00    -0.126 N 
ATOM     23  C   UNL     1      53.407 155.136  24.798  0.00  0.00    +0.322 C 
ATOM     24  O   UNL     1      53.281 156.399  24.654  0.00  0.00    -0.251 OA
ATOM     25  N   UNL     1      53.582 154.372  23.612  0.00  0.00    -0.312 N 
ATOM     26  H   UNL     1      53.097 157.204  26.609  0.00  0.00    +0.157 HD
ATOM     27  H   UNL     1      53.684 153.394  23.667  0.00  0.00    +0.147 HD
ATOM     28  H   UNL     1      53.601 154.821  22.736  0.00  0.00    +0.147 HD
BRANCH  22  29
ATOM     29  N   UNL     1      53.521 153.159  26.112  0.00  0.00    -0.166 NA
ATOM     30  H   UNL     1      53.988 152.856  25.258  0.00  0.00    +0.164 HD
BRANCH  29  31
ATOM     31  N   UNL     1      54.279 152.783  27.206  0.00  0.00    -0.254 NA
ATOM     32  H   UNL     1      53.814 153.085  28.062  0.00  0.00    +0.138 HD
ATOM     33  H   UNL     1      55.200 153.218  27.148  0.00  0.00    +0.138 HD
ENDBRANCH  29  31
ENDBRANCH  22  29
ENDBRANCH  17  19
ENDBRANCH   1  17
BRANCH   1  34
ATOM     34  S   UNL     1      52.420 159.565  29.387  0.00  0.00    -0.042 S 
BRANCH  34  35
ATOM     35  C   UNL     1      52.580 160.573  30.658  0.00  0.00    +0.114 C 
ATOM     36  S   UNL     1      51.498 160.605  31.929  0.00  0.00    -0.028 S 
BRANCH  35  37
ATOM     37  N   UNL     1      53.644 161.515  30.798  0.00  0.00    -0.346 N 
ATOM     38  H   UNL     1      54.339 161.580  30.103  0.00  0.00    +0.143 HD
ATOM     39  H   UNL     1      53.683 162.100  31.589  0.00  0.00    +0.143 HD
ENDBRANCH  35  37
ENDBRANCH  34  35
ENDBRANCH   1  34
TORSDOF 12
