REMARK  Name = =
REMARK  0 active torsions:
REMARK  status: ('A' for Active; 'I' for Inactive)
REMARK                            x       y       z     vdW  Elec       q    Type
REMARK                         _______ _______ _______ _____ _____    ______ ____
ROOT
ATOM      1  C   UNL     1      52.139 155.368  28.447  0.00  0.00    +0.109 C 
ATOM      2  N   UNL     1      53.189 154.665  28.448  0.00  0.00    -0.295 NA
ATOM      3  H   UNL     1      53.953 154.922  29.014  0.00  0.00    +0.187 HD
ENDROOT
TORSDOF 0
