REMARK  Name = =
REMARK  1 active torsions:
REMARK  status: ('A' for Active; 'I' for Inactive)
REMARK    1  A    between atoms: O_1  and  C_2
REMARK                            x       y       z     vdW  Elec       q    Type
REMARK                         _______ _______ _______ _____ _____    ______ ____
ROOT
ATOM      1  O   UNL     1      52.298 155.442  29.294  0.00  0.00    -0.503 OA
ATOM      2  H   UNL     1      52.029 154.677  29.764  0.00  0.00    +0.292 HD
ENDROOT
BRANCH   1   3
ATOM      3  C   UNL     1      52.432 155.397  27.918  0.00  0.00    +0.168 C 
ATOM      4  C   UNL     1      52.807 156.444  27.213  0.00  0.00    +0.043 C 
ENDBRANCH   1   3
TORSDOF 1
