REMARK  Name = =
REMARK  1 active torsions:
REMARK  status: ('A' for Active; 'I' for Inactive)
REMARK    1  A    between atoms: C_1  and  C_12
REMARK                            x       y       z     vdW  Elec       q    Type
REMARK                         _______ _______ _______ _____ _____    ______ ____
ROOT
ATOM      1  C   UNL     1      51.323 156.488  29.130  0.00  0.00    +0.094 C 
ATOM      2  C   UNL     1      51.101 155.187  28.728  0.00  0.00    +0.011 C 
ATOM      3  C   UNL     1      51.859 154.680  27.679  0.00  0.00    +0.035 C 
ATOM      4  C   UNL     1      52.822 155.436  27.034  0.00  0.00    +0.149 C 
ATOM      5  C   UNL     1      53.559 154.900  25.995  0.00  0.00    +0.038 C 
ATOM      6  C   UNL     1      53.348 153.605  25.584  0.00  0.00    +0.003 C 
ATOM      7  C   UNL     1      52.389 152.819  26.210  0.00  0.00    +0.000 C 
ATOM      8  C   UNL     1      51.675 153.389  27.241  0.00  0.00    +0.003 C 
ATOM      9  O   UNL     1      52.988 156.665  27.461  0.00  0.00    -0.421 OA
ATOM     10  C   UNL     1      52.296 157.188  28.447  0.00  0.00    +0.347 C 
ATOM     11  O   UNL     1      52.488 158.387  28.831  0.00  0.00    -0.244 OA
ENDROOT
BRANCH   1  12
ATOM     12  C   UNL     1      50.559 157.090  30.231  0.00  0.00    +0.095 C 
ATOM     13  N   UNL     1      50.409 158.358  30.231  0.00  0.00    -0.297 NA
ATOM     14  H   UNL     1      49.902 158.794  30.954  0.00  0.00    +0.187 HD
ENDBRANCH   1  12
TORSDOF 1
