REMARK  Name = =
REMARK  3 active torsions:
REMARK  status: ('A' for Active; 'I' for Inactive)
REMARK    1  A    between atoms: N_1  and  S_2
REMARK    2  A    between atoms: N_1  and  O_5
REMARK    3  A    between atoms: O_5  and  C_6
REMARK                            x       y       z     vdW  Elec       q    Type
REMARK                         _______ _______ _______ _____ _____    ______ ____
ROOT
ATOM      1  N   UNL     1      52.851 155.955  27.015  0.00  0.00    -0.027 NA
ATOM      2  H   UNL     1      53.621 156.462  27.452  0.00  0.00    +0.195 HD
ENDROOT
BRANCH   1   3
ATOM      3  S   UNL     1      53.287 155.502  25.397  0.00  0.00    +0.050 S 
ATOM      4  O   UNL     1      54.533 156.185  24.950  0.00  0.00    -0.158 OA
ATOM      5  O   UNL     1      53.468 154.033  25.258  0.00  0.00    -0.158 OA
ATOM      6  H   UNL     1      52.251 155.896  24.608  0.00  0.00    +0.233 HD
ENDBRANCH   1   3
BRANCH   1   7
ATOM      7  O   UNL     1      52.593 154.827  27.709  0.00  0.00    -0.382 OA
BRANCH   7   8
ATOM      8  C   UNL     1      51.958 154.789  28.947  0.00  0.00    +0.203 C 
ATOM      9  C   UNL     1      51.225 155.802  29.324  0.00  0.00    +0.046 C 
ENDBRANCH   7   8
ENDBRANCH   1   7
TORSDOF 3
