REMARK  Name = =
REMARK  3 active torsions:
REMARK  status: ('A' for Active; 'I' for Inactive)
REMARK    1  A    between atoms: N_1  and  S_14
REMARK    2  A    between atoms: N_1  and  O_17
REMARK    3  A    between atoms: O_17  and  C_18
REMARK                            x       y       z     vdW  Elec       q    Type
REMARK                         _______ _______ _______ _____ _____    ______ ____
ROOT
ATOM      1  N   UNL     1      61.768 165.729  36.567  0.00  0.00    -0.058 N 
ATOM      2  C   UNL     1      61.126 165.540  37.814  0.00  0.00    +0.196 C 
ATOM      3  N   UNL     1      60.759 166.585  38.474  0.00  0.00    -0.240 NA
ATOM      4  C   UNL     1      60.107 166.803  39.721  0.00  0.00    +0.212 C 
ATOM      5  C   UNL     1      59.007 165.883  40.027  0.00  0.00    +0.251 C 
ATOM      6  O   UNL     1      57.880 166.338  40.389  0.00  0.00    -0.273 OA
ATOM      7  N   UNL     1      59.095 164.446  39.952  0.00  0.00    -0.282 N 
ATOM      8  C   UNL     1      60.029 163.670  39.198  0.00  0.00    +0.053 C 
ATOM      9  C   UNL     1      60.925 164.142  38.258  0.00  0.00    +0.052 C 
ATOM     10  C   UNL     1      61.779 163.302  37.592  0.00  0.00    +0.004 C 
ATOM     11  C   UNL     1      61.725 161.945  37.886  0.00  0.00    +0.000 C 
ATOM     12  C   UNL     1      60.846 161.454  38.812  0.00  0.00    +0.001 C 
ATOM     13  C   UNL     1      60.000 162.326  39.466  0.00  0.00    +0.015 C 
ATOM     14  H   UNL     1      58.436 163.941  40.481  0.00  0.00    +0.155 HD
ENDROOT
BRANCH   1  15
ATOM     15  S   UNL     1      60.819 165.719  35.135  0.00  0.00    +0.073 S 
ATOM     16  O   UNL     1      59.797 166.814  35.267  0.00  0.00    -0.153 OA
ATOM     17  O   UNL     1      61.724 166.005  33.946  0.00  0.00    -0.153 OA
ATOM     18  H   UNL     1      60.209 164.517  34.953  0.00  0.00    +0.239 HD
ENDBRANCH   1  15
BRANCH   1  19
ATOM     19  O   UNL     1      63.112 165.919  36.433  0.00  0.00    -0.351 OA
BRANCH  19  20
ATOM     20  C   UNL     1      63.962 166.357  37.407  0.00  0.00    +0.212 C 
ATOM     21  C   UNL     1      65.053 165.716  37.776  0.00  0.00    +0.047 C 
ENDBRANCH  19  20
ENDBRANCH   1  19
TORSDOF 3
