REMARK  Name = =
REMARK  2 active torsions:
REMARK  status: ('A' for Active; 'I' for Inactive)
REMARK    1  A    between atoms: C_1  and  C_12
REMARK    2  A    between atoms: O_15  and  O_17
REMARK                            x       y       z     vdW  Elec       q    Type
REMARK                         _______ _______ _______ _____ _____    ______ ____
ROOT
ATOM      1  C   UNL     1      50.487 156.653  29.401  0.00  0.00    +0.094 C 
ATOM      2  C   UNL     1      51.701 156.619  28.843  0.00  0.00    +0.011 C 
ATOM      3  C   UNL     1      51.940 155.457  28.065  0.00  0.00    +0.035 C 
ATOM      4  C   UNL     1      51.005 154.452  27.895  0.00  0.00    +0.149 C 
ATOM      5  C   UNL     1      51.334 153.343  27.112  0.00  0.00    +0.038 C 
ATOM      6  C   UNL     1      52.572 153.223  26.502  0.00  0.00    +0.003 C 
ATOM      7  C   UNL     1      53.507 154.221  26.672  0.00  0.00    +0.000 C 
ATOM      8  C   UNL     1      53.153 155.313  27.454  0.00  0.00    +0.003 C 
ATOM      9  O   UNL     1      49.859 154.554  28.461  0.00  0.00    -0.421 OA
ATOM     10  C   UNL     1      49.578 155.589  29.187  0.00  0.00    +0.347 C 
ATOM     11  O   UNL     1      48.451 155.652  29.722  0.00  0.00    -0.244 OA
ENDROOT
BRANCH   1  12
ATOM     12  C   UNL     1      50.020 157.744  30.275  0.00  0.00    +0.095 C 
ATOM     13  N   UNL     1      48.840 157.922  30.458  0.00  0.00    -0.297 NA
ATOM     14  H   UNL     1      48.537 158.653  31.044  0.00  0.00    +0.187 HD
ENDBRANCH   1  12
TORSDOF 1
REMARK  Name = =
REMARK  2 active torsions:
REMARK  status: ('A' for Active; 'I' for Inactive)
REMARK    1  A    between atoms: C_1  and  C_12
REMARK    2  A    between atoms: O_15  and  O_17
REMARK                            x       y       z     vdW  Elec       q    Type
REMARK                         _______ _______ _______ _____ _____    ______ ____
ROOT
ATOM      1  P   UNL     1      52.949 157.751  29.015  0.00  0.00    +0.000 P 
ENDROOT
TORSDOF 0
REMARK  Name = =
REMARK  2 active torsions:
REMARK  status: ('A' for Active; 'I' for Inactive)
REMARK    1  A    between atoms: C_1  and  C_12
REMARK    2  A    between atoms: O_15  and  O_17
REMARK                            x       y       z     vdW  Elec       q    Type
REMARK                         _______ _______ _______ _____ _____    ______ ____
ROOT
ATOM      1  O   UNL     1      52.107 158.797  28.340  0.00  0.00    -0.253 OA
ATOM      2  H   UNL     1      52.863 158.994  27.765  0.00  0.00    +0.253 HD
ENDROOT
BRANCH   1   3
ATOM      3  O   UNL     1      52.469 159.147  29.807  0.00  0.00    -0.253 OA
ATOM      4  H   UNL     1      51.713 158.950  30.382  0.00  0.00    +0.253 HD
ENDBRANCH   1   3
TORSDOF 1
REMARK  Name = =
REMARK  2 active torsions:
REMARK  status: ('A' for Active; 'I' for Inactive)
REMARK    1  A    between atoms: C_1  and  C_12
REMARK    2  A    between atoms: O_15  and  O_17
REMARK                            x       y       z     vdW  Elec       q    Type
REMARK                         _______ _______ _______ _____ _____    ______ ____
ROOT
ATOM      1  O   HOH     1      53.971 157.081  30.261  0.00  0.00    -0.253 OA
ATOM      2  H   HOH     0      54.941 157.081  30.261  0.00  0.00    +0.253 HD
ENDROOT
TORSDOF 0
REMARK  Name = =
REMARK  2 active torsions:
REMARK  status: ('A' for Active; 'I' for Inactive)
REMARK    1  A    between atoms: C_1  and  C_12
REMARK    2  A    between atoms: O_15  and  O_17
REMARK                            x       y       z     vdW  Elec       q    Type
REMARK                         _______ _______ _______ _____ _____    ______ ____
ROOT
ATOM      1  C   UNL     1      54.282 158.116  28.008  0.00  0.00    +0.000 C 
ATOM      2  C   UNL     1      55.262 158.811  28.565  0.00  0.00    +0.000 C 
ENDROOT
TORSDOF 0
