REMARK  Name = =
REMARK  6 active torsions:
REMARK  status: ('A' for Active; 'I' for Inactive)
REMARK    1  A    between atoms: N_1  and  S_14
REMARK    2  A    between atoms: N_1  and  O_17
REMARK    3  A    between atoms: C_4  and  O_20
REMARK    4  A    between atoms: O_17  and  C_18
REMARK    5  A    between atoms: O_20  and  N_21
REMARK    6  A    between atoms: N_21  and  N_24
REMARK                            x       y       z     vdW  Elec       q    Type
REMARK                         _______ _______ _______ _____ _____    ______ ____
ROOT
ATOM      1  N   UNL     1      63.348 167.611  38.386  0.00  0.00    -0.058 N 
ATOM      2  C   UNL     1      62.738 166.393  38.771  0.00  0.00    +0.198 C 
ATOM      3  N   UNL     1      61.924 165.941  37.916  0.00  0.00    -0.212 NA
ATOM      4  C   UNL     1      61.108 164.779  37.882  0.00  0.00    +0.324 C 
ATOM      5  C   UNL     1      60.614 164.302  39.190  0.00  0.00    +0.280 C 
ATOM      6  O   UNL     1      59.358 164.030  39.273  0.00  0.00    -0.270 OA
ATOM      7  N   UNL     1      61.371 164.109  40.375  0.00  0.00    -0.280 N 
ATOM      8  C   UNL     1      62.536 164.868  40.766  0.00  0.00    +0.053 C 
ATOM      9  C   UNL     1      63.168 165.889  40.088  0.00  0.00    +0.052 C 
ATOM     10  C   UNL     1      64.271 166.523  40.601  0.00  0.00    +0.004 C 
ATOM     11  C   UNL     1      64.758 166.119  41.836  0.00  0.00    +0.000 C 
ATOM     12  C   UNL     1      64.129 165.093  42.524  0.00  0.00    +0.001 C 
ATOM     13  C   UNL     1      63.018 164.466  41.991  0.00  0.00    +0.015 C 
ATOM     14  H   UNL     1      61.076 163.394  40.984  0.00  0.00    +0.155 HD
ENDROOT
BRANCH   1  15
ATOM     15  S   UNL     1      64.759 167.564  37.422  0.00  0.00    +0.073 S 
ATOM     16  O   UNL     1      65.991 167.878  38.224  0.00  0.00    -0.153 OA
ATOM     17  O   UNL     1      64.934 166.201  36.777  0.00  0.00    -0.153 OA
ATOM     18  H   UNL     1      64.602 168.511  36.459  0.00  0.00    +0.239 HD
ENDBRANCH   1  15
BRANCH   1  19
ATOM     19  O   UNL     1      62.807 168.786  38.791  0.00  0.00    -0.351 OA
BRANCH  19  20
ATOM     20  C   UNL     1      63.482 169.956  39.059  0.00  0.00    +0.212 C 
ATOM     21  C   UNL     1      63.430 171.047  38.342  0.00  0.00    +0.047 C 
ENDBRANCH  19  20
ENDBRANCH   1  19
BRANCH   4  22
ATOM     22  O   UNL     1      60.012 164.909  37.033  0.00  0.00    -0.213 OA
BRANCH  22  23
ATOM     23  N   UNL     1      60.342 164.393  35.832  0.00  0.00    -0.078 N 
ATOM     24  C   UNL     1      59.535 163.445  35.156  0.00  0.00    +0.345 C 
ATOM     25  O   UNL     1      58.452 162.996  35.599  0.00  0.00    -0.261 OA
BRANCH  23  26
ATOM     26  N   UNL     1      61.530 164.803  35.212  0.00  0.00    -0.191 N 
ATOM     27  C   UNL     1      61.571 165.924  34.370  0.00  0.00    +0.315 C 
ATOM     28  O   UNL     1      60.458 166.537  34.207  0.00  0.00    -0.251 OA
ATOM     29  N   UNL     1      62.730 166.406  33.707  0.00  0.00    -0.312 N 
ATOM     30  H   UNL     1      62.356 164.292  35.371  0.00  0.00    +0.177 HD
ATOM     31  H   UNL     1      63.592 165.944  33.824  0.00  0.00    +0.147 HD
ATOM     32  H   UNL     1      62.672 167.202  33.131  0.00  0.00    +0.147 HD
ENDBRANCH  23  26
ENDBRANCH  22  23
ENDBRANCH   4  22
TORSDOF 6
