MODEL 1
REMARK VINA RESULT:    -9.666      0.000      0.000
REMARK INTER + INTRA:         -13.783
REMARK INTER:                 -12.774
REMARK INTRA:                  -1.009
REMARK UNBOUND:                -1.009
REMARK  Name = =
REMARK  6 active torsions:
REMARK  status: ('A' for Active; 'I' for Inactive)
REMARK    1  A    between atoms: N_1  and  N_24
REMARK    2  A    between atoms: C_12  and  C_39
REMARK    3  A    between atoms: C_18  and  N_19
REMARK    4  A    between atoms: N_24  and  S_25
REMARK    5  A    between atoms: S_25  and  N_28
REMARK    6  A    between atoms: C_33  and  N_38
REMARK                            x       y       z     vdW  Elec       q    Type
REMARK                         _______ _______ _______ _____ _____    ______ ____
ROOT
ATOM      1  N   UNL     1       0.622  -6.111  30.237  0.00  0.00    -0.185 NA
ATOM      2  C   UNL     1       0.449  -5.935  28.824  0.00  0.00    +0.085 C 
ATOM      3  C   UNL     1       1.106  -4.675  28.315  0.00  0.00    +0.045 C 
ATOM      4  C   UNL     1       2.538  -4.761  28.676  0.00  0.00    +0.067 C 
ATOM      5  C   UNL     1       3.458  -3.765  28.006  0.00  0.00    +0.174 C 
ATOM      6  O   UNL     1       4.712  -4.497  28.210  0.00  0.00    -0.479 OA
ATOM      7  C   UNL     1       4.387  -5.832  27.847  0.00  0.00    +0.135 C 
ATOM      8  C   UNL     1       3.064  -6.016  28.102  0.00  0.00    +0.011 C 
ATOM      9  C   UNL     1       2.379  -7.147  27.883  0.00  0.00    -0.022 C 
ATOM     10  C   UNL     1       3.103  -8.213  27.353  0.00  0.00    -0.004 C 
ATOM     11  C   UNL     1       4.468  -8.073  27.078  0.00  0.00    +0.003 C 
ATOM     12  C   UNL     1       5.130  -6.868  27.326  0.00  0.00    +0.041 C 
ATOM     13  C   UNL     1       0.927  -7.199  28.162  0.00  0.00    +0.044 C 
ATOM     14  C   UNL     1       3.166  -3.658  26.558  0.00  0.00    +0.070 C 
ATOM     15  C   UNL     1       1.867  -4.140  26.093  0.00  0.00    -0.027 C 
ATOM     16  C   UNL     1       0.906  -4.606  26.840  0.00  0.00    -0.029 C 
ATOM     17  C   UNL     1       2.697  -4.781  30.157  0.00  0.00    +0.046 C 
ATOM     18  C   UNL     1       1.975  -5.993  30.686  0.00  0.00    +0.155 C 
ENDROOT
BRANCH  18  19
ATOM     19  N   UNL     1       2.017  -5.948  32.119  0.00  0.00    -0.237 N 
ATOM     20  C   UNL     1       1.734  -6.935  32.975  0.00  0.00    +0.193 C 
ATOM     21  N   UNL     1       1.890  -6.503  34.239  0.00  0.00    -0.128 NA
ATOM     22  N   UNL     1       2.272  -5.246  34.168  0.00  0.00    -0.128 NA
ATOM     23  C   UNL     1       2.354  -4.888  32.866  0.00  0.00    +0.193 C 
ENDBRANCH  18  19
BRANCH   1  24
ATOM     24  N   UNL     1      -0.323  -5.529  31.025  0.00  0.00    -0.106 NA
ATOM     25  H   UNL     1      -0.675  -4.684  30.576  0.00  0.00    +0.169 HD
BRANCH  24  26
ATOM     26  S   UNL     1      -1.624  -6.670  31.243  0.00  0.00    +0.132 S 
ATOM     27  O   UNL     1      -1.083  -7.947  31.862  0.00  0.00    -0.136 OA
ATOM     28  O   UNL     1      -2.214  -7.056  29.908  0.00  0.00    -0.136 OA
BRANCH  26  29
ATOM     29  N   UNL     1      -2.882  -6.004  32.208  0.00  0.00    -0.120 N 
ATOM     30  C   UNL     1      -3.467  -4.799  32.069  0.00  0.00    +0.181 A 
ATOM     31  N   UNL     1      -3.281  -3.786  31.200  0.00  0.00    -0.195 NA
ATOM     32  C   UNL     1      -4.004  -2.657  31.265  0.00  0.00    +0.216 A 
ATOM     33  N   UNL     1      -4.950  -2.511  32.222  0.00  0.00    -0.198 NA
ATOM     34  C   UNL     1      -5.202  -3.473  33.133  0.00  0.00    +0.149 A 
ATOM     35  C   UNL     1      -4.444  -4.627  33.045  0.00  0.00    +0.147 A 
ATOM     36  N   UNL     1      -4.433  -5.750  33.768  0.00  0.00    -0.220 NA
ATOM     37  C   UNL     1      -3.501  -6.574  33.270  0.00  0.00    +0.191 C 
ATOM     38  N   UNL     1      -3.764  -1.611  30.315  0.00  0.00    -0.327 N 
ATOM     39  H   UNL     1      -3.075  -1.724  29.622  0.00  0.00    +0.145 HD
ATOM     40  H   UNL     1      -4.289  -0.780  30.355  0.00  0.00    +0.145 HD
BRANCH  34  41
ATOM     41  N   UNL     1      -6.192  -3.333  34.142  0.00  0.00    -0.341 N 
ATOM     42  H   UNL     1      -6.072  -2.670  34.860  0.00  0.00    +0.144 HD
ATOM     43  H   UNL     1      -6.997  -3.900  34.124  0.00  0.00    +0.144 HD
ENDBRANCH  34  41
ENDBRANCH  26  29
ENDBRANCH  24  26
ENDBRANCH   1  24
BRANCH  12  44
ATOM     44  C   UNL     1       6.550  -6.692  27.047  0.00  0.00    +0.045 C 
ATOM     45  S   UNL     1       7.626  -7.721  27.720  0.00  0.00    -0.050 S 
ENDBRANCH  12  44
TORSDOF 6
ENDMDL
