MODEL 1
REMARK VINA RESULT:    -9.746      0.000      0.000
REMARK INTER + INTRA:         -12.402
REMARK INTER:                 -12.025
REMARK INTRA:                  -0.376
REMARK UNBOUND:                -0.376
REMARK  Name = =
REMARK  4 active torsions:
REMARK  status: ('A' for Active; 'I' for Inactive)
REMARK    1  A    between atoms: C_1  and  C_12
REMARK    2  A    between atoms: C_11  and  C_29
REMARK    3  A    between atoms: C_11  and  N_35
REMARK    4  A    between atoms: C_16  and  S_22
REMARK                            x       y       z     vdW  Elec       q    Type
REMARK                         _______ _______ _______ _____ _____    ______ ____
ROOT
ATOM      1  C   UNL     1       2.056  -7.501  27.691  0.00  0.00    +0.001 C 
ATOM      2  C   UNL     1       1.378  -6.919  28.768  0.00  0.00    -0.001 C 
ATOM      3  C   UNL     1       0.224  -7.447  29.307  0.00  0.00    +0.010 C 
ATOM      4  C   UNL     1      -0.274  -8.607  28.745  0.00  0.00    +0.048 C 
ATOM      5  C   UNL     1       0.404  -9.184  27.674  0.00  0.00    +0.014 C 
ATOM      6  C   UNL     1       1.558  -8.653  27.137  0.00  0.00    +0.001 C 
ATOM      7  N   UNL     1      -1.450  -9.232  29.240  0.00  0.00    -0.284 N 
ATOM      8  C   UNL     1      -2.103  -8.627  30.334  0.00  0.00    +0.228 C 
ATOM      9  O   UNL     1      -2.914  -9.301  31.010  0.00  0.00    -0.275 OA
ATOM     10  C   UNL     1      -1.840  -7.238  30.677  0.00  0.00    +0.110 C 
ATOM     11  C   UNL     1      -0.431  -6.760  30.437  0.00  0.00    +0.113 C 
ATOM     12  H   UNL     1      -1.797 -10.058  28.832  0.00  0.00    +0.155 HD
ENDROOT
BRANCH   1  13
ATOM     13  C   UNL     1       3.273  -6.891  27.195  0.00  0.00    +0.014 C 
ATOM     14  C   UNL     1       4.474  -7.552  27.293  0.00  0.00    +0.041 C 
ATOM     15  C   UNL     1       5.613  -6.961  26.806  0.00  0.00    +0.177 C 
ATOM     16  C   UNL     1       5.566  -5.720  26.223  0.00  0.00    +0.182 C 
ATOM     17  C   UNL     1       4.357  -5.029  26.111  0.00  0.00    +0.062 C 
ATOM     18  C   UNL     1       3.239  -5.649  26.609  0.00  0.00    +0.065 C 
ATOM     19 CL   UNL     1       1.698  -4.830  26.498  0.00  0.00    -0.082 Cl
ATOM     20  O   UNL     1       6.858  -5.398  25.837  0.00  0.00    -0.434 OA
ATOM     21  C   UNL     1       7.577  -6.593  25.725  0.00  0.00    +0.429 C 
ATOM     22  O   UNL     1       6.955  -7.372  26.758  0.00  0.00    -0.435 OA
BRANCH  17  23
ATOM     23  S   UNL     1       4.322  -3.445  25.358  0.00  0.00    -0.127 S 
ATOM     24  C   UNL     1       5.079  -2.100  26.196  0.00  0.00    +0.134 C 
ATOM     25  C   UNL     1       6.255  -1.835  25.343  0.00  0.00    +0.239 C 
ATOM     26  O   UNL     1       7.349  -1.373  25.815  0.00  0.00    -0.274 OA
ATOM     27  N   UNL     1       6.034  -2.144  23.988  0.00  0.00    -0.247 N 
ATOM     28  C   UNL     1       5.331  -3.319  23.765  0.00  0.00    +0.264 C 
ATOM     29  O   UNL     1       5.243  -4.166  22.874  0.00  0.00    -0.264 OA
ATOM     30  H   UNL     1       2.968  -3.348  25.272  0.00  0.00    +0.097 HD
ATOM     31  H   UNL     1       6.353  -1.569  23.254  0.00  0.00    +0.158 HD
ENDBRANCH  17  23
ENDBRANCH   1  13
BRANCH  11  32
ATOM     32  C   UNL     1      -0.578  -5.314  30.008  0.00  0.00    +0.117 C 
ATOM     33  N   UNL     1       0.351  -4.401  30.272  0.00  0.00    -0.148 NA
ATOM     34  N   UNL     1       0.226  -3.141  29.903  0.00  0.00    -0.125 NA
ATOM     35  C   UNL     1      -0.857  -2.737  29.242  0.00  0.00    +0.222 C 
ATOM     36  N   UNL     1      -1.831  -3.617  28.948  0.00  0.00    -0.220 NA
ATOM     37  C   UNL     1      -1.704  -4.901  29.325  0.00  0.00    +0.119 C 
ENDBRANCH  11  32
BRANCH  11  38
ATOM     38  N   UNL     1       0.289  -6.856  31.650  0.00  0.00    -0.264 NA
ATOM     39  C   UNL     1       1.699  -6.935  31.597  0.00  0.00    +0.092 C 
ATOM     40  C   UNL     1       2.222  -6.001  32.705  0.00  0.00    +0.106 C 
ATOM     41  N   UNL     1       1.729  -6.625  33.941  0.00  0.00    -0.215 NA
ATOM     42  C   UNL     1       0.293  -6.623  34.011  0.00  0.00    +0.106 C 
ATOM     43  C   UNL     1      -0.357  -7.325  32.807  0.00  0.00    +0.092 C 
ENDBRANCH  11  38
TORSDOF 4
ENDMDL
