MODEL 1
REMARK VINA RESULT:    -9.795      0.000      0.000
REMARK INTER + INTRA:         -14.007
REMARK INTER:                 -12.086
REMARK INTRA:                  -1.921
REMARK UNBOUND:                -1.921
REMARK  Name = =
REMARK  4 active torsions:
REMARK  status: ('A' for Active; 'I' for Inactive)
REMARK    1  A    between atoms: C_1  and  C_7
REMARK    2  A    between atoms: C_5  and  N_21
REMARK    3  A    between atoms: C_6  and  C_29
REMARK    4  A    between atoms: C_32  and  N_35
REMARK                            x       y       z     vdW  Elec       q    Type
REMARK                         _______ _______ _______ _____ _____    ______ ____
ROOT
ATOM      1  C   UNL     1       0.209  -3.784  28.336  0.00  0.00    +0.078 C 
ATOM      2  N   UNL     1      -0.268  -2.751  29.263  0.00  0.00    -0.295 NA
ATOM      3  C   UNL     1      -1.577  -3.266  29.695  0.00  0.00    +0.070 C 
ATOM      4  C   UNL     1      -1.281  -4.369  30.641  0.00  0.00    +0.037 C 
ATOM      5  C   UNL     1      -0.348  -5.438  30.153  0.00  0.00    +0.085 C 
ATOM      6  C   UNL     1       0.490  -5.094  28.957  0.00  0.00    +0.037 C 
ATOM      7  H   UNL     1      -0.366  -1.853  28.791  0.00  0.00    +0.124 HD
ENDROOT
BRANCH   1   8
ATOM      8  C   UNL     1       1.251  -3.172  27.529  0.00  0.00    -0.006 C 
ATOM      9  C   UNL     1       0.894  -2.470  26.396  0.00  0.00    +0.018 C 
ATOM     10  C   UNL     1       1.819  -1.840  25.579  0.00  0.00    +0.099 A 
ATOM     11  C   UNL     1       3.161  -1.904  25.890  0.00  0.00    +0.099 A 
ATOM     12  C   UNL     1       3.556  -2.597  27.014  0.00  0.00    +0.020 C 
ATOM     13  C   UNL     1       2.588  -3.219  27.815  0.00  0.00    -0.001 C 
ATOM     14  N   UNL     1       4.077  -1.290  25.095  0.00  0.00    -0.242 NA
ATOM     15  C   UNL     1       3.696  -0.616  24.001  0.00  0.00    +0.099 A 
ATOM     16  C   UNL     1       4.625   0.018  23.178  0.00  0.00    +0.021 C 
ATOM     17  C   UNL     1       4.203   0.703  22.062  0.00  0.00    +0.002 C 
ATOM     18  C   UNL     1       2.864   0.773  21.742  0.00  0.00    +0.002 C 
ATOM     19  C   UNL     1       1.950   0.149  22.552  0.00  0.00    +0.021 C 
ATOM     20  C   UNL     1       2.348  -0.552  23.689  0.00  0.00    +0.099 A 
ATOM     21  N   UNL     1       1.450  -1.162  24.480  0.00  0.00    -0.242 NA
ENDBRANCH   1   8
BRANCH   5  22
ATOM     22  N   UNL     1       0.427  -5.850  31.288  0.00  0.00    -0.229 N 
ATOM     23  C   UNL     1       0.047  -6.950  32.093  0.00  0.00    +0.247 C 
ATOM     24  O   UNL     1      -1.142  -7.357  32.108  0.00  0.00    -0.273 OA
ATOM     25  C   UNL     1       1.034  -7.668  32.949  0.00  0.00    +0.156 C 
ATOM     26  N   UNL     1       1.830  -6.651  33.618  0.00  0.00    -0.282 NA
ATOM     27  C   UNL     1       2.517  -5.875  32.629  0.00  0.00    +0.156 C 
ATOM     28  C   UNL     1       1.625  -5.188  31.664  0.00  0.00    +0.247 C 
ATOM     29  O   UNL     1       1.957  -4.065  31.223  0.00  0.00    -0.273 OA
ATOM     30  H   UNL     1       2.509  -7.098  34.235  0.00  0.00    +0.124 HD
ENDBRANCH   5  22
BRANCH   6  31
ATOM     31  C   UNL     1       0.395  -6.137  27.866  0.00  0.00    +0.003 C 
ATOM     32  C   UNL     1       1.692  -6.869  27.764  0.00  0.00    +0.002 C 
ATOM     33  C   UNL     1       1.579  -7.872  26.590  0.00  0.00    +0.020 C 
ATOM     34  C   UNL     1       0.660  -8.951  27.185  0.00  0.00    +0.075 C 
ATOM     35  C   UNL     1      -0.689  -8.358  27.337  0.00  0.00    +0.020 C 
ATOM     36  C   UNL     1      -0.798  -7.036  27.990  0.00  0.00    +0.002 C 
BRANCH  34  37
ATOM     37  N   UNL     1       0.598 -10.089  26.323  0.00  0.00    -0.281 N 
ATOM     38  C   UNL     1      -0.305 -10.069  25.187  0.00  0.00    +0.093 C 
ATOM     39  C   UNL     1       0.178 -11.087  24.176  0.00  0.00    +0.022 C 
ATOM     40  C   UNL     1       0.067 -12.477  24.809  0.00  0.00    +0.011 C 
ATOM     41  C   UNL     1       1.052 -12.582  25.949  0.00  0.00    +0.085 C 
ATOM     42  C   UNL     1       1.385 -11.257  26.527  0.00  0.00    +0.226 C 
ATOM     43  O   UNL     1       2.412 -11.160  27.230  0.00  0.00    -0.275 OA
ENDBRANCH  34  37
ENDBRANCH   6  31
TORSDOF 4
ENDMDL
