REMARK  Name = =
REMARK  4 active torsions:
REMARK  status: ('A' for Active; 'I' for Inactive)
REMARK    1  A    between atoms: C_1  and  C_7
REMARK    2  A    between atoms: C_5  and  N_21
REMARK    3  A    between atoms: C_6  and  C_29
REMARK    4  A    between atoms: C_32  and  N_35
REMARK                            x       y       z     vdW  Elec       q    Type
REMARK                         _______ _______ _______ _____ _____    ______ ____
ROOT
ATOM      1  C   UNL     1       0.466  -3.530  28.153  0.00  0.00    +0.078 C 
ATOM      2  N   UNL     1       1.904  -3.818  28.199  0.00  0.00    -0.295 NA
ATOM      3  C   UNL     1       2.137  -4.139  29.616  0.00  0.00    +0.070 C 
ATOM      4  C   UNL     1       1.578  -5.498  29.816  0.00  0.00    +0.037 C 
ATOM      5  C   UNL     1       0.158  -5.709  29.380  0.00  0.00    +0.085 C 
ATOM      6  C   UNL     1      -0.408  -4.685  28.441  0.00  0.00    +0.037 C 
ATOM      7  H   UNL     1       2.449  -3.005  27.914  0.00  0.00    +0.124 HD
ENDROOT
BRANCH   1   8
ATOM      8  C   UNL     1       0.229  -2.780  26.931  0.00  0.00    -0.006 C 
ATOM      9  C   UNL     1       1.309  -2.375  26.174  0.00  0.00    +0.018 C 
ATOM     10  C   UNL     1       1.174  -1.673  24.987  0.00  0.00    +0.099 A 
ATOM     11  C   UNL     1      -0.084  -1.351  24.522  0.00  0.00    +0.099 A 
ATOM     12  C   UNL     1      -1.187  -1.739  25.252  0.00  0.00    +0.020 C 
ATOM     13  C   UNL     1      -1.007  -2.449  26.447  0.00  0.00    -0.001 C 
ATOM     14  N   UNL     1      -0.227  -0.662  23.359  0.00  0.00    -0.242 NA
ATOM     15  C   UNL     1       0.844  -0.284  22.648  0.00  0.00    +0.099 A 
ATOM     16  C   UNL     1       0.711   0.423  21.454  0.00  0.00    +0.021 C 
ATOM     17  C   UNL     1       1.829   0.797  20.746  0.00  0.00    +0.002 C 
ATOM     18  C   UNL     1       3.091   0.481  21.202  0.00  0.00    +0.002 C 
ATOM     19  C   UNL     1       3.222  -0.215  22.376  0.00  0.00    +0.021 C 
ATOM     20  C   UNL     1       2.107  -0.607  23.115  0.00  0.00    +0.099 A 
ATOM     21  N   UNL     1       2.239  -1.288  24.265  0.00  0.00    -0.242 NA
ENDBRANCH   1   8
BRANCH   5  22
ATOM     22  N   UNL     1       0.085  -7.048  28.868  0.00  0.00    -0.229 N 
ATOM     23  C   UNL     1      -0.523  -8.095  29.600  0.00  0.00    +0.247 C 
ATOM     24  O   UNL     1      -0.663  -8.013  30.846  0.00  0.00    -0.273 OA
ATOM     25  C   UNL     1      -1.020  -9.330  28.928  0.00  0.00    +0.156 C 
ATOM     26  N   UNL     1       0.010  -9.742  27.988  0.00  0.00    -0.282 NA
ATOM     27  C   UNL     1       0.197  -8.702  27.020  0.00  0.00    +0.156 C 
ATOM     28  C   UNL     1       0.606  -7.398  27.595  0.00  0.00    +0.247 C 
ATOM     29  O   UNL     1       1.385  -6.666  26.946  0.00  0.00    -0.273 OA
ATOM     30  H   UNL     1      -0.279 -10.600  27.518  0.00  0.00    +0.124 HD
ENDBRANCH   5  22
BRANCH   6  31
ATOM     31  C   UNL     1      -1.734  -4.135  28.918  0.00  0.00    +0.003 C 
ATOM     32  C   UNL     1      -2.535  -5.235  29.533  0.00  0.00    +0.002 C 
ATOM     33  C   UNL     1      -3.910  -4.649  29.939  0.00  0.00    +0.020 C 
ATOM     34  C   UNL     1      -3.542  -3.807  31.171  0.00  0.00    +0.075 C 
ATOM     35  C   UNL     1      -2.738  -2.654  30.703  0.00  0.00    +0.020 C 
ATOM     36  C   UNL     1      -1.608  -2.920  29.787  0.00  0.00    +0.002 C 
BRANCH  34  37
ATOM     37  N   UNL     1      -4.721  -3.342  31.832  0.00  0.00    -0.281 N 
ATOM     38  C   UNL     1      -5.645  -2.485  31.113  0.00  0.00    +0.093 C 
ATOM     39  C   UNL     1      -6.998  -2.571  31.788  0.00  0.00    +0.022 C 
ATOM     40  C   UNL     1      -6.864  -1.996  33.200  0.00  0.00    +0.011 C 
ATOM     41  C   UNL     1      -5.976  -2.901  34.021  0.00  0.00    +0.085 C 
ATOM     42  C   UNL     1      -5.036  -3.680  33.178  0.00  0.00    +0.226 C 
ATOM     43  O   UNL     1      -4.492  -4.687  33.676  0.00  0.00    -0.275 OA
ENDBRANCH  34  37
ENDBRANCH   6  31
TORSDOF 4
