REMARK  Name = =
REMARK  3 active torsions:
REMARK  status: ('A' for Active; 'I' for Inactive)
REMARK    1  A    between atoms: C_1  and  C_7
REMARK    2  A    between atoms: C_3  and  N_12
REMARK    3  A    between atoms: N_12  and  S_13
REMARK                            x       y       z     vdW  Elec       q    Type
REMARK                         _______ _______ _______ _____ _____    ______ ____
ROOT
ATOM      1  C   UNL     1      51.370 155.412  29.133  0.00  0.00    -0.021 C 
ATOM      2  C   UNL     1      51.444 155.541  27.763  0.00  0.00    +0.012 C 
ATOM      3  C   UNL     1      52.073 154.613  26.941  0.00  0.00    +0.064 C 
ATOM      4  C   UNL     1      52.660 153.496  27.528  0.00  0.00    +0.016 C 
ATOM      5  C   UNL     1      52.589 153.361  28.896  0.00  0.00    +0.001 C 
ATOM      6  C   UNL     1      51.958 154.298  29.689  0.00  0.00    -0.004 C 
ENDROOT
BRANCH   1   7
ATOM      7  C   UNL     1      50.709 156.387  29.992  0.00  0.00    +0.022 C 
ATOM      8  C   UNL     1      51.464 157.694  30.102  0.00  0.00    +0.004 C 
ATOM      9  C   UNL     1      50.641 158.746  29.436  0.00  0.00    +0.000 C 
ATOM     10  C   UNL     1      49.218 158.284  29.774  0.00  0.00    +0.000 C 
ATOM     11  C   UNL     1      49.342 156.798  29.477  0.00  0.00    +0.004 C 
ENDBRANCH   1   7
BRANCH   3  12
ATOM     12  N   UNL     1      52.102 154.826  25.543  0.00  0.00    -0.222 N 
ATOM     13  H   UNL     1      51.260 155.047  25.083  0.00  0.00    +0.173 HD
BRANCH  12  14
ATOM     14  S   UNL     1      53.541 154.715  24.615  0.00  0.00    +0.033 S 
ATOM     15  O   UNL     1      54.634 153.983  25.305  0.00  0.00    -0.158 OA
ATOM     16  O   UNL     1      53.245 153.954  23.331  0.00  0.00    -0.158 OA
ATOM     17  H   UNL     1      53.950 155.993  24.393  0.00  0.00    +0.233 HD
ENDBRANCH  12  14
ENDBRANCH   3  12
TORSDOF 3
