REMARK  Name = =
REMARK  4 active torsions:
REMARK  status: ('A' for Active; 'I' for Inactive)
REMARK    1  A    between atoms: C_1  and  C_6
REMARK    2  A    between atoms: C_1  and  C_20
REMARK    3  A    between atoms: C_22  and  N_26
REMARK    4  A    between atoms: N_26  and  S_27
REMARK                            x       y       z     vdW  Elec       q    Type
REMARK                         _______ _______ _______ _____ _____    ______ ____
ROOT
ATOM      1  C   UNL     1      52.541 155.381  27.713  0.00  0.00    +0.021 C 
ATOM      2  C   UNL     1      53.224 154.027  27.915  0.00  0.00    +0.004 C 
ATOM      3  C   UNL     1      53.532 153.525  26.514  0.00  0.00    +0.000 C 
ATOM      4  C   UNL     1      52.253 153.958  25.782  0.00  0.00    +0.000 C 
ATOM      5  C   UNL     1      52.148 155.393  26.290  0.00  0.00    +0.004 C 
ENDROOT
BRANCH   1   6
ATOM      6  C   UNL     1      53.513 156.477  28.105  0.00  0.00    +0.034 C 
ATOM      7  C   UNL     1      53.559 156.655  29.598  0.00  0.00    +0.147 C 
ATOM      8  O   UNL     1      54.576 157.536  29.942  0.00  0.00    -0.313 OA
ATOM      9  C   UNL     1      54.435 158.787  29.389  0.00  0.00    +0.296 C 
ATOM     10  O   UNL     1      53.267 159.431  29.776  0.00  0.00    -0.310 OA
ATOM     11  C   UNL     1      53.555 160.785  29.805  0.00  0.00    +0.177 C 
ATOM     12  C   UNL     1      55.053 160.882  29.793  0.00  0.00    +0.152 C 
ATOM     13  O   UNL     1      55.489 159.577  29.796  0.00  0.00    -0.312 OA
ATOM     14  C   UNL     1      55.510 161.547  31.070  0.00  0.00    +0.064 C 
ATOM     15  C   UNL     1      54.729 162.789  31.341  0.00  0.00    +0.145 C 
ATOM     16  O   UNL     1      53.366 162.619  31.384  0.00  0.00    -0.351 OA
ATOM     17  C   UNL     1      52.927 161.363  31.046  0.00  0.00    +0.174 C 
ATOM     18  C   UNL     1      54.467 158.691  27.890  0.00  0.00    +0.088 C 
ATOM     19  C   UNL     1      53.285 157.801  27.488  0.00  0.00    +0.011 C 
ENDBRANCH   1   6
BRANCH   1  20
ATOM     20  C   UNL     1      51.425 155.437  28.696  0.00  0.00    -0.021 C 
ATOM     21  C   UNL     1      50.441 156.389  28.713  0.00  0.00    +0.012 C 
ATOM     22  C   UNL     1      49.420 156.457  29.641  0.00  0.00    +0.064 C 
ATOM     23  C   UNL     1      49.372 155.504  30.628  0.00  0.00    +0.016 C 
ATOM     24  C   UNL     1      50.332 154.529  30.653  0.00  0.00    +0.001 C 
ATOM     25  C   UNL     1      51.337 154.486  29.718  0.00  0.00    -0.004 C 
BRANCH  22  26
ATOM     26  N   UNL     1      48.491 157.543  29.557  0.00  0.00    -0.222 N 
ATOM     27  H   UNL     1      47.653 157.461  29.046  0.00  0.00    +0.173 HD
BRANCH  26  28
ATOM     28  S   UNL     1      48.898 159.003  30.387  0.00  0.00    +0.033 S 
ATOM     29  O   UNL     1      49.848 159.814  29.513  0.00  0.00    -0.158 OA
ATOM     30  O   UNL     1      49.557 158.759  31.685  0.00  0.00    -0.158 OA
ATOM     31  H   UNL     1      47.737 159.669  30.629  0.00  0.00    +0.233 HD
ENDBRANCH  26  28
ENDBRANCH  22  26
ENDBRANCH   1  20
TORSDOF 4
