REMARK  Name = =
REMARK  0 active torsions:
REMARK  status: ('A' for Active; 'I' for Inactive)
REMARK                            x       y       z     vdW  Elec       q    Type
REMARK                         _______ _______ _______ _____ _____    ______ ____
ROOT
ATOM      1  N   UNL     1      -4.345  -2.265  32.239  0.00  0.00    -0.343 N 
ATOM      2  C   UNL     1      -4.137  -3.669  32.311  0.00  0.00    +0.125 C 
ATOM      3  N   UNL     1      -4.036  -4.281  33.501  0.00  0.00    -0.230 NA
ATOM      4  C   UNL     1      -3.839  -5.602  33.650  0.00  0.00    +0.100 C 
ATOM      5  C   UNL     1      -3.734  -6.387  32.520  0.00  0.00    +0.021 C 
ATOM      6  C   UNL     1      -3.827  -5.834  31.256  0.00  0.00    +0.004 C 
ATOM      7  C   UNL     1      -4.030  -4.465  31.188  0.00  0.00    +0.034 C 
ATOM      8  H   UNL     1      -4.416  -1.735  33.066  0.00  0.00    +0.144 HD
ATOM      9  H   UNL     1      -4.419  -1.823  31.363  0.00  0.00    +0.144 HD
ENDROOT
TORSDOF 0
