REMARK  Name = =
REMARK  2 active torsions:
REMARK  status: ('A' for Active; 'I' for Inactive)
REMARK    1  A    between atoms: N_1  and  C_16
REMARK    2  A    between atoms: C_4  and  O_17
REMARK                            x       y       z     vdW  Elec       q    Type
REMARK                         _______ _______ _______ _____ _____    ______ ____
ROOT
ATOM      1  N   UNL     1      -2.033  -6.193  30.654  0.00  0.00    -0.262 N 
ATOM      2  C   UNL     1      -2.598  -4.974  30.586  0.00  0.00    +0.059 C 
ATOM      3  C   UNL     1      -3.672  -4.875  31.433  0.00  0.00    +0.049 C 
ATOM      4  C   UNL     1      -4.436  -3.723  31.562  0.00  0.00    +0.135 C 
ATOM      5  C   UNL     1      -4.065  -2.648  30.781  0.00  0.00    +0.037 C 
ATOM      6  C   UNL     1      -2.986  -2.725  29.919  0.00  0.00    +0.004 C 
ATOM      7  C   UNL     1      -2.247  -3.887  29.817  0.00  0.00    +0.015 C 
ATOM      8  C   UNL     1      -3.777  -6.101  32.060  0.00  0.00    +0.021 C 
ATOM      9  C   UNL     1      -2.758  -6.879  31.557  0.00  0.00    +0.070 C 
ENDROOT
BRANCH   1  16
ATOM     10  N   UNL     1       0.653  -5.861  31.577  0.00  0.00    -0.342 N 
ATOM     11  C   UNL     1       0.393  -6.535  30.369  0.00  0.00    +0.139 C 
ATOM     12  N   UNL     1       1.440  -7.028  29.645  0.00  0.00    -0.228 NA
ATOM     13  C   UNL     1       1.268  -7.676  28.493  0.00  0.00    +0.100 C 
ATOM     14  C   UNL     1      -0.013  -7.862  28.005  0.00  0.00    +0.022 C 
ATOM     15  C   UNL     1      -1.060  -7.373  28.723  0.00  0.00    +0.020 C 
ATOM     16  C   UNL     1      -0.902  -6.689  29.933  0.00  0.00    +0.087 C 
ATOM     17  H   UNL     1       1.580  -5.751  31.889  0.00  0.00    +0.144 HD
ATOM     18  H   UNL     1      -0.092  -5.500  32.110  0.00  0.00    +0.144 HD
ENDBRANCH   1  16
BRANCH   4  19
ATOM     19  O   UNL     1      -5.520  -3.658  32.432  0.00  0.00    -0.505 OA
ATOM     20  H   UNL     1      -5.750  -4.404  32.951  0.00  0.00    +0.292 HD
ENDBRANCH   4  19
TORSDOF 2
