REMARK  Name = =
REMARK  3 active torsions:
REMARK  status: ('A' for Active; 'I' for Inactive)
REMARK    1  A    between atoms: N_1  and  C_16
REMARK    2  A    between atoms: C_4  and  O_23
REMARK    3  A    between atoms: C_5  and  N_17
REMARK                            x       y       z     vdW  Elec       q    Type
REMARK                         _______ _______ _______ _____ _____    ______ ____
ROOT
ATOM      1  N   UNL     1      -1.328  -5.574  30.557  0.00  0.00    -0.262 N 
ATOM      2  C   UNL     1      -0.494  -5.513  29.521  0.00  0.00    +0.059 C 
ATOM      3  C   UNL     1       0.531  -6.423  29.765  0.00  0.00    +0.050 C 
ATOM      4  C   UNL     1       1.537  -6.544  28.814  0.00  0.00    +0.148 C 
ATOM      5  C   UNL     1       1.558  -5.805  27.651  0.00  0.00    +0.082 C 
ATOM      6  C   UNL     1       0.525  -4.914  27.444  0.00  0.00    +0.019 C 
ATOM      7  C   UNL     1      -0.503  -4.748  28.350  0.00  0.00    +0.017 C 
ATOM      8  C   UNL     1       0.267  -7.014  30.976  0.00  0.00    +0.021 C 
ATOM      9  C   UNL     1      -0.895  -6.465  31.444  0.00  0.00    +0.070 C 
ENDROOT
BRANCH   1  16
ATOM     10  N   UNL     1      -3.793  -6.893  30.986  0.00  0.00    -0.342 N 
ATOM     11  C   UNL     1      -3.704  -5.477  30.917  0.00  0.00    +0.139 C 
ATOM     12  N   UNL     1      -4.818  -4.729  31.059  0.00  0.00    -0.228 NA
ATOM     13  C   UNL     1      -4.781  -3.368  31.000  0.00  0.00    +0.100 C 
ATOM     14  C   UNL     1      -3.609  -2.674  30.793  0.00  0.00    +0.022 C 
ATOM     15  C   UNL     1      -2.453  -3.414  30.645  0.00  0.00    +0.020 C 
ATOM     16  C   UNL     1      -2.521  -4.798  30.710  0.00  0.00    +0.087 C 
ATOM     17  H   UNL     1      -4.665  -7.325  31.136  0.00  0.00    +0.144 HD
ATOM     18  H   UNL     1      -2.983  -7.443  30.884  0.00  0.00    +0.144 HD
ENDBRANCH   1  16
BRANCH   5  19
ATOM     19  N   UNL     1       2.579  -5.916  26.667  0.00  0.00    -0.302 N 
ATOM     20  C   UNL     1       2.494  -6.943  25.647  0.00  0.00    +0.108 C 
ATOM     21  C   UNL     1       3.769  -7.728  25.659  0.00  0.00    +0.090 C 
ATOM     22  N   UNL     1       4.944  -6.913  25.672  0.00  0.00    -0.295 NA
ATOM     23  C   UNL     1       4.669  -5.496  25.566  0.00  0.00    +0.090 C 
ATOM     24  C   UNL     1       3.724  -5.020  26.645  0.00  0.00    +0.108 C 
ATOM     25  H   UNL     1       5.534  -7.186  24.886  0.00  0.00    +0.123 HD
ENDBRANCH   5  19
BRANCH   4  26
ATOM     26  O   UNL     1       2.566  -7.432  29.022  0.00  0.00    -0.504 OA
ATOM     27  H   UNL     1       2.586  -7.952  29.801  0.00  0.00    +0.292 HD
ENDBRANCH   4  26
TORSDOF 3
