REMARK  Name = =
REMARK  5 active torsions:
REMARK  status: ('A' for Active; 'I' for Inactive)
REMARK    1  A    between atoms: N_1  and  C_2
REMARK    2  A    between atoms: C_6  and  N_8
REMARK    3  A    between atoms: C_7  and  N_17
REMARK    4  A    between atoms: C_20  and  O_32
REMARK    5  A    between atoms: C_21  and  N_26
REMARK                            x       y       z     vdW  Elec       q    Type
REMARK                         _______ _______ _______ _____ _____    ______ ____
ROOT
ATOM      1  C   UNL     1       2.422  -8.013  27.654  0.00  0.00    +0.141 C 
ATOM      2  N   UNL     1       2.941  -8.833  26.725  0.00  0.00    -0.228 NA
ATOM      3  C   UNL     1       3.909  -8.436  25.872  0.00  0.00    +0.102 C 
ATOM      4  C   UNL     1       4.409  -7.165  25.919  0.00  0.00    +0.037 C 
ATOM      5  C   UNL     1       3.897  -6.300  26.861  0.00  0.00    +0.072 C 
ATOM      6  C   UNL     1       2.904  -6.724  27.729  0.00  0.00    +0.101 C 
ENDROOT
BRANCH   5   7
ATOM      7  N   UNL     1       4.361  -4.952  26.982  0.00  0.00    -0.261 N 
ATOM      8  C   UNL     1       5.424  -4.499  27.647  0.00  0.00    +0.226 C 
ATOM      9  N   UNL     1       5.493  -3.174  27.499  0.00  0.00    -0.229 NA
ATOM     10  C   UNL     1       4.458  -2.803  26.733  0.00  0.00    +0.176 C 
ATOM     11  C   UNL     1       3.735  -3.925  26.400  0.00  0.00    +0.106 C 
ATOM     12  C   UNL     1       2.583  -3.843  25.595  0.00  0.00    +0.105 C 
ATOM     13  N   UNL     1       2.219  -2.627  25.166  0.00  0.00    -0.189 NA
ATOM     14  C   UNL     1       2.913  -1.517  25.481  0.00  0.00    +0.187 C 
ATOM     15  N   UNL     1       4.019  -1.610  26.254  0.00  0.00    -0.206 NA
ENDBRANCH   5   7
BRANCH   6  16
ATOM     16  N   UNL     1       2.371  -5.830  28.707  0.00  0.00    -0.261 N 
ATOM     17  C   UNL     1       1.216  -5.175  28.544  0.00  0.00    +0.059 C 
ATOM     18  C   UNL     1       1.024  -4.415  29.673  0.00  0.00    +0.050 C 
ATOM     19  C   UNL     1      -0.115  -3.612  29.793  0.00  0.00    +0.148 C 
ATOM     20  C   UNL     1      -1.050  -3.583  28.770  0.00  0.00    +0.082 C 
ATOM     21  C   UNL     1      -0.835  -4.354  27.647  0.00  0.00    +0.019 C 
ATOM     22  C   UNL     1       0.271  -5.152  27.497  0.00  0.00    +0.017 C 
ATOM     23  C   UNL     1       2.093  -4.631  30.516  0.00  0.00    +0.021 C 
ATOM     24  C   UNL     1       2.922  -5.524  29.882  0.00  0.00    +0.070 C 
BRANCH  20  25
ATOM     25  N   UNL     1      -2.184  -2.761  28.927  0.00  0.00    -0.302 N 
ATOM     26  C   UNL     1      -2.272  -1.393  28.526  0.00  0.00    +0.108 C 
ATOM     27  C   UNL     1      -2.959  -0.499  29.503  0.00  0.00    +0.090 C 
ATOM     28  N   UNL     1      -4.018  -1.113  30.239  0.00  0.00    -0.295 NA
ATOM     29  C   UNL     1      -3.742  -2.439  30.699  0.00  0.00    +0.090 C 
ATOM     30  C   UNL     1      -3.367  -3.358  29.552  0.00  0.00    +0.108 C 
ATOM     31  H   UNL     1      -4.841  -1.151  29.638  0.00  0.00    +0.123 HD
ENDBRANCH  20  25
BRANCH  19  32
ATOM     32  O   UNL     1      -0.284  -2.852  30.949  0.00  0.00    -0.504 OA
ATOM     33  H   UNL     1       0.359  -2.885  31.630  0.00  0.00    +0.292 HD
ENDBRANCH  19  32
ENDBRANCH   6  16
BRANCH   1  34
ATOM     34  N   UNL     1       1.404  -8.404  28.564  0.00  0.00    -0.342 N 
ATOM     35  H   UNL     1       1.061  -7.760  29.225  0.00  0.00    +0.144 HD
ATOM     36  H   UNL     1       1.042  -9.319  28.534  0.00  0.00    +0.144 HD
ENDBRANCH   1  34
TORSDOF 5
