REMARK  Name = =
REMARK  5 active torsions:
REMARK  status: ('A' for Active; 'I' for Inactive)
REMARK    1  A    between atoms: C_4  and  N_33
REMARK    2  A    between atoms: C_6  and  N_8
REMARK    3  A    between atoms: C_7  and  N_17
REMARK    4  A    between atoms: C_20  and  O_32
REMARK    5  A    between atoms: C_21  and  N_26
REMARK                            x       y       z     vdW  Elec       q    Type
REMARK                         _______ _______ _______ _____ _____    ______ ____
ROOT
ATOM      1  N   UNL     1       0.755  -7.781  27.980  0.00  0.00    -0.342 N 
ATOM      2  C   UNL     1       1.894  -8.518  27.517  0.00  0.00    +0.142 C 
ATOM      3  N   UNL     1       1.842  -9.833  27.282  0.00  0.00    -0.215 NA
ATOM      4  C   UNL     1       2.877 -10.571  26.848  0.00  0.00    +0.136 C 
ATOM      5  C   UNL     1       4.060  -9.836  26.652  0.00  0.00    +0.051 C 
ATOM      6  C   UNL     1       4.143  -8.497  26.882  0.00  0.00    +0.073 C 
ATOM      7  C   UNL     1       3.050  -7.787  27.326  0.00  0.00    +0.101 C 
ATOM      8  H   UNL     1      -0.100  -8.243  28.136  0.00  0.00    +0.144 HD
ATOM      9  H   UNL     1       0.828  -6.813  28.142  0.00  0.00    +0.144 HD
ENDROOT
BRANCH   6  10
ATOM     10  N   UNL     1       5.359  -7.792  26.669  0.00  0.00    -0.261 N 
ATOM     11  C   UNL     1       6.241  -7.534  27.653  0.00  0.00    +0.226 C 
ATOM     12  N   UNL     1       7.290  -6.853  27.152  0.00  0.00    -0.231 NA
ATOM     13  C   UNL     1       7.053  -6.687  25.830  0.00  0.00    +0.166 C 
ATOM     14  C   UNL     1       5.836  -7.276  25.523  0.00  0.00    +0.106 C 
ATOM     15  C   UNL     1       5.305  -7.281  24.254  0.00  0.00    +0.118 C 
ATOM     16  N   UNL     1       6.011  -6.677  23.261  0.00  0.00    -0.223 NA
ATOM     17  C   UNL     1       7.197  -6.098  23.547  0.00  0.00    +0.187 C 
ATOM     18  N   UNL     1       7.709  -6.103  24.808  0.00  0.00    -0.172 NA
ENDBRANCH   6  10
BRANCH   7  19
ATOM     19  N   UNL     1       3.099  -6.389  27.577  0.00  0.00    -0.261 N 
ATOM     20  C   UNL     1       3.027  -5.355  26.732  0.00  0.00    +0.059 C 
ATOM     21  C   UNL     1       3.121  -4.162  27.426  0.00  0.00    +0.050 C 
ATOM     22  C   UNL     1       3.073  -2.942  26.787  0.00  0.00    +0.148 C 
ATOM     23  C   UNL     1       2.927  -2.873  25.400  0.00  0.00    +0.082 C 
ATOM     24  C   UNL     1       2.835  -4.062  24.721  0.00  0.00    +0.019 C 
ATOM     25  C   UNL     1       2.884  -5.299  25.374  0.00  0.00    +0.017 C 
ATOM     26  C   UNL     1       3.257  -4.499  28.766  0.00  0.00    +0.021 C 
ATOM     27  C   UNL     1       3.241  -5.868  28.823  0.00  0.00    +0.070 C 
BRANCH  23  28
ATOM     28  N   UNL     1       2.882  -1.598  24.773  0.00  0.00    -0.302 N 
ATOM     29  C   UNL     1       4.107  -0.950  24.292  0.00  0.00    +0.108 C 
ATOM     30  C   UNL     1       3.918  -0.705  22.813  0.00  0.00    +0.090 C 
ATOM     31  N   UNL     1       2.707  -0.014  22.508  0.00  0.00    -0.295 NA
ATOM     32  C   UNL     1       1.532  -0.552  23.107  0.00  0.00    +0.090 C 
ATOM     33  C   UNL     1       1.652  -0.857  24.566  0.00  0.00    +0.108 C 
ATOM     34  H   UNL     1       2.581  -0.031  21.496  0.00  0.00    +0.123 HD
ENDBRANCH  23  28
BRANCH  22  35
ATOM     35  O   UNL     1       3.167  -1.740  27.482  0.00  0.00    -0.504 OA
ATOM     36  H   UNL     1       3.266  -1.744  28.414  0.00  0.00    +0.292 HD
ENDBRANCH  22  35
ENDBRANCH   7  19
BRANCH   4  37
ATOM     37  N   UNL     1       2.836 -11.963  26.596  0.00  0.00    -0.283 N 
ATOM     38  C   UNL     1       2.416 -12.602  25.422  0.00  0.00    +0.133 C 
ATOM     39  N   UNL     1       2.467 -13.955  25.416  0.00  0.00    -0.229 NA
ATOM     40  C   UNL     1       2.109 -14.730  24.393  0.00  0.00    +0.100 C 
ATOM     41  C   UNL     1       1.655 -14.105  23.262  0.00  0.00    +0.021 C 
ATOM     42  C   UNL     1       1.580 -12.718  23.209  0.00  0.00    +0.004 C 
ATOM     43  C   UNL     1       1.969 -11.969  24.312  0.00  0.00    +0.034 C 
ATOM     44  H   UNL     1       3.137 -12.548  27.328  0.00  0.00    +0.155 HD
ENDBRANCH   4  37
TORSDOF 5
