REMARK  Name = =
REMARK  6 active torsions:
REMARK  status: ('A' for Active; 'I' for Inactive)
REMARK    1  A    between atoms: C_4  and  N_33
REMARK    2  A    between atoms: C_6  and  N_8
REMARK    3  A    between atoms: C_7  and  N_17
REMARK    4  A    between atoms: C_20  and  O_32
REMARK    5  A    between atoms: C_21  and  N_26
REMARK    6  A    between atoms: N_33  and  N_40
REMARK                            x       y       z     vdW  Elec       q    Type
REMARK                         _______ _______ _______ _____ _____    ______ ____
ROOT
ATOM      1  N   UNL     1       1.269  -8.318  26.656  0.00  0.00    -0.342 N 
ATOM      2  C   UNL     1       2.456  -8.994  26.252  0.00  0.00    +0.142 C 
ATOM      3  N   UNL     1       2.449 -10.310  25.932  0.00  0.00    -0.213 NA
ATOM      4  C   UNL     1       3.578 -10.934  25.553  0.00  0.00    +0.153 C 
ATOM      5  C   UNL     1       4.775 -10.228  25.484  0.00  0.00    +0.052 C 
ATOM      6  C   UNL     1       4.767  -8.893  25.812  0.00  0.00    +0.069 C 
ATOM      7  C   UNL     1       3.613  -8.246  26.202  0.00  0.00    +0.101 C 
ATOM      8  H   UNL     1       0.417  -8.808  26.708  0.00  0.00    +0.144 HD
ATOM      9  H   UNL     1       1.301  -7.361  26.884  0.00  0.00    +0.144 HD
ENDROOT
BRANCH   6  10
ATOM     10  N   UNL     1       5.976  -8.140  25.753  0.00  0.00    -0.276 N 
ATOM     11  C   UNL     1       6.416  -7.391  24.741  0.00  0.00    +0.222 C 
ATOM     12  N   UNL     1       7.599  -6.834  25.057  0.00  0.00    -0.232 NA
ATOM     13  C   UNL     1       7.945  -7.227  26.304  0.00  0.00    +0.162 C 
ATOM     14  C   UNL     1       6.909  -8.049  26.727  0.00  0.00    +0.175 C 
ATOM     15  C   UNL     1       6.990  -8.597  27.969  0.00  0.00    +0.102 C 
ATOM     16  N   UNL     1       8.051  -8.334  28.745  0.00  0.00    -0.225 NA
ATOM     17  C   UNL     1       9.066  -7.540  28.355  0.00  0.00    +0.200 C 
ATOM     18  N   UNL     1       8.971  -7.005  27.123  0.00  0.00    -0.207 NA
ENDBRANCH   6  10
BRANCH   7  19
ATOM     19  N   UNL     1       3.673  -6.864  26.527  0.00  0.00    -0.261 N 
ATOM     20  C   UNL     1       3.561  -5.802  25.702  0.00  0.00    +0.059 C 
ATOM     21  C   UNL     1       3.676  -4.617  26.417  0.00  0.00    +0.050 C 
ATOM     22  C   UNL     1       3.596  -3.384  25.804  0.00  0.00    +0.148 C 
ATOM     23  C   UNL     1       3.395  -3.283  24.445  0.00  0.00    +0.082 C 
ATOM     24  C   UNL     1       3.280  -4.475  23.735  0.00  0.00    +0.019 C 
ATOM     25  C   UNL     1       3.359  -5.711  24.344  0.00  0.00    +0.017 C 
ATOM     26  C   UNL     1       3.869  -4.990  27.736  0.00  0.00    +0.021 C 
ATOM     27  C   UNL     1       3.860  -6.350  27.756  0.00  0.00    +0.070 C 
BRANCH  23  28
ATOM     28  N   UNL     1       3.307  -2.020  23.775  0.00  0.00    -0.302 N 
ATOM     29  C   UNL     1       2.134  -1.194  23.815  0.00  0.00    +0.108 C 
ATOM     30  C   UNL     1       2.490   0.216  24.178  0.00  0.00    +0.090 C 
ATOM     31  N   UNL     1       3.700   0.689  23.583  0.00  0.00    -0.295 NA
ATOM     32  C   UNL     1       4.185  -0.178  22.525  0.00  0.00    +0.090 C 
ATOM     33  C   UNL     1       4.451  -1.561  23.025  0.00  0.00    +0.108 C 
ATOM     34  H   UNL     1       4.416   0.751  24.307  0.00  0.00    +0.123 HD
ENDBRANCH  23  28
BRANCH  22  35
ATOM     35  O   UNL     1       3.715  -2.212  26.535  0.00  0.00    -0.504 OA
ATOM     36  H   UNL     1       3.852  -2.249  27.461  0.00  0.00    +0.292 HD
ENDBRANCH  22  35
ENDBRANCH   7  19
BRANCH   4  37
ATOM     37  N   UNL     1       3.598 -12.321  25.210  0.00  0.00    -0.195 N 
ATOM     38  C   UNL     1       2.370 -12.900  24.792  0.00  0.00    +0.150 C 
ATOM     39  N   UNL     1       1.958 -12.935  23.512  0.00  0.00    -0.228 NA
ATOM     40  C   UNL     1       0.795 -13.483  23.120  0.00  0.00    +0.100 C 
ATOM     41  C   UNL     1      -0.083 -14.067  24.039  0.00  0.00    +0.021 C 
ATOM     42  C   UNL     1       0.311 -14.046  25.351  0.00  0.00    +0.005 C 
ATOM     43  C   UNL     1       1.502 -13.480  25.724  0.00  0.00    +0.036 C 
BRANCH  37  44
ATOM     44  N   UNL     1       4.710 -13.122  25.256  0.00  0.00    -0.181 NA
ATOM     45  C   UNL     1       4.961 -13.736  26.529  0.00  0.00    +0.164 C 
ATOM     46  N   UNL     1       4.262 -15.002  26.403  0.00  0.00    -0.281 NA
ATOM     47  C   UNL     1       4.281 -15.364  25.011  0.00  0.00    +0.089 C 
ATOM     48  C   UNL     1       4.795 -14.135  24.256  0.00  0.00    +0.111 C 
ATOM     49  H   UNL     1       3.299 -14.903  26.725  0.00  0.00    +0.125 HD
ENDBRANCH  37  44
ENDBRANCH   4  37
TORSDOF 6
