MODEL 1
REMARK VINA RESULT:    -9.238      0.000      0.000
REMARK INTER + INTRA:         -15.897
REMARK INTER:                 -14.639
REMARK INTRA:                  -1.258
REMARK UNBOUND:                -1.258
REMARK  Name = =
REMARK  11 active torsions:
REMARK  status: ('A' for Active; 'I' for Inactive)
REMARK    1  A    between atoms: C_1  and  O_19
REMARK    2  A    between atoms: C_2  and  S_7
REMARK    3  A    between atoms: C_4  and  C_11
REMARK    4  A    between atoms: S_7  and  N_10
REMARK    5  A    between atoms: C_12  and  N_13
REMARK    6  A    between atoms: C_14  and  C_16
REMARK    7  A    between atoms: C_16  and  O_18
REMARK    8  A    between atoms: O_19  and  C_23
REMARK    9  A    between atoms: C_22  and  C_25
REMARK   10  A    between atoms: C_25  and  N_28
REMARK   11  A    between atoms: C_31  and  N_33
REMARK                            x       y       z     vdW  Elec       q    Type
REMARK                         _______ _______ _______ _____ _____    ______ ____
ROOT
ATOM      1  C   UNL     1      -3.477  -3.920  30.892  0.00  0.00    +0.166 C 
ATOM      2  C   UNL     1      -4.076  -4.771  31.830  0.00  0.00    +0.156 C 
ATOM      3  C   UNL     1      -5.187  -4.284  32.513  0.00  0.00    +0.023 C 
ATOM      4  C   UNL     1      -5.727  -3.045  32.330  0.00  0.00    +0.003 C 
ATOM      5  C   UNL     1      -5.112  -2.234  31.399  0.00  0.00    +0.003 C 
ATOM      6  C   UNL     1      -3.993  -2.665  30.681  0.00  0.00    +0.039 C 
ENDROOT
BRANCH   2   7
ATOM      7  S   UNL     1      -3.488  -6.387  32.141  0.00  0.00    +0.060 S 
ATOM      8  O   UNL     1      -2.361  -6.306  33.121  0.00  0.00    -0.153 OA
ATOM      9  O   UNL     1      -4.566  -7.256  32.639  0.00  0.00    -0.153 OA
BRANCH   7  10
ATOM     10  N   UNL     1      -2.833  -7.070  30.683  0.00  0.00    -0.203 NA
ATOM     11  H   UNL     1      -3.346  -6.710  29.879  0.00  0.00    +0.144 HD
ATOM     12  H   UNL     1      -2.918  -8.086  30.715  0.00  0.00    +0.144 HD
ENDBRANCH   7  10
ENDBRANCH   2   7
BRANCH   4  13
ATOM     13  C   UNL     1      -6.907  -2.523  33.053  0.00  0.00    +0.016 C 
ATOM     14  C   UNL     1      -8.132  -2.797  32.719  0.00  0.00    +0.064 C 
BRANCH  14  15
ATOM     15  N   UNL     1      -9.261  -2.319  33.382  0.00  0.00    -0.274 N 
ATOM     16  C   UNL     1     -10.392  -3.068  33.675  0.00  0.00    +0.325 C 
ATOM     17  O   UNL     1     -10.560  -4.277  33.384  0.00  0.00    -0.263 OA
ATOM     18  H   UNL     1      -9.256  -1.376  33.666  0.00  0.00    +0.155 HD
BRANCH  16  19
ATOM     19  C   UNL     1     -11.520  -2.431  34.387  0.00  0.00    +0.393 C 
ATOM     20  O   UNL     1     -12.164  -1.543  33.792  0.00  0.00    -0.240 OA
BRANCH  19  21
ATOM     21  O   UNL     1     -11.895  -2.763  35.663  0.00  0.00    -0.474 OA
ATOM     22  H   UNL     1     -12.423  -2.173  36.165  0.00  0.00    +0.296 HD
ENDBRANCH  19  21
ENDBRANCH  16  19
ENDBRANCH  14  15
ENDBRANCH   4  13
BRANCH   1  23
ATOM     23  O   UNL     1      -2.373  -4.355  30.189  0.00  0.00    -0.431 OA
BRANCH  23  27
ATOM     24  O   UNL     1      -0.013  -1.889  29.357  0.00  0.00    -0.238 OA
ATOM     25  N   UNL     1       0.771  -2.883  29.533  0.00  0.00    -0.044 NA
ATOM     26  C   UNL     1       0.054  -4.015  29.882  0.00  0.00    +0.193 A 
ATOM     27  C   UNL     1      -1.259  -3.609  29.903  0.00  0.00    +0.290 A 
ATOM     28  N   UNL     1      -1.196  -2.299  29.569  0.00  0.00    -0.010 NA
BRANCH  26  29
ATOM     29  C   UNL     1       0.654  -5.300  30.151  0.00  0.00    +0.089 C 
ATOM     30  C   UNL     1       0.598  -6.210  29.157  0.00  0.00    +0.085 C 
ATOM     31 CL   UNL     1      -0.172  -5.801  27.652  0.00  0.00    -0.080 Cl
BRANCH  29  32
ATOM     32  N   UNL     1       1.295  -5.711  31.321  0.00  0.00    -0.282 N 
ATOM     33  C   UNL     1       0.882  -6.861  32.125  0.00  0.00    +0.062 C 
ATOM     34  C   UNL     1       1.640  -6.790  33.406  0.00  0.00    +0.007 C 
ATOM     35  C   UNL     1       2.648  -5.677  33.277  0.00  0.00    +0.102 C 
ATOM     36  C   UNL     1       2.434  -5.044  31.935  0.00  0.00    +0.116 C 
BRANCH  35  37
ATOM     37  N   UNL     1       2.447  -4.730  34.363  0.00  0.00    -0.266 NA
ATOM     38  C   UNL     1       3.623  -3.996  34.712  0.00  0.00    +0.090 C 
ATOM     39  C   UNL     1       1.935  -5.490  35.487  0.00  0.00    +0.090 C 
ENDBRANCH  35  37
ENDBRANCH  29  32
ENDBRANCH  26  29
ENDBRANCH  23  27
ENDBRANCH   1  23
TORSDOF 11
ENDMDL
