REMARK  Name = =
REMARK  11 active torsions:
REMARK  status: ('A' for Active; 'I' for Inactive)
REMARK    1  A    between atoms: C_1  and  O_19
REMARK    2  A    between atoms: C_2  and  S_7
REMARK    3  A    between atoms: C_4  and  C_11
REMARK    4  A    between atoms: S_7  and  N_10
REMARK    5  A    between atoms: C_12  and  N_13
REMARK    6  A    between atoms: C_14  and  C_16
REMARK    7  A    between atoms: C_16  and  O_18
REMARK    8  A    between atoms: O_19  and  C_23
REMARK    9  A    between atoms: C_22  and  C_25
REMARK   10  A    between atoms: C_25  and  N_28
REMARK   11  A    between atoms: C_31  and  N_33
REMARK                            x       y       z     vdW  Elec       q    Type
REMARK                         _______ _______ _______ _____ _____    ______ ____
ROOT
ATOM      1  C   UNL     1       0.952  -8.966  27.117  0.00  0.00    +0.166 C 
ATOM      2  C   UNL     1       1.135  -7.578  27.139  0.00  0.00    +0.156 C 
ATOM      3  C   UNL     1       0.404  -6.854  28.077  0.00  0.00    +0.023 C 
ATOM      4  C   UNL     1      -0.470  -7.403  28.969  0.00  0.00    +0.003 C 
ATOM      5  C   UNL     1      -0.625  -8.773  28.919  0.00  0.00    +0.003 C 
ATOM      6  C   UNL     1       0.080  -9.555  28.000  0.00  0.00    +0.039 C 
ENDROOT
BRANCH   2   7
ATOM      7  S   UNL     1       2.239  -6.759  26.060  0.00  0.00    +0.060 S 
ATOM      8  O   UNL     1       3.640  -7.075  26.479  0.00  0.00    -0.153 OA
ATOM      9  O   UNL     1       2.001  -7.149  24.661  0.00  0.00    -0.153 OA
BRANCH   7  10
ATOM     10  N   UNL     1       2.049  -5.038  26.213  0.00  0.00    -0.203 NA
ATOM     11  H   UNL     1       2.213  -4.763  27.181  0.00  0.00    +0.144 HD
ATOM     12  H   UNL     1       1.102  -4.775  25.940  0.00  0.00    +0.144 HD
ENDBRANCH   7  10
ENDBRANCH   2   7
BRANCH   4  13
ATOM     13  C   UNL     1      -1.248  -6.639  29.968  0.00  0.00    +0.016 C 
ATOM     14  C   UNL     1      -1.484  -5.365  29.874  0.00  0.00    +0.064 C 
BRANCH  14  15
ATOM     15  N   UNL     1      -2.214  -4.622  30.800  0.00  0.00    -0.274 N 
ATOM     16  C   UNL     1      -3.489  -4.117  30.592  0.00  0.00    +0.325 C 
ATOM     17  O   UNL     1      -4.165  -4.256  29.544  0.00  0.00    -0.263 OA
ATOM     18  H   UNL     1      -1.791  -4.441  31.671  0.00  0.00    +0.155 HD
BRANCH  16  19
ATOM     19  C   UNL     1      -4.148  -3.344  31.666  0.00  0.00    +0.393 C 
ATOM     20  O   UNL     1      -4.787  -3.972  32.534  0.00  0.00    -0.240 OA
BRANCH  19  21
ATOM     21  O   UNL     1      -4.095  -1.977  31.758  0.00  0.00    -0.474 OA
ATOM     22  H   UNL     1      -3.621  -1.482  31.118  0.00  0.00    +0.296 HD
ENDBRANCH  19  21
ENDBRANCH  16  19
ENDBRANCH  14  15
ENDBRANCH   4  13
BRANCH   1  23
ATOM     23  O   UNL     1       1.652  -9.728  26.206  0.00  0.00    -0.431 OA
BRANCH  23  27
ATOM     24  O   UNL     1       1.828 -13.203  26.689  0.00  0.00    -0.238 OA
ATOM     25  N   UNL     1       3.072 -12.945  26.553  0.00  0.00    -0.044 NA
ATOM     26  C   UNL     1       3.269 -11.590  26.343  0.00  0.00    +0.193 A 
ATOM     27  C   UNL     1       2.009 -11.043  26.364  0.00  0.00    +0.290 A 
ATOM     28  N   UNL     1       1.200 -12.105  26.581  0.00  0.00    -0.010 NA
BRANCH  26  29
ATOM     29  C   UNL     1       4.565 -10.983  26.150  0.00  0.00    +0.089 C 
ATOM     30  C   UNL     1       4.846 -10.549  24.904  0.00  0.00    +0.085 C 
ATOM     31 CL   UNL     1       3.672 -10.739  23.636  0.00  0.00    -0.080 Cl
BRANCH  29  32
ATOM     32  N   UNL     1       5.562 -10.785  27.106  0.00  0.00    -0.282 N 
ATOM     33  C   UNL     1       5.600  -9.654  28.033  0.00  0.00    +0.062 C 
ATOM     34  C   UNL     1       6.941  -9.669  28.682  0.00  0.00    +0.007 C 
ATOM     35  C   UNL     1       7.638 -10.937  28.258  0.00  0.00    +0.102 C 
ATOM     36  C   UNL     1       6.725 -11.639  27.298  0.00  0.00    +0.116 C 
BRANCH  35  37
ATOM     37  N   UNL     1       8.912 -10.594  27.645  0.00  0.00    -0.266 NA
ATOM     38  C   UNL     1       9.095  -9.191  27.444  0.00  0.00    +0.090 C 
ATOM     39  C   UNL     1       8.983 -11.329  26.397  0.00  0.00    +0.090 C 
ENDBRANCH  35  37
ENDBRANCH  29  32
ENDBRANCH  26  29
ENDBRANCH  23  27
ENDBRANCH   1  23
TORSDOF 11
