REMARK  Name = =
REMARK  0 active torsions:
REMARK  status: ('A' for Active; 'I' for Inactive)
REMARK                            x       y       z     vdW  Elec       q    Type
REMARK                         _______ _______ _______ _____ _____    ______ ____
ROOT
ATOM      1  C   UNL     1      -3.720  -3.431  30.872  0.00  0.00    +0.186 C 
ATOM      2  N   UNL     1      -4.472  -4.137  31.632  0.00  0.00    -0.189 NA
ATOM      3  C   UNL     1      -5.431  -3.252  32.222  0.00  0.00    +0.108 C 
ATOM      4  C   UNL     1      -5.120  -1.932  31.689  0.00  0.00    +0.118 C 
ATOM      5  N   UNL     1      -4.114  -2.070  30.902  0.00  0.00    -0.223 NA
ENDROOT
TORSDOF 0
