REMARK  Name = =
REMARK  4 active torsions:
REMARK  status: ('A' for Active; 'I' for Inactive)
REMARK    1  A    between atoms: C_1  and  C_17
REMARK    2  A    between atoms: C_4  and  C_6
REMARK    3  A    between atoms: C_14  and  O_16
REMARK    4  A    between atoms: C_19  and  C_23
REMARK                            x       y       z     vdW  Elec       q    Type
REMARK                         _______ _______ _______ _____ _____    ______ ____
ROOT
ATOM      1  C   UNL     1      -2.231  -1.743  28.990  0.00  0.00    +0.158 C 
ATOM      2  N   UNL     1      -2.004  -2.988  28.822  0.00  0.00    -0.247 NA
ATOM      3  C   UNL     1      -0.897  -3.182  27.943  0.00  0.00    +0.168 C 
ATOM      4  C   UNL     1      -0.474  -1.790  27.593  0.00  0.00    +0.067 C 
ATOM      5  N   UNL     1      -1.276  -1.034  28.224  0.00  0.00    -0.233 NA
ENDROOT
BRANCH   4   6
ATOM      6  C   UNL     1       0.625  -1.455  26.709  0.00  0.00    +0.060 C 
ATOM      7  C   UNL     1       0.304  -1.726  25.243  0.00  0.00    +0.010 C 
ATOM      8  C   UNL     1       1.255  -0.930  24.395  0.00  0.00    +0.005 C 
ATOM      9  C   UNL     1       2.514  -0.510  25.116  0.00  0.00    +0.026 C 
ATOM     10  C   UNL     1       2.951  -1.553  26.112  0.00  0.00    -0.023 C 
ATOM     11  C   UNL     1       1.943  -2.049  26.950  0.00  0.00    -0.021 C 
ATOM     12  C   UNL     1       2.291  -2.996  27.861  0.00  0.00    -0.001 C 
ATOM     13  C   UNL     1       3.596  -3.472  27.977  0.00  0.00    +0.036 C 
ATOM     14  C   UNL     1       4.562  -2.974  27.151  0.00  0.00    +0.133 C 
ATOM     15  C   UNL     1       4.215  -2.013  26.226  0.00  0.00    +0.032 C 
BRANCH  14  16
ATOM     16  O   UNL     1       5.895  -3.403  27.208  0.00  0.00    -0.506 OA
ATOM     17  H   UNL     1       6.151  -4.055  27.830  0.00  0.00    +0.292 HD
ENDBRANCH  14  16
ENDBRANCH   4   6
BRANCH   1  18
ATOM     18  C   UNL     1      -3.297  -1.139  29.831  0.00  0.00    +0.036 C 
ATOM     19  C   UNL     1      -4.023  -1.912  30.708  0.00  0.00    +0.013 C 
ATOM     20  C   UNL     1      -5.024  -1.435  31.521  0.00  0.00    +0.069 C 
ATOM     21  C   UNL     1      -5.299  -0.075  31.428  0.00  0.00    +0.010 C 
ATOM     22  C   UNL     1      -4.582   0.723  30.554  0.00  0.00    +0.001 C 
ATOM     23  C   UNL     1      -3.584   0.202  29.756  0.00  0.00    +0.003 C 
BRANCH  20  24
ATOM     24  C   UNL     1      -5.757  -2.282  32.423  0.00  0.00    +0.100 C 
ATOM     25  N   UNL     1      -6.343  -2.969  33.171  0.00  0.00    -0.191 NA
ENDBRANCH  20  24
ENDBRANCH   1  18
TORSDOF 4
