REMARK  Name = =
REMARK  9 active torsions:
REMARK  status: ('A' for Active; 'I' for Inactive)
REMARK    1  A    between atoms: C_1  and  C_20
REMARK    2  A    between atoms: C_7  and  N_11
REMARK    3  A    between atoms: C_8  and  C_30
REMARK    4  A    between atoms: C_9  and  O_34
REMARK    5  A    between atoms: N_11  and  N_15
REMARK    6  A    between atoms: C_17  and  C_22
REMARK    7  A    between atoms: C_24  and  C_28
REMARK    8  A    between atoms: C_30  and  C_31
REMARK    9  A    between atoms: C_31  and  C_32
REMARK                            x       y       z     vdW  Elec       q    Type
REMARK                         _______ _______ _______ _____ _____    ______ ____
ROOT
ATOM      1  C   UNL     1       4.089  -6.857  25.469  0.00  0.00    +0.061 C 
ATOM      2  C   UNL     1       3.425  -5.563  25.657  0.00  0.00    +0.010 C 
ATOM      3  C   UNL     1       2.562  -5.025  24.510  0.00  0.00    +0.005 C 
ATOM      4  C   UNL     1       2.121  -6.169  23.673  0.00  0.00    +0.026 C 
ATOM      5  C   UNL     1       3.551  -6.841  23.058  0.00  0.00    -0.022 C 
ATOM      6  C   UNL     1       4.381  -6.858  23.994  0.00  0.00    -0.006 C 
ATOM      7  C   UNL     1       5.827  -6.794  23.529  0.00  0.00    +0.070 C 
ATOM      8  C   UNL     1       5.865  -6.756  22.150  0.00  0.00    +0.027 C 
ATOM      9  C   UNL     1       4.888  -6.750  21.196  0.00  0.00    +0.131 C 
ATOM     10  C   UNL     1       3.531  -6.805  21.748  0.00  0.00    +0.032 C 
ENDROOT
BRANCH   7  11
ATOM     11  N   UNL     1       6.824  -6.778  24.422  0.00  0.00    -0.143 N 
ATOM     12  C   UNL     1       7.383  -7.896  25.040  0.00  0.00    +0.321 C 
ATOM     13  O   UNL     1       8.300  -7.815  25.973  0.00  0.00    -0.251 OA
ATOM     14  N   UNL     1       7.082  -9.303  24.781  0.00  0.00    -0.312 N 
ATOM     15  H   UNL     1       6.410  -9.546  24.104  0.00  0.00    +0.147 HD
ATOM     16  H   UNL     1       7.551 -10.007  25.284  0.00  0.00    +0.147 HD
BRANCH  11  17
ATOM     17  N   UNL     1       7.484  -5.550  24.764  0.00  0.00    +0.058 NA
ATOM     18  O   UNL     1       6.821  -4.700  25.445  0.00  0.00    -0.078 OA
ENDBRANCH  11  17
ENDBRANCH   7  11
BRANCH   1  22
ATOM     19  C   UNL     1       3.270 -10.314  26.287  0.00  0.00    +0.158 C 
ATOM     20  N   UNL     1       2.150  -9.852  26.694  0.00  0.00    -0.247 NA
ATOM     21  C   UNL     1       2.206  -8.441  26.549  0.00  0.00    +0.168 C 
ATOM     22  C   UNL     1       3.563  -8.099  25.934  0.00  0.00    +0.067 C 
ATOM     23  N   UNL     1       4.084  -9.303  25.851  0.00  0.00    -0.233 NA
BRANCH  19  24
ATOM     24  C   UNL     1       3.514 -11.802  26.317  0.00  0.00    +0.036 C 
ATOM     25  C   UNL     1       4.788 -12.290  26.760  0.00  0.00    +0.013 C 
ATOM     26  C   UNL     1       4.976 -13.673  26.457  0.00  0.00    +0.069 C 
ATOM     27  C   UNL     1       4.082 -14.467  25.874  0.00  0.00    +0.010 C 
ATOM     28  C   UNL     1       2.818 -14.001  25.481  0.00  0.00    +0.001 C 
ATOM     29  C   UNL     1       2.656 -12.612  25.762  0.00  0.00    +0.003 C 
BRANCH  26  30
ATOM     30  C   UNL     1       6.317 -14.225  26.576  0.00  0.00    +0.100 C 
ATOM     31  N   UNL     1       7.454 -14.670  26.683  0.00  0.00    -0.191 NA
ENDBRANCH  26  30
ENDBRANCH  19  24
ENDBRANCH   1  22
BRANCH   9  32
ATOM     32  O   UNL     1       5.087  -6.680  19.874  0.00  0.00    -0.506 OA
ATOM     33  H   UNL     1       4.355  -6.682  19.289  0.00  0.00    +0.292 HD
ENDBRANCH   9  32
BRANCH   8  34
ATOM     34  C   UNL     1       7.285  -6.438  21.619  0.00  0.00    +0.047 C 
BRANCH  34  35
ATOM     35  C   UNL     1       7.980  -7.503  21.439  0.00  0.00    +0.110 C 
BRANCH  35  36
ATOM     36  C   UNL     1       9.247  -7.831  21.038  0.00  0.00    +0.074 C 
ATOM     37  N   UNL     1      10.402  -8.125  20.670  0.00  0.00    -0.196 NA
ENDBRANCH  35  36
ENDBRANCH  34  35
ENDBRANCH   8  34
TORSDOF 9
