MODEL 1
REMARK VINA RESULT:    -9.075      0.000      0.000
REMARK INTER + INTRA:         -13.481
REMARK INTER:                 -12.788
REMARK INTRA:                  -0.693
REMARK UNBOUND:                -0.693
REMARK  Name = =
REMARK  7 active torsions:
REMARK  status: ('A' for Active; 'I' for Inactive)
REMARK    1  A    between atoms: C_1  and  C_20
REMARK    2  A    between atoms: C_7  and  C_8
REMARK    3  A    between atoms: C_8  and  C_10
REMARK    4  A    between atoms: C_10  and  O_12
REMARK    5  A    between atoms: O_12  and  N_13
REMARK    6  A    between atoms: C_20  and  O_21
REMARK    7  A    between atoms: O_21  and  C_23
REMARK                            x       y       z     vdW  Elec       q    Type
REMARK                         _______ _______ _______ _____ _____    ______ ____
ROOT
ATOM      1  C   UNL     1      52.522 155.409  27.857  0.00  0.00    +0.119 C 
ATOM      2  N   UNL     1      52.191 154.820  29.006  0.00  0.00    -0.180 NA
ATOM      3  N   UNL     1      51.922 153.550  29.111  0.00  0.00    -0.203 N 
ATOM      4  C   UNL     1      51.972 152.768  28.038  0.00  0.00    +0.264 C 
ATOM      5  O   UNL     1      51.715 151.545  28.130  0.00  0.00    -0.268 OA
ATOM      6  C   UNL     1      52.307 153.268  26.783  0.00  0.00    +0.059 C 
ATOM      7  C   UNL     1      52.583 154.617  26.711  0.00  0.00    +0.042 C 
ATOM      8  H   UNL     1      51.681 153.169  29.986  0.00  0.00    +0.178 HD
ENDROOT
BRANCH   7   9
ATOM      9  C   UNL     1      52.932 155.209  25.447  0.00  0.00    +0.275 C 
ATOM     10  O   UNL     1      52.021 155.421  24.553  0.00  0.00    -0.206 OA
BRANCH   9  11
ATOM     11  C   UNL     1      54.247 155.626  25.024  0.00  0.00    +0.374 C 
ATOM     12  O   UNL     1      54.581 156.816  24.854  0.00  0.00    -0.245 OA
BRANCH  11  13
ATOM     13  O   UNL     1      55.274 154.702  24.765  0.00  0.00    -0.334 OA
BRANCH  13  14
ATOM     14  N   UNL     1      55.001 153.365  24.586  0.00  0.00    -0.062 N 
ATOM     15  C   UNL     1      54.158 152.714  23.650  0.00  0.00    +0.264 C 
ATOM     16  O   UNL     1      53.634 153.316  22.653  0.00  0.00    -0.271 OA
ATOM     17  C   UNL     1      53.966 151.278  23.972  0.00  0.00    +0.098 C 
ATOM     18  C   UNL     1      54.879 151.054  25.139  0.00  0.00    +0.098 C 
ATOM     19  C   UNL     1      55.576 152.348  25.377  0.00  0.00    +0.264 C 
ATOM     20  O   UNL     1      56.532 152.491  26.172  0.00  0.00    -0.271 OA
ENDBRANCH  13  14
ENDBRANCH  11  13
ENDBRANCH   9  11
ENDBRANCH   7   9
BRANCH   1  21
ATOM     21  C   UNL     1      52.773 156.855  27.818  0.00  0.00    +0.252 C 
BRANCH  21  22
ATOM     22  O   UNL     1      52.782 157.381  29.124  0.00  0.00    -0.469 OA
BRANCH  22  24
ATOM     23  C   UNL     1      51.840 159.410  29.931  0.00  0.00    +0.037 C 
ATOM     24  C   UNL     1      51.713 158.077  29.633  0.00  0.00    +0.139 C 
ATOM     25  C   UNL     1      50.484 157.502  29.873  0.00  0.00    +0.037 C 
ATOM     26  C   UNL     1      49.426 158.237  30.391  0.00  0.00    +0.003 C 
ATOM     27  C   UNL     1      49.580 159.581  30.684  0.00  0.00    +0.000 C 
ATOM     28  C   UNL     1      50.796 160.171  30.452  0.00  0.00    +0.003 C 
ENDBRANCH  22  24
ENDBRANCH  21  22
ENDBRANCH   1  21
TORSDOF 7
ENDMDL
