REMARK  Name = =
REMARK  0 active torsions:
REMARK  status: ('A' for Active; 'I' for Inactive)
REMARK                            x       y       z     vdW  Elec       q    Type
REMARK                         _______ _______ _______ _____ _____    ______ ____
ROOT
ATOM      1  N   UNL     1     -13.552 -43.092  26.451  0.00  0.00    -0.295 NA
ATOM      2  C   UNL     1     -13.769 -43.088  25.060  0.00  0.00    +0.086 C 
ATOM      3  C   UNL     1     -14.834 -42.042  24.739  0.00  0.00    +0.086 C 
ATOM      4  N   UNL     1     -16.047 -42.496  25.417  0.00  0.00    -0.295 NA
ATOM      5  C   UNL     1     -15.814 -42.240  26.840  0.00  0.00    +0.086 C 
ATOM      6  C   UNL     1     -14.657 -43.119  27.302  0.00  0.00    +0.086 C 
ATOM      7  H   UNL     1     -12.989 -43.915  26.664  0.00  0.00    +0.123 HD
ATOM      8  H   UNL     1     -16.196 -43.492  25.253  0.00  0.00    +0.123 HD
ENDROOT
TORSDOF 0
