REMARK  Name = =
REMARK  4 active torsions:
REMARK  status: ('A' for Active; 'I' for Inactive)
REMARK    1  A    between atoms: C_1  and  C_27
REMARK    2  A    between atoms: C_1  and  S_32
REMARK    3  A    between atoms: S_32  and  C_33
REMARK    4  A    between atoms: S_32  and  C_38
REMARK                            x       y       z     vdW  Elec       q    Type
REMARK                         _______ _______ _______ _____ _____    ______ ____
ROOT
ATOM      1  C   UNL     1     -12.919 -43.579  30.270  0.00  0.00    +0.147 C 
ATOM      2  O   UNL     1     -12.422 -42.429  29.774  0.00  0.00    -0.345 OA
ATOM      3  C   UNL     1     -11.405 -41.843  30.500  0.00  0.00    +0.175 C 
ATOM      4  C   UNL     1     -10.072 -42.613  30.356  0.00  0.00    +0.174 C 
ATOM      5  O   UNL     1      -9.365 -42.263  31.525  0.00  0.00    -0.326 OA
ATOM      6  C   UNL     1      -9.187 -43.351  32.356  0.00  0.00    +0.264 C 
ATOM      7  O   UNL     1      -8.504 -43.070  33.511  0.00  0.00    -0.321 OA
ATOM      8  C   UNL     1      -7.159 -43.405  33.405  0.00  0.00    +0.209 C 
ATOM      9  C   UNL     1      -6.677 -43.071  32.025  0.00  0.00    +0.183 C 
ATOM     10  O   UNL     1      -5.906 -42.164  31.870  0.00  0.00    -0.293 OA
ATOM     11  C   UNL     1      -7.238 -43.934  30.956  0.00  0.00    +0.102 C 
ATOM     12  C   UNL     1      -8.548 -44.475  31.570  0.00  0.00    +0.179 C 
ATOM     13  O   UNL     1      -9.441 -44.933  30.651  0.00  0.00    -0.350 OA
ATOM     14  C   UNL     1     -10.453 -44.039  30.302  0.00  0.00    +0.148 C 
ATOM     15  C   UNL     1     -11.713 -44.318  30.979  0.00  0.00    +0.071 C 
ENDROOT
BRANCH   1  27
ATOM     16  C   UNL     1     -14.396 -43.437  27.016  0.00  0.00    +0.226 C 
ATOM     17  N   UNL     1     -15.665 -43.018  27.272  0.00  0.00    -0.213 NA
ATOM     18  C   UNL     1     -16.468 -42.478  26.292  0.00  0.00    +0.086 C 
ATOM     19  C   UNL     1     -16.016 -42.348  25.024  0.00  0.00    +0.037 C 
ATOM     20  C   UNL     1     -16.724 -41.801  23.948  0.00  0.00    +0.003 C 
ATOM     21  C   UNL     1     -18.039 -41.374  24.231  0.00  0.00    +0.000 C 
ATOM     22  C   UNL     1     -18.500 -41.513  25.490  0.00  0.00    +0.002 C 
ATOM     23  C   UNL     1     -17.784 -42.056  26.592  0.00  0.00    +0.019 C 
ATOM     24  C   UNL     1     -14.716 -42.781  24.717  0.00  0.00    +0.103 C 
ATOM     25  N   UNL     1     -14.076 -43.264  25.733  0.00  0.00    -0.212 NA
ATOM     26  N   UNL     1     -13.439 -43.865  27.936  0.00  0.00    -0.227 N 
ATOM     27  C   UNL     1     -13.278 -44.598  29.159  0.00  0.00    +0.117 C 
ATOM     28  C   UNL     1     -12.146 -45.548  28.837  0.00  0.00    +0.033 C 
ATOM     29  C   UNL     1     -11.157 -44.654  28.127  0.00  0.00    +0.088 C 
ATOM     30  C   UNL     1     -12.019 -43.506  27.674  0.00  0.00    +0.232 C 
ATOM     31  O   UNL     1     -11.639 -42.430  27.172  0.00  0.00    -0.274 OA
ENDBRANCH   1  27
BRANCH   1  32
ATOM     32  S   UNL     1     -14.111 -43.515  31.464  0.00  0.00    -0.088 S 
ATOM     33  H   UNL     1     -15.191 -42.922  30.887  0.00  0.00    +0.103 HD
BRANCH  32  34
ATOM     34  C   UNL     1     -13.968 -42.557  32.754  0.00  0.00    +0.223 C 
ATOM     35  N   UNL     1     -13.315 -43.009  33.969  0.00  0.00    -0.212 N 
ATOM     36  N   UNL     1     -12.429 -41.954  34.366  0.00  0.00    -0.063 NA
ATOM     37  N   UNL     1     -12.540 -40.980  33.579  0.00  0.00    -0.063 NA
ATOM     38  N   UNL     1     -13.461 -41.214  32.600  0.00  0.00    -0.212 N 
ATOM     39  H   UNL     1     -13.453 -43.869  34.429  0.00  0.00    +0.173 HD
ATOM     40  H   UNL     1     -13.734 -40.573  31.904  0.00  0.00    +0.173 HD
ENDBRANCH  32  34
BRANCH  32  41
ATOM     41  C   UNL     1     -14.238 -45.219  31.990  0.00  0.00    +0.117 C 
ATOM     42  N   UNL     1     -14.333 -46.349  32.328  0.00  0.00    -0.185 NA
ENDBRANCH  32  41
ENDBRANCH   1  32
TORSDOF 4
