REMARK  Name = =
REMARK  2 active torsions:
REMARK  status: ('A' for Active; 'I' for Inactive)
REMARK    1  A    between atoms: N_1  and  C_8
REMARK    2  A    between atoms: C_5  and  C_19
REMARK                            x       y       z     vdW  Elec       q    Type
REMARK                         _______ _______ _______ _____ _____    ______ ____
ROOT
ATOM      1  N   UNL     1      -3.786  -4.413  31.520  0.00  0.00    -0.217 N 
ATOM      2  C   UNL     1      -4.349  -4.006  30.283  0.00  0.00    +0.233 C 
ATOM      3  O   UNL     1      -4.248  -4.601  29.179  0.00  0.00    -0.274 OA
ATOM      4  C   UNL     1      -5.091  -2.726  30.548  0.00  0.00    +0.104 C 
ATOM      5  C   UNL     1      -5.515  -2.892  31.968  0.00  0.00    +0.162 C 
ATOM      6  C   UNL     1      -4.381  -3.654  32.564  0.00  0.00    +0.241 C 
ATOM      7  O   UNL     1      -3.964  -3.677  33.748  0.00  0.00    -0.274 OA
ENDROOT
BRANCH   1   8
ATOM      8  C   UNL     1      -2.771  -5.433  31.695  0.00  0.00    +0.225 C 
ATOM      9  C   UNL     1      -3.418  -6.788  31.612  0.00  0.00    +0.240 C 
ATOM     10  O   UNL     1      -3.357  -7.475  32.818  0.00  0.00    -0.446 OA
ATOM     11  C   UNL     1      -2.466  -8.418  33.227  0.00  0.00    +0.317 C 
ATOM     12  O   UNL     1      -2.889  -9.480  33.763  0.00  0.00    -0.250 OA
ATOM     13  C   UNL     1      -1.018  -8.166  33.030  0.00  0.00    +0.113 C 
ATOM     14  C   UNL     1      -0.550  -8.427  31.625  0.00  0.00    +0.059 C 
ATOM     15  C   UNL     1      -0.022  -7.165  30.997  0.00  0.00    +0.209 C 
ATOM     16  O   UNL     1      -0.935  -6.362  30.372  0.00  0.00    -0.447 OA
ATOM     17  C   UNL     1      -1.655  -5.276  30.721  0.00  0.00    +0.339 C 
ATOM     18  O   UNL     1      -1.514  -4.087  30.320  0.00  0.00    -0.248 OA
ENDBRANCH   1   8
BRANCH   5  19
ATOM     19  C   UNL     1      -5.747  -1.611  32.668  0.00  0.00    +0.228 C 
ATOM     20  O   UNL     1      -5.631  -0.517  32.104  0.00  0.00    -0.275 OA
ATOM     21  N   UNL     1      -6.114  -1.665  34.037  0.00  0.00    -0.328 N 
ATOM     22  H   UNL     1      -6.207  -2.535  34.488  0.00  0.00    +0.145 HD
ATOM     23  H   UNL     1      -6.276  -0.832  34.536  0.00  0.00    +0.145 HD
ENDBRANCH   5  19
TORSDOF 2
