REMARK  Name = =
REMARK  1 active torsions:
REMARK  status: ('A' for Active; 'I' for Inactive)
REMARK    1  A    between atoms: C_4  and  O_7
REMARK                            x       y       z     vdW  Elec       q    Type
REMARK                         _______ _______ _______ _____ _____    ______ ____
ROOT
ATOM      1  C   UNL     1      -4.627  -3.498  31.646  0.00  0.00    +0.000 C 
ATOM      2  C   UNL     1      -3.900  -3.526  30.473  0.00  0.00    +0.003 C 
ATOM      3  C   UNL     1      -3.237  -4.687  30.132  0.00  0.00    +0.037 C 
ATOM      4  C   UNL     1      -3.296  -5.799  30.947  0.00  0.00    +0.134 C 
ATOM      5  C   UNL     1      -4.036  -5.742  32.122  0.00  0.00    +0.037 C 
ATOM      6  C   UNL     1      -4.694  -4.607  32.470  0.00  0.00    +0.003 C 
ENDROOT
BRANCH   4   7
ATOM      7  O   UNL     1      -2.635  -6.975  30.620  0.00  0.00    -0.506 OA
ATOM      8  H   UNL     1      -2.133  -7.026  29.831  0.00  0.00    +0.292 HD
ENDBRANCH   4   7
TORSDOF 1
