REMARK  Name = =
REMARK  0 active torsions:
REMARK  status: ('A' for Active; 'I' for Inactive)
REMARK                            x       y       z     vdW  Elec       q    Type
REMARK                         _______ _______ _______ _____ _____    ______ ____
ROOT
ATOM      1  C   UNL     1      -4.082  -4.549  31.826  0.00  0.00    +0.003 C 
ATOM      2  C   UNL     1      -3.020  -4.511  30.940  0.00  0.00    +0.019 C 
ATOM      3  C   UNL     1      -2.759  -3.337  30.280  0.00  0.00    +0.099 C 
ATOM      4  N   UNL     1      -3.504  -2.241  30.473  0.00  0.00    -0.244 NA
ATOM      5  C   UNL     1      -4.527  -2.231  31.311  0.00  0.00    +0.081 C 
ATOM      6  C   UNL     1      -4.821  -3.405  31.998  0.00  0.00    +0.018 C 
ATOM      7  C   UNL     1      -5.883  -3.370  32.857  0.00  0.00    +0.001 C 
ATOM      8  C   UNL     1      -6.621  -2.199  33.018  0.00  0.00    +0.000 C 
ATOM      9  C   UNL     1      -6.324  -1.044  32.335  0.00  0.00    +0.002 C 
ATOM     10  C   UNL     1      -5.258  -1.074  31.472  0.00  0.00    +0.019 C 
ATOM     11  C   UNL     1      -2.271  -5.654  30.759  0.00  0.00    +0.002 C 
ATOM     12  C   UNL     1      -2.552  -6.830  31.437  0.00  0.00    +0.000 C 
ATOM     13  C   UNL     1      -3.611  -6.864  32.320  0.00  0.00    +0.000 C 
ATOM     14  C   UNL     1      -4.361  -5.720  32.501  0.00  0.00    +0.000 C 
ENDROOT
TORSDOF 0
