REMARK  Name = =
REMARK  4 active torsions:
REMARK  status: ('A' for Active; 'I' for Inactive)
REMARK    1  A    between atoms: C_7  and  S_15
REMARK    2  A    between atoms: S_15  and  P_16
REMARK    3  A    between atoms: P_16  and  O_18
REMARK    4  A    between atoms: P_16  and  O_19
REMARK                            x       y       z     vdW  Elec       q    Type
REMARK                         _______ _______ _______ _____ _____    ______ ____
ROOT
ATOM      1  C   UNL     1      -7.453  -5.329  22.186  0.00  0.00    +0.003 C 
ATOM      2  C   UNL     1      -6.185  -5.907  22.088  0.00  0.00    +0.019 C 
ATOM      3  C   UNL     1      -5.136  -5.196  21.568  0.00  0.00    +0.099 C 
ATOM      4  N   UNL     1      -5.285  -3.949  21.144  0.00  0.00    -0.244 NA
ATOM      5  C   UNL     1      -6.484  -3.367  21.223  0.00  0.00    +0.082 C 
ATOM      6  C   UNL     1      -7.607  -4.016  21.739  0.00  0.00    +0.024 C 
ATOM      7  C   UNL     1      -8.814  -3.397  21.807  0.00  0.00    +0.037 C 
ATOM      8  C   UNL     1      -8.897  -2.073  21.338  0.00  0.00    +0.007 C 
ATOM      9  C   UNL     1      -7.831  -1.391  20.825  0.00  0.00    +0.002 C 
ATOM     10  C   UNL     1      -6.635  -2.053  20.775  0.00  0.00    +0.019 C 
ATOM     11  C   UNL     1      -5.993  -7.197  22.517  0.00  0.00    +0.002 C 
ATOM     12  C   UNL     1      -7.029  -7.923  23.040  0.00  0.00    +0.000 C 
ATOM     13  C   UNL     1      -8.270  -7.345  23.131  0.00  0.00    +0.000 C 
ATOM     14  C   UNL     1      -8.502  -6.039  22.706  0.00  0.00    +0.000 C 
ENDROOT
BRANCH   7  15
ATOM     15  S   UNL     1     -10.276  -4.155  22.445  0.00  0.00    -0.004 S 
BRANCH  15  16
ATOM     16  P   UNL     1     -10.808  -3.434  24.329  0.00  0.00    +0.391 P 
ATOM     17  O   UNL     1     -11.596  -2.143  24.135  0.00  0.00    -0.246 OA
BRANCH  16  18
ATOM     18  O   UNL     1     -11.817  -4.530  25.170  0.00  0.00    -0.316 OA
ATOM     19  H   UNL     1     -11.343  -5.364  25.309  0.00  0.00    +0.221 HD
ENDBRANCH  16  18
BRANCH  16  20
ATOM     20  O   UNL     1      -9.449  -3.058  25.280  0.00  0.00    -0.316 OA
ATOM     21  H   UNL     1      -8.923  -3.860  25.424  0.00  0.00    +0.221 HD
ENDBRANCH  16  20
ENDBRANCH  15  16
ENDBRANCH   7  15
TORSDOF 4
