REMARK  Name = =
REMARK  6 active torsions:
REMARK  status: ('A' for Active; 'I' for Inactive)
REMARK    1  A    between atoms: C_7  and  S_18
REMARK    2  A    between atoms: C_8  and  N_15
REMARK    3  A    between atoms: N_15  and  N_16
REMARK    4  A    between atoms: S_18  and  P_19
REMARK    5  A    between atoms: P_19  and  O_21
REMARK    6  A    between atoms: P_19  and  O_22
REMARK                            x       y       z     vdW  Elec       q    Type
REMARK                         _______ _______ _______ _____ _____    ______ ____
ROOT
ATOM      1  C   UNL     1      -9.357  -4.312  22.397  0.00  0.00    +0.003 C 
ATOM      2  C   UNL     1      -8.510  -5.127  21.634  0.00  0.00    +0.019 C 
ATOM      3  C   UNL     1      -8.663  -6.486  21.683  0.00  0.00    +0.099 C 
ATOM      4  N   UNL     1      -9.596  -7.045  22.434  0.00  0.00    -0.244 NA
ATOM      5  C   UNL     1     -10.420  -6.282  23.176  0.00  0.00    +0.082 C 
ATOM      6  C   UNL     1     -10.340  -4.893  23.192  0.00  0.00    +0.025 C 
ATOM      7  C   UNL     1     -11.216  -4.138  23.972  0.00  0.00    +0.052 C 
ATOM      8  C   UNL     1     -12.150  -4.856  24.709  0.00  0.00    +0.074 C 
ATOM      9  C   UNL     1     -12.229  -6.225  24.691  0.00  0.00    +0.018 C 
ATOM     10  C   UNL     1     -11.376  -6.933  23.935  0.00  0.00    +0.020 C 
ATOM     11  C   UNL     1      -7.538  -4.552  20.842  0.00  0.00    +0.002 C 
ATOM     12  C   UNL     1      -7.391  -3.184  20.791  0.00  0.00    +0.000 C 
ATOM     13  C   UNL     1      -8.225  -2.389  21.542  0.00  0.00    +0.000 C 
ATOM     14  C   UNL     1      -9.216  -2.955  22.351  0.00  0.00    +0.000 C 
ENDROOT
BRANCH   8  15
ATOM     15  N   UNL     1     -13.063  -4.121  25.524  0.00  0.00    -0.201 N 
ATOM     16  H   UNL     1     -12.727  -3.646  26.318  0.00  0.00    +0.178 HD
BRANCH  15  17
ATOM     17  N   UNL     1     -14.402  -4.065  25.220  0.00  0.00    +0.046 NA
ATOM     18  O   UNL     1     -15.322  -4.720  25.680  0.00  0.00    -0.126 OA
ENDBRANCH  15  17
ENDBRANCH   8  15
BRANCH   7  19
ATOM     19  S   UNL     1     -11.099  -2.416  24.002  0.00  0.00    -0.003 S 
BRANCH  19  20
ATOM     20  P   UNL     1     -10.626  -1.293  25.585  0.00  0.00    +0.391 P 
ATOM     21  O   UNL     1      -9.606  -1.786  26.583  0.00  0.00    -0.246 OA
BRANCH  20  22
ATOM     22  O   UNL     1     -11.971  -0.606  26.420  0.00  0.00    -0.316 OA
ATOM     23  H   UNL     1     -12.501  -1.314  26.818  0.00  0.00    +0.221 HD
ENDBRANCH  20  22
BRANCH  20  24
ATOM     24  O   UNL     1      -9.835   0.148  24.963  0.00  0.00    -0.316 OA
ATOM     25  H   UNL     1     -10.403   0.567  24.297  0.00  0.00    +0.221 HD
ENDBRANCH  20  24
ENDBRANCH  19  20
ENDBRANCH   7  19
TORSDOF 6
