REMARK  Name = =
REMARK  7 active torsions:
REMARK  status: ('A' for Active; 'I' for Inactive)
REMARK    1  A    between atoms: C_7  and  S_18
REMARK    2  A    between atoms: C_8  and  N_15
REMARK    3  A    between atoms: N_15  and  N_16
REMARK    4  A    between atoms: S_18  and  P_19
REMARK    5  A    between atoms: P_19  and  O_21
REMARK    6  A    between atoms: P_19  and  O_22
REMARK    7  A    between atoms: O_22  and  N_23
REMARK                            x       y       z     vdW  Elec       q    Type
REMARK                         _______ _______ _______ _____ _____    ______ ____
ROOT
ATOM      1  C   UNL     1     -10.609  -2.098  24.854  0.00  0.00    +0.003 C 
ATOM      2  C   UNL     1     -10.296  -0.902  25.558  0.00  0.00    +0.019 C 
ATOM      3  C   UNL     1     -11.153  -0.431  26.530  0.00  0.00    +0.099 C 
ATOM      4  N   UNL     1     -12.258  -1.109  26.791  0.00  0.00    -0.244 NA
ATOM      5  C   UNL     1     -12.585  -2.254  26.136  0.00  0.00    +0.082 C 
ATOM      6  C   UNL     1     -11.768  -2.784  25.146  0.00  0.00    +0.025 C 
ATOM      7  C   UNL     1     -12.123  -3.966  24.485  0.00  0.00    +0.052 C 
ATOM      8  C   UNL     1     -13.301  -4.562  24.851  0.00  0.00    +0.068 C 
ATOM      9  C   UNL     1     -14.122  -4.021  25.855  0.00  0.00    +0.018 C 
ATOM     10  C   UNL     1     -13.767  -2.881  26.491  0.00  0.00    +0.020 C 
ATOM     11  C   UNL     1      -9.141  -0.214  25.262  0.00  0.00    +0.002 C 
ATOM     12  C   UNL     1      -8.287  -0.672  24.291  0.00  0.00    +0.000 C 
ATOM     13  C   UNL     1      -8.573  -1.820  23.604  0.00  0.00    +0.000 C 
ATOM     14  C   UNL     1      -9.746  -2.536  23.891  0.00  0.00    +0.000 C 
ENDROOT
BRANCH   8  15
ATOM     15  N   UNL     1     -13.844  -5.677  24.187  0.00  0.00    -0.234 N 
ATOM     16  H   UNL     1     -13.764  -5.751  23.209  0.00  0.00    +0.170 HD
BRANCH  15  17
ATOM     17  N   UNL     1     -14.495  -6.679  24.908  0.00  0.00    +0.047 NA
ATOM     18  O   UNL     1     -15.321  -7.425  24.331  0.00  0.00    -0.079 OA
ENDBRANCH  15  17
ENDBRANCH   8  15
BRANCH   7  19
ATOM     19  S   UNL     1     -11.088  -4.676  23.304  0.00  0.00    -0.001 S 
BRANCH  19  20
ATOM     20  P   UNL     1     -10.714  -6.660  23.178  0.00  0.00    +0.409 P 
ATOM     21  O   UNL     1     -10.326  -7.358  24.472  0.00  0.00    -0.244 OA
BRANCH  20  22
ATOM     22  O   UNL     1      -9.376  -6.961  22.098  0.00  0.00    -0.315 OA
ATOM     23  H   UNL     1      -8.576  -6.539  22.449  0.00  0.00    +0.221 HD
ENDBRANCH  20  22
BRANCH  20  24
ATOM     24  O   UNL     1     -12.005  -7.474  22.392  0.00  0.00    -0.214 OA
BRANCH  24  25
ATOM     25  N   UNL     1     -12.604  -8.368  23.171  0.00  0.00    -0.205 NA
ATOM     26  H   UNL     1     -13.359  -8.818  22.654  0.00  0.00    +0.151 HD
ATOM     27  H   UNL     1     -12.986  -7.901  23.993  0.00  0.00    +0.151 HD
ENDBRANCH  24  25
ENDBRANCH  20  24
ENDBRANCH  19  20
ENDBRANCH   7  19
TORSDOF 7
