REMARK  Name = =
REMARK  7 active torsions:
REMARK  status: ('A' for Active; 'I' for Inactive)
REMARK    1  A    between atoms: C_1  and  C_7
REMARK    2  A    between atoms: C_3  and  C_13
REMARK    3  A    between atoms: C_4  and  O_21
REMARK    4  A    between atoms: C_14  and  O_20
REMARK    5  A    between atoms: C_17  and  S_19
REMARK    6  A    between atoms: O_21  and  N_22
REMARK    7  A    between atoms: N_22  and  S_23
REMARK                            x       y       z     vdW  Elec       q    Type
REMARK                         _______ _______ _______ _____ _____    ______ ____
ROOT
ATOM      1  C   UNL     1     -10.257  -8.631  21.465  0.00  0.00    +0.005 C 
ATOM      2  C   UNL     1     -11.610  -8.524  21.220  0.00  0.00    +0.001 C 
ATOM      3  C   UNL     1     -12.246  -9.206  20.205  0.00  0.00    +0.039 C 
ATOM      4  C   UNL     1     -11.475 -10.030  19.405  0.00  0.00    +0.167 C 
ATOM      5  C   UNL     1     -10.118 -10.162  19.621  0.00  0.00    +0.039 C 
ATOM      6  C   UNL     1      -9.505  -9.460  20.656  0.00  0.00    +0.001 C 
ENDROOT
BRANCH   1   7
ATOM      7  C   UNL     1      -9.561  -7.915  22.546  0.00  0.00    +0.137 C 
ATOM      8  O   UNL     1      -8.409  -7.336  22.015  0.00  0.00    -0.352 OA
ATOM      9  C   UNL     1      -7.473  -7.263  23.043  0.00  0.00    +0.143 C 
ATOM     10  C   UNL     1      -8.159  -6.751  24.279  0.00  0.00    +0.032 C 
ATOM     11  C   UNL     1      -9.368  -5.905  23.890  0.00  0.00    +0.005 C 
ATOM     12  C   UNL     1     -10.365  -6.869  23.229  0.00  0.00    +0.034 C 
ENDBRANCH   1   7
BRANCH   3  13
ATOM     13  C   UNL     1     -13.678  -9.086  19.957  0.00  0.00    +0.037 C 
ATOM     14  C   UNL     1     -14.092  -8.089  19.098  0.00  0.00    +0.134 C 
ATOM     15  C   UNL     1     -15.435  -7.965  18.853  0.00  0.00    +0.037 C 
ATOM     16  C   UNL     1     -16.346  -8.818  19.453  0.00  0.00    +0.009 C 
ATOM     17  C   UNL     1     -15.945  -9.818  20.313  0.00  0.00    +0.022 C 
ATOM     18  C   UNL     1     -14.594  -9.944  20.559  0.00  0.00    +0.009 C 
BRANCH  17  19
ATOM     19  S   UNL     1     -17.159 -10.910  21.077  0.00  0.00    -0.141 S 
ATOM     20  H   UNL     1     -18.406 -10.563  20.661  0.00  0.00    +0.107 HD
ENDBRANCH  17  19
BRANCH  14  21
ATOM     21  O   UNL     1     -13.159  -7.232  18.500  0.00  0.00    -0.506 OA
ATOM     22  H   UNL     1     -12.245  -7.334  18.681  0.00  0.00    +0.292 HD
ENDBRANCH  14  21
ENDBRANCH   3  13
BRANCH   4  23
ATOM     23  O   UNL     1     -12.060 -10.756  18.350  0.00  0.00    -0.385 OA
BRANCH  23  24
ATOM     24  N   UNL     1     -12.336 -12.095  18.477  0.00  0.00    -0.027 NA
ATOM     25  H   UNL     1     -13.345 -12.225  18.410  0.00  0.00    +0.195 HD
BRANCH  24  26
ATOM     26  S   UNL     1     -11.582 -13.060  17.278  0.00  0.00    +0.050 S 
ATOM     27  O   UNL     1     -12.402 -14.329  17.089  0.00  0.00    -0.158 OA
ATOM     28  O   UNL     1     -11.485 -12.358  15.961  0.00  0.00    -0.158 OA
ATOM     29  H   UNL     1     -10.319 -13.335  17.700  0.00  0.00    +0.233 HD
ENDBRANCH  24  26
ENDBRANCH  23  24
ENDBRANCH   4  23
TORSDOF 7
