REMARK  Name = =
REMARK  8 active torsions:
REMARK  status: ('A' for Active; 'I' for Inactive)
REMARK    1  A    between atoms: C_7  and  S_18
REMARK    2  A    between atoms: C_8  and  N_15
REMARK    3  A    between atoms: N_15  and  N_16
REMARK    4  A    between atoms: P_19  and  O_21
REMARK    5  A    between atoms: P_19  and  O_22
REMARK    6  A    between atoms: O_22  and  C_23
REMARK    7  A    between atoms: C_23  and  O_25
REMARK    8  A    between atoms: O_26  and  N_27
REMARK                            x       y       z     vdW  Elec       q    Type
REMARK                         _______ _______ _______ _____ _____    ______ ____
ROOT
ATOM      1  C   UNL     1      -9.211  -4.528  20.418  0.00  0.00    +0.004 C 
ATOM      2  C   UNL     1      -8.653  -3.320  19.969  0.00  0.00    +0.019 C 
ATOM      3  C   UNL     1      -7.308  -3.033  20.047  0.00  0.00    +0.099 C 
ATOM      4  N   UNL     1      -6.522  -3.963  20.579  0.00  0.00    -0.244 NA
ATOM      5  C   UNL     1      -7.027  -5.149  21.027  0.00  0.00    +0.082 C 
ATOM      6  C   UNL     1      -8.357  -5.461  20.963  0.00  0.00    +0.026 C 
ATOM      7  C   UNL     1      -8.841  -6.691  21.433  0.00  0.00    +0.068 C 
ATOM      8  C   UNL     1      -7.926  -7.566  21.960  0.00  0.00    +0.076 C 
ATOM      9  C   UNL     1      -6.551  -7.265  22.038  0.00  0.00    +0.018 C 
ATOM     10  C   UNL     1      -6.140  -6.058  21.567  0.00  0.00    +0.020 C 
ATOM     11  C   UNL     1      -9.456  -2.341  19.413  0.00  0.00    +0.002 C 
ATOM     12  C   UNL     1     -10.808  -2.571  19.309  0.00  0.00    +0.000 C 
ATOM     13  C   UNL     1     -11.364  -3.738  19.741  0.00  0.00    +0.000 C 
ATOM     14  C   UNL     1     -10.558  -4.742  20.308  0.00  0.00    +0.000 C 
ENDROOT
BRANCH   7  15
ATOM     15  S   UNL     1     -10.512  -7.066  21.367  0.00  0.00    +0.071 S 
ATOM     16  P   UNL     1     -11.529  -7.112  23.123  0.00  0.00    +0.383 P 
ATOM     17  O   UNL     1     -11.409  -8.249  22.198  0.00  0.00    -0.226 OA
BRANCH  16  18
ATOM     18  O   UNL     1     -12.393  -5.623  23.203  0.00  0.00    -0.317 OA
ATOM     19  H   UNL     1     -12.164  -5.160  24.024  0.00  0.00    +0.221 HD
ENDBRANCH  16  18
BRANCH  16  20
ATOM     20  O   UNL     1     -12.806  -8.291  23.291  0.00  0.00    -0.361 OA
BRANCH  20  21
ATOM     21  C   UNL     1     -13.738  -8.494  22.288  0.00  0.00    +0.514 C 
ATOM     22  O   UNL     1     -14.481  -7.555  21.912  0.00  0.00    -0.203 OA
BRANCH  21  23
ATOM     23  O   UNL     1     -13.925  -9.716  21.630  0.00  0.00    -0.449 OA
ATOM     24  H   UNL     1     -14.573  -9.792  20.958  0.00  0.00    +0.299 HD
ENDBRANCH  21  23
ENDBRANCH  20  21
ENDBRANCH  16  20
ENDBRANCH   7  15
BRANCH   8  25
ATOM     25  N   UNL     1      -8.212  -8.880  22.463  0.00  0.00    -0.201 N 
ATOM     26  H   UNL     1      -8.679  -9.562  21.928  0.00  0.00    +0.178 HD
BRANCH  25  27
ATOM     27  N   UNL     1      -7.778  -9.118  23.768  0.00  0.00    +0.046 NA
ATOM     28  O   UNL     1      -7.234 -10.179  24.058  0.00  0.00    -0.126 OA
ENDBRANCH  25  27
ENDBRANCH   8  25
TORSDOF 7
REMARK  Name = =
REMARK  8 active torsions:
REMARK  status: ('A' for Active; 'I' for Inactive)
REMARK    1  A    between atoms: C_7  and  S_18
REMARK    2  A    between atoms: C_8  and  N_15
REMARK    3  A    between atoms: N_15  and  N_16
REMARK    4  A    between atoms: P_19  and  O_21
REMARK    5  A    between atoms: P_19  and  O_22
REMARK    6  A    between atoms: O_22  and  C_23
REMARK    7  A    between atoms: C_23  and  O_25
REMARK    8  A    between atoms: O_26  and  N_27
REMARK                            x       y       z     vdW  Elec       q    Type
REMARK                         _______ _______ _______ _____ _____    ______ ____
ROOT
ATOM      1  N   UNL     1     -10.040  -7.001  25.019  0.00  0.00    -0.218 NA
ATOM      2  H   UNL     1     -10.136  -6.460  25.879  0.00  0.00    +0.150 HD
ATOM      3  H   UNL     1      -9.769  -6.381  24.256  0.00  0.00    +0.150 HD
ENDROOT
BRANCH   1   4
ATOM      4  O   UNL     1     -11.211  -7.586  24.725  0.00  0.00    -0.318 OA
ATOM      5  H   UNL     1     -11.119  -8.100  23.908  0.00  0.00    +0.236 HD
ENDBRANCH   1   4
TORSDOF 1
