REMARK  Name = =
REMARK  9 active torsions:
REMARK  status: ('A' for Active; 'I' for Inactive)
REMARK    1  A    between atoms: C_8  and  N_15
REMARK    2  A    between atoms: C_12  and  O_28
REMARK    3  A    between atoms: N_15  and  N_16
REMARK    4  A    between atoms: O_20  and  O_26
REMARK    5  A    between atoms: C_23  and  O_25
REMARK    6  A    between atoms: O_26  and  N_27
REMARK    7  A    between atoms: O_28  and  P_29
REMARK    8  A    between atoms: P_29  and  N_31
REMARK    9  A    between atoms: P_29  and  S_32
REMARK                            x       y       z     vdW  Elec       q    Type
REMARK                         _______ _______ _______ _____ _____    ______ ____
ROOT
ATOM      1  C   UNL     1      -9.946  -5.668  23.354  0.00  0.00    +0.004 C 
ATOM      2  C   UNL     1     -10.465  -6.620  24.230  0.00  0.00    +0.022 C 
ATOM      3  C   UNL     1      -9.672  -7.649  24.678  0.00  0.00    +0.099 C 
ATOM      4  N   UNL     1      -8.406  -7.792  24.313  0.00  0.00    -0.244 NA
ATOM      5  C   UNL     1      -7.877  -6.893  23.472  0.00  0.00    +0.082 C 
ATOM      6  C   UNL     1      -8.621  -5.805  22.968  0.00  0.00    +0.025 C 
ATOM      7  C   UNL     1      -8.034  -4.919  22.111  0.00  0.00    +0.052 C 
ATOM      8  C   UNL     1      -6.695  -5.068  21.710  0.00  0.00    +0.074 C 
ATOM      9  C   UNL     1      -5.984  -6.122  22.197  0.00  0.00    +0.018 C 
ATOM     10  C   UNL     1      -6.568  -7.010  23.060  0.00  0.00    +0.020 C 
ATOM     11  C   UNL     1     -11.784  -6.527  24.625  0.00  0.00    +0.039 C 
ATOM     12  C   UNL     1     -12.585  -5.513  24.163  0.00  0.00    +0.147 C 
ATOM     13  C   UNL     1     -12.053  -4.587  23.297  0.00  0.00    +0.037 C 
ATOM     14  C   UNL     1     -10.732  -4.654  22.884  0.00  0.00    +0.003 C 
ATOM     15  S   UNL     1      -8.834  -3.449  21.532  0.00  0.00    -0.049 S 
ENDROOT
BRANCH   8  16
ATOM     16  N   UNL     1      -6.167  -4.118  20.825  0.00  0.00    -0.201 N 
ATOM     17  H   UNL     1      -6.093  -3.176  21.103  0.00  0.00    +0.178 HD
BRANCH  16  18
ATOM     18  N   UNL     1      -5.748  -4.499  19.560  0.00  0.00    +0.046 NA
ATOM     19  O   UNL     1      -6.370  -5.249  18.796  0.00  0.00    -0.126 OA
ENDBRANCH  16  18
ENDBRANCH   8  16
BRANCH  12  20
ATOM     20  O   UNL     1     -13.898  -5.466  24.590  0.00  0.00    -0.424 OA
BRANCH  20  21
ATOM     21  P   UNL     1     -15.094  -6.331  23.733  0.00  0.00    +0.371 P 
ATOM     22  O   UNL     1     -15.021  -7.813  24.013  0.00  0.00    -0.247 OA
BRANCH  21  23
ATOM     23  N   UNL     1     -16.697  -5.739  24.166  0.00  0.00    -0.241 NA
ATOM     24  H   UNL     1     -16.851  -5.874  25.165  0.00  0.00    +0.129 HD
ATOM     25  H   UNL     1     -17.403  -6.255  23.641  0.00  0.00    +0.129 HD
ENDBRANCH  21  23
BRANCH  21  26
ATOM     26  S   UNL     1     -14.815  -6.033  21.653  0.00  0.00    -0.059 S 
ATOM     27  H   UNL     1     -15.766  -6.720  20.965  0.00  0.00    +0.114 HD
ENDBRANCH  21  26
ENDBRANCH  20  21
ENDBRANCH  12  20
TORSDOF 6
REMARK  Name = =
REMARK  9 active torsions:
REMARK  status: ('A' for Active; 'I' for Inactive)
REMARK    1  A    between atoms: C_8  and  N_15
REMARK    2  A    between atoms: C_12  and  O_28
REMARK    3  A    between atoms: N_15  and  N_16
REMARK    4  A    between atoms: O_20  and  O_26
REMARK    5  A    between atoms: C_23  and  O_25
REMARK    6  A    between atoms: O_26  and  N_27
REMARK    7  A    between atoms: O_28  and  P_29
REMARK    8  A    between atoms: P_29  and  N_31
REMARK    9  A    between atoms: P_29  and  S_32
REMARK                            x       y       z     vdW  Elec       q    Type
REMARK                         _______ _______ _______ _____ _____    ______ ____
ROOT
ATOM      1  P   UNL     1      -8.098  -1.812  22.652  0.00  0.00    +0.000 P 
ENDROOT
TORSDOF 0
REMARK  Name = =
REMARK  9 active torsions:
REMARK  status: ('A' for Active; 'I' for Inactive)
REMARK    1  A    between atoms: C_8  and  N_15
REMARK    2  A    between atoms: C_12  and  O_28
REMARK    3  A    between atoms: N_15  and  N_16
REMARK    4  A    between atoms: O_20  and  O_26
REMARK    5  A    between atoms: C_23  and  O_25
REMARK    6  A    between atoms: O_26  and  N_27
REMARK    7  A    between atoms: O_28  and  P_29
REMARK    8  A    between atoms: P_29  and  N_31
REMARK    9  A    between atoms: P_29  and  S_32
REMARK                            x       y       z     vdW  Elec       q    Type
REMARK                         _______ _______ _______ _____ _____    ______ ____
ROOT
ATOM      1  O   UNL     1      -6.418  -1.665  22.949  0.00  0.00    -0.147 OA
ENDROOT
BRANCH   1   2
ATOM      2  N   UNL     1      -5.764  -1.248  21.812  0.00  0.00    -0.182 NA
ATOM      3  H   UNL     1      -5.083  -1.954  21.533  0.00  0.00    +0.153 HD
ATOM      4  H   UNL     1      -5.284  -0.368  21.999  0.00  0.00    +0.153 HD
ENDBRANCH   1   2
BRANCH   1   5
ATOM      5  O   UNL     1      -7.436  -1.292  23.907  0.00  0.00    -0.232 OA
ATOM      6  H   UNL     1      -7.525  -1.992  24.573  0.00  0.00    +0.255 HD
ENDBRANCH   1   5
TORSDOF 2
REMARK  Name = =
REMARK  9 active torsions:
REMARK  status: ('A' for Active; 'I' for Inactive)
REMARK    1  A    between atoms: C_8  and  N_15
REMARK    2  A    between atoms: C_12  and  O_28
REMARK    3  A    between atoms: N_15  and  N_16
REMARK    4  A    between atoms: O_20  and  O_26
REMARK    5  A    between atoms: C_23  and  O_25
REMARK    6  A    between atoms: O_26  and  N_27
REMARK    7  A    between atoms: O_28  and  P_29
REMARK    8  A    between atoms: P_29  and  N_31
REMARK    9  A    between atoms: P_29  and  S_32
REMARK                            x       y       z     vdW  Elec       q    Type
REMARK                         _______ _______ _______ _____ _____    ______ ____
ROOT
ATOM      1  O   HOH     1      -8.750  -2.029  24.168  0.00  0.00    -0.253 OA
ATOM      2  H   HOH     0      -7.780  -2.029  24.168  0.00  0.00    +0.253 HD
ENDROOT
TORSDOF 0
REMARK  Name = =
REMARK  9 active torsions:
REMARK  status: ('A' for Active; 'I' for Inactive)
REMARK    1  A    between atoms: C_8  and  N_15
REMARK    2  A    between atoms: C_12  and  O_28
REMARK    3  A    between atoms: N_15  and  N_16
REMARK    4  A    between atoms: O_20  and  O_26
REMARK    5  A    between atoms: C_23  and  O_25
REMARK    6  A    between atoms: O_26  and  N_27
REMARK    7  A    between atoms: O_28  and  P_29
REMARK    8  A    between atoms: P_29  and  N_31
REMARK    9  A    between atoms: P_29  and  S_32
REMARK                            x       y       z     vdW  Elec       q    Type
REMARK                         _______ _______ _______ _____ _____    ______ ____
ROOT
ATOM      1  O   UNL     1      -9.146  -0.506  22.902  0.00  0.00    -0.200 OA
ATOM      2  C   UNL     1      -8.878   0.713  22.304  0.00  0.00    +0.549 C 
ATOM      3  O   UNL     1      -7.676   1.070  22.212  0.00  0.00    -0.200 OA
ENDROOT
BRANCH   2   4
ATOM      4  O   UNL     1      -9.851   1.561  21.801  0.00  0.00    -0.447 OA
ATOM      5  H   UNL     1     -10.755   1.321  21.856  0.00  0.00    +0.299 HD
ENDBRANCH   2   4
TORSDOF 1
