MODEL 1
REMARK VINA RESULT:    -6.144      0.000      0.000
REMARK INTER + INTRA:         -13.928
REMARK INTER:                 -10.993
REMARK INTRA:                  -2.935
REMARK UNBOUND:                -2.935
REMARK  Name = =
REMARK  15 active torsions:
REMARK  status: ('A' for Active; 'I' for Inactive)
REMARK    1  A    between atoms: C_1  and  O_10
REMARK    2  A    between atoms: C_2  and  O_28
REMARK    3  A    between atoms: C_3  and  O_21
REMARK    4  A    between atoms: C_5  and  O_9
REMARK    5  A    between atoms: C_6  and  C_7
REMARK    6  A    between atoms: O_10  and  C_11
REMARK    7  A    between atoms: C_13  and  N_17
REMARK    8  A    between atoms: N_17  and  S_18
REMARK    9  A    between atoms: O_21  and  N_22
REMARK   10  A    between atoms: O_28  and  C_29
REMARK   11  A    between atoms: C_29  and  N_31
REMARK   12  A    between atoms: N_31  and  N_32
REMARK   13  A    between atoms: N_31  and  N_33
REMARK   14  A    between atoms: N_33  and  N_34
REMARK   15  A    between atoms: N_33  and  C_35
REMARK                            x       y       z     vdW  Elec       q    Type
REMARK                         _______ _______ _______ _____ _____    ______ ____
ROOT
ATOM      1  C   UNL     1      61.121 164.890  36.150  0.00  0.00    +0.189 C 
ATOM      2  C   UNL     1      61.196 163.721  36.875  0.00  0.00    +0.218 C 
ATOM      3  C   UNL     1      60.199 162.762  36.702  0.00  0.00    +0.211 C 
ATOM      4  C   UNL     1      59.144 162.938  35.835  0.00  0.00    +0.080 C 
ATOM      5  C   UNL     1      59.086 164.112  35.119  0.00  0.00    +0.143 C 
ATOM      6  C   UNL     1      60.069 165.094  35.270  0.00  0.00    +0.114 C 
ENDROOT
BRANCH   6   7
ATOM      7  C   UNL     1      59.953 166.317  34.485  0.00  0.00    +0.240 C 
ATOM      8  O   UNL     1      59.464 167.360  34.981  0.00  0.00    -0.283 OA
ENDBRANCH   6   7
BRANCH   5   9
ATOM      9  O   UNL     1      58.044 164.345  34.230  0.00  0.00    -0.505 OA
ATOM     10  H   UNL     1      57.367 164.954  34.451  0.00  0.00    +0.292 HD
ENDBRANCH   5   9
BRANCH   1  11
ATOM     11  O   UNL     1      62.047 165.913  36.235  0.00  0.00    -0.450 OA
BRANCH  11  12
ATOM     12  C   UNL     1      63.344 165.809  35.691  0.00  0.00    +0.147 C 
ATOM     13  C   UNL     1      63.544 165.939  34.335  0.00  0.00    +0.053 C 
ATOM     14  C   UNL     1      64.772 165.852  33.718  0.00  0.00    +0.067 C 
ATOM     15  C   UNL     1      65.865 165.622  34.525  0.00  0.00    +0.016 C 
ATOM     16  C   UNL     1      65.695 165.486  35.908  0.00  0.00    +0.004 C 
ATOM     17  C   UNL     1      64.446 165.580  36.485  0.00  0.00    +0.038 C 
BRANCH  14  18
ATOM     18  N   UNL     1      64.946 165.986  32.317  0.00  0.00    -0.222 N 
ATOM     19  H   UNL     1      65.118 166.876  31.934  0.00  0.00    +0.173 HD
BRANCH  18  20
ATOM     20  S   UNL     1      64.861 164.603  31.261  0.00  0.00    +0.033 S 
ATOM     21  O   UNL     1      65.410 164.943  29.905  0.00  0.00    -0.158 OA
ATOM     22  O   UNL     1      65.640 163.502  31.912  0.00  0.00    -0.158 OA
ATOM     23  H   UNL     1      63.573 164.209  31.070  0.00  0.00    +0.233 HD
ENDBRANCH  18  20
ENDBRANCH  14  18
ENDBRANCH  11  12
ENDBRANCH   1  11
BRANCH   3  24
ATOM     24  O   UNL     1      60.288 161.582  37.443  0.00  0.00    -0.377 OA
BRANCH  24  25
ATOM     25  N   UNL     1      59.410 161.255  38.438  0.00  0.00    -0.115 N 
ATOM     26  C   UNL     1      58.980 162.117  39.543  0.00  0.00    +0.163 C 
ATOM     27  C   UNL     1      58.040 161.309  40.326  0.00  0.00    +0.004 C 
ATOM     28  C   UNL     1      57.870 160.113  39.830  0.00  0.00    +0.058 C 
ATOM     29  C   UNL     1      58.710 160.027  38.642  0.00  0.00    +0.280 C 
ATOM     30  O   UNL     1      58.797 159.000  37.903  0.00  0.00    -0.267 OA
ENDBRANCH  24  25
ENDBRANCH   3  24
BRANCH   2  31
ATOM     31  O   UNL     1      62.229 163.495  37.753  0.00  0.00    -0.431 OA
BRANCH  31  32
ATOM     32  C   UNL     1      62.217 163.699  39.111  0.00  0.00    +0.227 C 
ATOM     33  C   UNL     1      61.743 164.789  39.686  0.00  0.00    +0.061 C 
BRANCH  32  34
ATOM     34  N   UNL     1      62.746 162.680  39.938  0.00  0.00    -0.150 N 
BRANCH  34  35
ATOM     35  N   UNL     1      63.554 163.032  41.012  0.00  0.00    -0.235 NA
ATOM     36  H   UNL     1      63.495 164.039  41.166  0.00  0.00    +0.142 HD
ATOM     37  H   UNL     1      64.520 162.774  40.809  0.00  0.00    +0.142 HD
ENDBRANCH  34  35
BRANCH  34  38
ATOM     38  N   UNL     1      62.476 161.338  39.701  0.00  0.00    -0.107 NA
BRANCH  38  39
ATOM     39  N   UNL     1      63.243 160.833  38.662  0.00  0.00    -0.247 NA
ATOM     40  H   UNL     1      62.894 159.911  38.399  0.00  0.00    +0.139 HD
ATOM     41  H   UNL     1      64.214 160.756  38.962  0.00  0.00    +0.139 HD
ENDBRANCH  38  39
BRANCH  38  42
ATOM     42  C   UNL     1      62.565 160.542  40.908  0.00  0.00    +0.238 C 
ATOM     43  C   UNL     1      61.366 159.681  41.228  0.00  0.00    +0.193 C 
ATOM     44  O   UNL     1      61.592 160.903  41.866  0.00  0.00    -0.332 OA
ENDBRANCH  38  42
ENDBRANCH  34  38
ENDBRANCH  32  34
ENDBRANCH  31  32
ENDBRANCH   2  31
TORSDOF 15
ENDMDL
