REMARK  Name = =
REMARK  15 active torsions:
REMARK  status: ('A' for Active; 'I' for Inactive)
REMARK    1  A    between atoms: C_1  and  O_10
REMARK    2  A    between atoms: C_2  and  O_28
REMARK    3  A    between atoms: C_3  and  O_21
REMARK    4  A    between atoms: C_5  and  O_9
REMARK    5  A    between atoms: C_6  and  C_7
REMARK    6  A    between atoms: O_10  and  C_11
REMARK    7  A    between atoms: C_13  and  N_17
REMARK    8  A    between atoms: N_17  and  S_18
REMARK    9  A    between atoms: O_21  and  N_22
REMARK   10  A    between atoms: O_28  and  C_29
REMARK   11  A    between atoms: C_29  and  N_31
REMARK   12  A    between atoms: N_31  and  N_32
REMARK   13  A    between atoms: N_31  and  N_33
REMARK   14  A    between atoms: N_33  and  N_34
REMARK   15  A    between atoms: N_33  and  C_35
REMARK                            x       y       z     vdW  Elec       q    Type
REMARK                         _______ _______ _______ _____ _____    ______ ____
ROOT
ATOM      1  C   UNL     1      52.017 157.586  29.402  0.00  0.00    +0.189 C 
ATOM      2  C   UNL     1      51.943 158.869  29.898  0.00  0.00    +0.218 C 
ATOM      3  C   UNL     1      50.727 159.320  30.409  0.00  0.00    +0.211 C 
ATOM      4  C   UNL     1      49.598 158.533  30.437  0.00  0.00    +0.080 C 
ATOM      5  C   UNL     1      49.690 157.254  29.938  0.00  0.00    +0.143 C 
ATOM      6  C   UNL     1      50.895 156.772  29.418  0.00  0.00    +0.114 C 
ENDROOT
BRANCH   6   7
ATOM      7  C   UNL     1      50.930 155.408  28.903  0.00  0.00    +0.240 C 
ATOM      8  O   UNL     1      49.891 154.853  28.471  0.00  0.00    -0.283 OA
ENDBRANCH   6   7
BRANCH   5   9
ATOM      9  O   UNL     1      48.583 156.414  29.940  0.00  0.00    -0.505 OA
ATOM     10  H   UNL     1      47.766 156.717  30.284  0.00  0.00    +0.292 HD
ENDBRANCH   5   9
BRANCH   1  11
ATOM     11  O   UNL     1      53.164 157.027  28.871  0.00  0.00    -0.450 OA
BRANCH  11  12
ATOM     12  C   UNL     1      53.174 156.342  27.639  0.00  0.00    +0.147 C 
ATOM     13  C   UNL     1      53.143 154.966  27.606  0.00  0.00    +0.053 C 
ATOM     14  C   UNL     1      53.150 154.215  26.452  0.00  0.00    +0.067 C 
ATOM     15  C   UNL     1      53.189 154.900  25.257  0.00  0.00    +0.016 C 
ATOM     16  C   UNL     1      53.221 156.300  25.257  0.00  0.00    +0.004 C 
ATOM     17  C   UNL     1      53.213 157.013  26.437  0.00  0.00    +0.038 C 
BRANCH  14  18
ATOM     18  N   UNL     1      53.122 152.797  26.450  0.00  0.00    -0.222 N 
ATOM     19  H   UNL     1      52.603 152.323  27.139  0.00  0.00    +0.173 HD
BRANCH  18  20
ATOM     20  S   UNL     1      53.989 151.878  25.250  0.00  0.00    +0.033 S 
ATOM     21  O   UNL     1      55.471 152.024  25.447  0.00  0.00    -0.158 OA
ATOM     22  O   UNL     1      53.551 150.452  25.386  0.00  0.00    -0.158 OA
ATOM     23  H   UNL     1      53.718 152.329  23.996  0.00  0.00    +0.233 HD
ENDBRANCH  18  20
ENDBRANCH  14  18
ENDBRANCH  11  12
ENDBRANCH   1  11
BRANCH   3  24
ATOM     24  O   UNL     1      50.668 160.623  30.908  0.00  0.00    -0.377 OA
BRANCH  24  25
ATOM     25  N   UNL     1      49.830 161.000  31.920  0.00  0.00    -0.115 N 
ATOM     26  C   UNL     1      50.116 160.947  33.357  0.00  0.00    +0.163 C 
ATOM     27  C   UNL     1      48.909 161.459  34.014  0.00  0.00    +0.004 C 
ATOM     28  C   UNL     1      47.978 161.797  33.163  0.00  0.00    +0.058 C 
ATOM     29  C   UNL     1      48.506 161.528  31.832  0.00  0.00    +0.280 C 
ATOM     30  O   UNL     1      47.868 161.737  30.756  0.00  0.00    -0.267 OA
ENDBRANCH  24  25
ENDBRANCH   3  24
BRANCH   2  31
ATOM     31  O   UNL     1      53.042 159.696  29.894  0.00  0.00    -0.431 OA
BRANCH  31  32
ATOM     32  C   UNL     1      53.095 161.000  30.321  0.00  0.00    +0.227 C 
ATOM     33  C   UNL     1      52.426 161.986  29.752  0.00  0.00    +0.061 C 
BRANCH  32  34
ATOM     34  N   UNL     1      53.916 161.300  31.433  0.00  0.00    -0.150 N 
BRANCH  34  35
ATOM     35  N   UNL     1      53.353 161.327  32.702  0.00  0.00    -0.235 NA
ATOM     36  H   UNL     1      52.358 161.110  32.637  0.00  0.00    +0.142 HD
ATOM     37  H   UNL     1      53.473 162.255  33.108  0.00  0.00    +0.142 HD
ENDBRANCH  34  35
BRANCH  34  38
ATOM     38  N   UNL     1      55.271 161.568  31.284  0.00  0.00    -0.107 NA
BRANCH  38  39
ATOM     39  N   UNL     1      55.539 162.229  30.095  0.00  0.00    -0.247 NA
ATOM     40  H   UNL     1      55.127 161.712  29.318  0.00  0.00    +0.139 HD
ATOM     41  H   UNL     1      56.548 162.294  29.962  0.00  0.00    +0.139 HD
ENDBRANCH  38  39
BRANCH  38  42
ATOM     42  C   UNL     1      55.825 162.240  32.442  0.00  0.00    +0.238 C 
ATOM     43  C   UNL     1      57.198 161.788  32.882  0.00  0.00    +0.193 C 
ATOM     44  O   UNL     1      56.035 161.361  33.528  0.00  0.00    -0.332 OA
ENDBRANCH  38  42
ENDBRANCH  34  38
ENDBRANCH  32  34
ENDBRANCH  31  32
ENDBRANCH   2  31
TORSDOF 15
