MODEL 1
REMARK VINA RESULT:    -7.299      0.000      0.000
REMARK INTER + INTRA:          -9.152
REMARK INTER:                  -8.152
REMARK INTRA:                  -1.000
REMARK UNBOUND:                -1.000
REMARK  Name = =
REMARK  2 active torsions:
REMARK  status: ('A' for Active; 'I' for Inactive)
REMARK    1  A    between atoms: C_1  and  C_18
REMARK    2  A    between atoms: C_1  and  N_29
REMARK                            x       y       z     vdW  Elec       q    Type
REMARK                         _______ _______ _______ _____ _____    ______ ____
ROOT
ATOM      1  C   UNL     1      59.942 161.554  40.034  0.00  0.00    +0.089 C 
ATOM      2  C   UNL     1      59.928 162.958  40.613  0.00  0.00    +0.022 C 
ATOM      3  C   UNL     1      59.901 164.055  39.603  0.00  0.00    +0.006 C 
ATOM      4  C   UNL     1      60.687 163.772  38.359  0.00  0.00    +0.018 C 
ATOM      5  C   UNL     1      60.792 164.927  37.446  0.00  0.00    +0.004 C 
ATOM      6  C   UNL     1      62.171 165.172  36.921  0.00  0.00    +0.000 C 
ATOM      7  C   UNL     1      62.278 165.212  35.440  0.00  0.00    +0.000 C 
ATOM      8  C   UNL     1      61.172 165.871  34.721  0.00  0.00    +0.000 C 
ATOM      9  C   UNL     1      59.960 166.179  35.539  0.00  0.00    +0.000 C 
ATOM     10  C   UNL     1      60.309 167.456  36.224  0.00  0.00    +0.000 C 
ATOM     11  C   UNL     1      61.428 168.096  35.427  0.00  0.00    +0.000 C 
ATOM     12  C   UNL     1      61.560 167.241  34.185  0.00  0.00    +0.000 C 
ATOM     13  C   UNL     1      59.696 165.022  36.468  0.00  0.00    +0.001 C 
ATOM     14  C   UNL     1      59.410 163.786  35.684  0.00  0.00    +0.004 C 
ATOM     15  C   UNL     1      59.935 162.528  36.272  0.00  0.00    +0.022 C 
ATOM     16  C   UNL     1      60.116 162.572  37.749  0.00  0.00    -0.047 C 
ATOM     17  C   UNL     1      59.785 161.572  38.548  0.00  0.00    -0.018 C 
ENDROOT
BRANCH   1  18
ATOM     18  C   UNL     1      58.618 160.928  40.523  0.00  0.00    +0.139 C 
ATOM     19  O   UNL     1      58.027 161.668  41.509  0.00  0.00    -0.331 OA
ATOM     20  C   UNL     1      56.765 161.183  41.751  0.00  0.00    +0.207 C 
ATOM     21  O   UNL     1      56.035 161.067  40.586  0.00  0.00    -0.331 OA
ATOM     22  C   UNL     1      54.840 160.416  40.717  0.00  0.00    +0.145 C 
ATOM     23  C   UNL     1      53.983 160.817  41.860  0.00  0.00    +0.032 C 
ATOM     24  C   UNL     1      54.717 161.393  43.034  0.00  0.00    +0.008 C 
ATOM     25  C   UNL     1      55.967 162.134  42.651  0.00  0.00    +0.061 C 
ATOM     26  C   UNL     1      56.895 159.889  42.501  0.00  0.00    +0.024 C 
ATOM     27  C   UNL     1      58.058 159.056  42.123  0.00  0.00    -0.023 C 
ATOM     28  C   UNL     1      58.761 159.474  40.848  0.00  0.00    +0.057 C 
ENDBRANCH   1  18
BRANCH   1  29
ATOM     29  N   UNL     1      61.073 160.834  40.450  0.00  0.00    -0.267 NA
ATOM     30  C   UNL     1      61.704 161.042  41.675  0.00  0.00    +0.090 C 
ATOM     31  C   UNL     1      62.797 159.961  41.819  0.00  0.00    +0.086 C 
ATOM     32  N   UNL     1      63.894 160.310  40.981  0.00  0.00    -0.295 NA
ATOM     33  C   UNL     1      63.421 160.911  39.776  0.00  0.00    +0.086 C 
ATOM     34  C   UNL     1      62.009 160.352  39.529  0.00  0.00    +0.090 C 
ATOM     35  H   UNL     1      64.424 159.469  40.752  0.00  0.00    +0.123 HD
ENDBRANCH   1  29
TORSDOF 2
ENDMDL
