MODEL 1
REMARK VINA RESULT:    -5.594      0.000      0.000
REMARK INTER + INTRA:         -11.096
REMARK INTER:                  -9.518
REMARK INTRA:                  -1.578
REMARK UNBOUND:                -1.578
REMARK  Name = =
REMARK  14 active torsions:
REMARK  status: ('A' for Active; 'I' for Inactive)
REMARK    1  A    between atoms: C_1  and  O_6
REMARK    2  A    between atoms: C_1  and  S_15
REMARK    3  A    between atoms: O_6  and  P_7
REMARK    4  A    between atoms: P_7  and  O_9
REMARK    5  A    between atoms: P_7  and  O_10
REMARK    6  A    between atoms: O_10  and  P_11
REMARK    7  A    between atoms: P_11  and  O_13
REMARK    8  A    between atoms: P_11  and  O_14
REMARK    9  A    between atoms: S_15  and  C_16
REMARK   10  A    between atoms: C_16  and  N_18
REMARK   11  A    between atoms: N_18  and  S_19
REMARK   12  A    between atoms: S_19  and  C_20
REMARK   13  A    between atoms: S_19  and  P_27
REMARK   14  A    between atoms: C_23  and  O_26
REMARK                            x       y       z     vdW  Elec       q    Type
REMARK                         _______ _______ _______ _____ _____    ______ ____
ROOT
ATOM      1  C   UNL     1      60.302 165.386  37.248  0.00  0.00    +0.236 C 
ATOM      2  S   UNL     1      60.457 166.805  38.424  0.00  0.00    -0.087 S 
ATOM      3  C   UNL     1      62.247 166.575  38.789  0.00  0.00    +0.079 C 
ATOM      4  C   UNL     1      62.384 165.150  38.229  0.00  0.00    +0.084 C 
ATOM      5  N   UNL     1      61.699 165.168  36.953  0.00  0.00    -0.260 NA
ATOM      6  H   UNL     1      61.824 164.276  36.473  0.00  0.00    +0.127 HD
ENDROOT
BRANCH   1   7
ATOM      7  O   UNL     1      59.546 165.773  36.154  0.00  0.00    -0.245 OA
BRANCH   7   8
ATOM      8  P   UNL     1      60.514 166.393  34.919  0.00  0.00    +0.486 P 
ATOM      9  O   UNL     1      59.595 166.968  33.866  0.00  0.00    -0.227 OA
BRANCH   8  10
ATOM     10  O   UNL     1      61.458 165.177  34.244  0.00  0.00    -0.302 OA
ATOM     11  H   UNL     1      61.185 164.319  34.603  0.00  0.00    +0.222 HD
ENDBRANCH   8  10
BRANCH   8  12
ATOM     12  O   UNL     1      61.469 167.644  35.533  0.00  0.00    -0.186 OA
BRANCH  12  13
ATOM     13  P   UNL     1      62.374 168.421  34.367  0.00  0.00    +0.481 P 
ATOM     14  O   UNL     1      63.109 169.626  34.855  0.00  0.00    -0.227 OA
BRANCH  13  15
ATOM     15  O   UNL     1      63.476 167.356  33.619  0.00  0.00    -0.302 OA
ATOM     16  H   UNL     1      62.996 166.762  33.022  0.00  0.00    +0.222 HD
ENDBRANCH  13  15
BRANCH  13  17
ATOM     17  O   UNL     1      61.320 168.929  33.120  0.00  0.00    -0.302 OA
ATOM     18  H   UNL     1      60.418 168.633  33.318  0.00  0.00    +0.222 HD
ENDBRANCH  13  17
ENDBRANCH  12  13
ENDBRANCH   8  12
ENDBRANCH   7   8
ENDBRANCH   1   7
BRANCH   1  19
ATOM     19  S   UNL     1      59.607 163.961  38.063  0.00  0.00    -0.040 S 
BRANCH  19  20
ATOM     20  C   UNL     1      59.800 162.524  37.040  0.00  0.00    +0.120 C 
ATOM     21  S   UNL     1      59.067 162.465  35.593  0.00  0.00    -0.027 S 
BRANCH  20  22
ATOM     22  N   UNL     1      60.580 161.425  37.482  0.00  0.00    -0.287 N 
ATOM     23  H   UNL     1      60.764 160.675  36.871  0.00  0.00    +0.160 HD
BRANCH  22  24
ATOM     24  S   UNL     1      61.196 161.403  39.055  0.00  0.00    -0.091 S 
ATOM     25  H   UNL     1      61.317 162.697  39.457  0.00  0.00    +0.113 HD
BRANCH  24  26
ATOM     26  C   UNL     1      60.047 160.461  40.011  0.00  0.00    +0.027 C 
ATOM     27  C   UNL     1      60.448 159.363  40.740  0.00  0.00    +0.009 C 
ATOM     28  C   UNL     1      59.530 158.629  41.490  0.00  0.00    +0.037 C 
ATOM     29  C   UNL     1      58.197 158.972  41.530  0.00  0.00    +0.134 C 
ATOM     30  C   UNL     1      57.800 160.077  40.795  0.00  0.00    +0.037 C 
ATOM     31  C   UNL     1      58.711 160.804  40.051  0.00  0.00    +0.009 C 
BRANCH  29  32
ATOM     32  O   UNL     1      57.312 158.215  42.290  0.00  0.00    -0.506 OA
ATOM     33  H   UNL     1      57.633 157.684  42.992  0.00  0.00    +0.292 HD
ENDBRANCH  29  32
ENDBRANCH  24  26
BRANCH  24  34
ATOM     34  P   UNL     1      62.765 160.841  39.264  0.00  0.00    +0.282 P 
ATOM     35  O   UNL     1      63.854 160.965  40.362  0.00  0.00    -0.292 OA
ENDBRANCH  24  34
ENDBRANCH  22  24
ENDBRANCH  20  22
ENDBRANCH  19  20
ENDBRANCH   1  19
TORSDOF 14
ENDMDL
