REMARK  Name = =
REMARK  4 active torsions:
REMARK  status: ('A' for Active; 'I' for Inactive)
REMARK    1  A    between atoms: C_1  and  C_18
REMARK    2  A    between atoms: C_1  and  N_25
REMARK    3  A    between atoms: C_20  and  O_24
REMARK    4  A    between atoms: C_28  and  C_31
REMARK                            x       y       z     vdW  Elec       q    Type
REMARK                         _______ _______ _______ _____ _____    ______ ____
ROOT
ATOM      1  C   UNL     1      52.861 156.399  27.928  0.00  0.00    +0.085 C 
ATOM      2  C   UNL     1      53.323 155.112  28.580  0.00  0.00    +0.021 C 
ATOM      3  C   UNL     1      54.246 154.343  27.663  0.00  0.00    +0.006 C 
ATOM      4  C   UNL     1      53.401 153.854  26.519  0.00  0.00    +0.018 C 
ATOM      5  C   UNL     1      53.285 152.379  26.446  0.00  0.00    +0.004 C 
ATOM      6  C   UNL     1      52.477 152.022  25.221  0.00  0.00    +0.005 C 
ATOM      7  C   UNL     1      52.488 150.541  25.007  0.00  0.00    +0.000 C 
ATOM      8  C   UNL     1      52.301 149.707  26.200  0.00  0.00    +0.000 C 
ATOM      9  C   UNL     1      53.212 148.505  25.909  0.00  0.00    +0.000 C 
ATOM     10  C   UNL     1      54.404 149.199  25.297  0.00  0.00    +0.000 C 
ATOM     11  C   UNL     1      53.740 150.138  24.305  0.00  0.00    +0.000 C 
ATOM     12  C   UNL     1      52.728 150.271  27.500  0.00  0.00    +0.000 C 
ATOM     13  C   UNL     1      52.589 151.758  27.627  0.00  0.00    +0.000 C 
ATOM     14  C   UNL     1      51.132 152.639  25.168  0.00  0.00    +0.025 C 
ATOM     15  C   UNL     1      51.132 154.006  25.730  0.00  0.00    -0.035 C 
ATOM     16  C   UNL     1      52.150 154.583  26.350  0.00  0.00    -0.047 C 
ATOM     17  C   UNL     1      51.896 155.971  26.832  0.00  0.00    +0.042 C 
ENDROOT
BRANCH   1  18
ATOM     18  C   UNL     1      53.935 157.248  27.415  0.00  0.00    +0.075 C 
ATOM     19  C   UNL     1      54.266 157.237  26.051  0.00  0.00    +0.053 C 
ATOM     20  C   UNL     1      55.268 158.023  25.524  0.00  0.00    +0.136 C 
ATOM     21  C   UNL     1      55.986 158.861  26.343  0.00  0.00    +0.057 C 
ATOM     22  C   UNL     1      55.658 158.870  27.684  0.00  0.00    +0.102 C 
ATOM     23  N   UNL     1      54.689 158.097  28.140  0.00  0.00    -0.247 NA
BRANCH  20  24
ATOM     24  O   UNL     1      55.595 158.011  24.177  0.00  0.00    -0.505 OA
ATOM     25  H   UNL     1      55.128 157.453  23.587  0.00  0.00    +0.292 HD
ENDBRANCH  20  24
ENDBRANCH   1  18
BRANCH   1  26
ATOM     26  N   UNL     1      52.066 157.089  28.925  0.00  0.00    -0.266 NA
ATOM     27  C   UNL     1      52.137 158.523  28.850  0.00  0.00    +0.077 C 
ATOM     28  C   UNL     1      50.787 159.206  29.049  0.00  0.00    +0.043 C 
ATOM     29  C   UNL     1      50.134 158.564  30.226  0.00  0.00    -0.024 C 
ATOM     30  C   UNL     1      50.082 157.232  30.160  0.00  0.00    -0.013 C 
ATOM     31  C   UNL     1      50.686 156.626  28.918  0.00  0.00    +0.099 C 
BRANCH  29  32
ATOM     32  C   UNL     1      49.620 159.324  31.331  0.00  0.00    -0.004 C 
ATOM     33  C   UNL     1      48.387 159.092  31.895  0.00  0.00    -0.000 C 
ATOM     34  C   UNL     1      47.914 159.852  32.958  0.00  0.00    -0.000 C 
ATOM     35  C   UNL     1      48.662 160.865  33.486  0.00  0.00    -0.000 C 
ATOM     36  C   UNL     1      49.898 161.118  32.940  0.00  0.00    -0.000 C 
ATOM     37  C   UNL     1      50.367 160.345  31.869  0.00  0.00    -0.000 C 
ENDBRANCH  29  32
ENDBRANCH   1  26
TORSDOF 4
