REMARK  Name = =
REMARK  1 active torsions:
REMARK  status: ('A' for Active; 'I' for Inactive)
REMARK    1  A    between atoms: N_3  and  N_4
REMARK                            x       y       z     vdW  Elec       q    Type
REMARK                         _______ _______ _______ _____ _____    ______ ____
ROOT
ATOM      1  C   UNL     1      53.038 155.737  27.932  0.00  0.00    +0.316 C 
ATOM      2  O   UNL     1      52.020 156.179  27.357  0.00  0.00    -0.264 OA
ATOM      3  N   UNL     1      53.228 154.343  28.051  0.00  0.00    -0.226 N 
ATOM      4  H   UNL     1      54.032 153.994  28.499  0.00  0.00    +0.173 HD
ENDROOT
BRANCH   3   5
ATOM      5  N   UNL     1      52.264 153.443  27.527  0.00  0.00    -0.226 N 
ATOM      6  C   UNL     1      52.659 152.501  26.543  0.00  0.00    +0.316 C 
ATOM      7  O   UNL     1      53.849 152.505  26.161  0.00  0.00    -0.264 OA
ATOM      8  H   UNL     1      51.332 153.472  27.843  0.00  0.00    +0.173 HD
ENDBRANCH   3   5
TORSDOF 1
