REMARK  Name = =
REMARK  0 active torsions:
REMARK  status: ('A' for Active; 'I' for Inactive)
REMARK                            x       y       z     vdW  Elec       q    Type
REMARK                         _______ _______ _______ _____ _____    ______ ____
ROOT
ATOM      1  C   UNL     1      48.943 158.576  28.612  0.00  0.00    +0.000 C 
ATOM      2  C   UNL     1      47.680 158.025  29.189  0.00  0.00    +0.000 C 
ATOM      3  C   UNL     1      47.468 158.791  30.481  0.00  0.00    +0.000 C 
ATOM      4  C   UNL     1      48.027 160.139  30.118  0.00  0.00    +0.000 C 
ATOM      5  C   UNL     1      49.295 159.820  29.425  0.00  0.00    +0.000 C 
ATOM      6  C   UNL     1      50.472 159.579  30.282  0.00  0.00    +0.000 C 
ATOM      7  C   UNL     1      50.441 160.274  31.615  0.00  0.00    +0.001 C 
ATOM      8  C   UNL     1      49.513 161.424  31.581  0.00  0.00    +0.008 C 
ATOM      9  C   UNL     1      48.110 161.095  31.239  0.00  0.00    +0.001 C 
ATOM     10  C   UNL     1      47.392 162.378  30.834  0.00  0.00    +0.004 C 
ATOM     11  C   UNL     1      47.583 163.490  31.822  0.00  0.00    +0.022 C 
ATOM     12  C   UNL     1      48.301 162.914  33.019  0.00  0.00    -0.037 C 
ATOM     13  C   UNL     1      47.718 162.911  34.195  0.00  0.00    +0.034 C 
ATOM     14  C   UNL     1      48.433 162.349  35.331  0.00  0.00    +0.195 C 
ATOM     15  O   UNL     1      47.870 162.350  36.455  0.00  0.00    -0.287 OA
ATOM     16  C   UNL     1      49.772 161.808  35.135  0.00  0.00    +0.038 C 
ATOM     17  C   UNL     1      50.290 161.847  33.918  0.00  0.00    -0.019 C 
ATOM     18  C   UNL     1      49.655 162.387  32.725  0.00  0.00    +0.040 C 
ENDROOT
TORSDOF 0
