REMARK  Name = =
REMARK  1 active torsions:
REMARK  status: ('A' for Active; 'I' for Inactive)
REMARK    1  A    between atoms: C_12  and  O_20
REMARK                            x       y       z     vdW  Elec       q    Type
REMARK                         _______ _______ _______ _____ _____    ______ ____
ROOT
ATOM      1  N   UNL     1      47.926 161.558  32.819  0.00  0.00    -0.219 NA
ATOM      2  C   UNL     1      48.569 162.084  31.596  0.00  0.00    +0.078 C 
ATOM      3  C   UNL     1      49.998 162.264  31.982  0.00  0.00    +0.024 C 
ATOM      4  C   UNL     1      50.654 160.969  32.139  0.00  0.00    +0.068 C 
ATOM      5  C   UNL     1      52.141 160.954  32.353  0.00  0.00    +0.226 C 
ATOM      6  O   UNL     1      52.553 159.740  31.679  0.00  0.00    -0.469 OA
ATOM      7  C   UNL     1      51.668 159.524  30.612  0.00  0.00    +0.168 C 
ATOM      8  C   UNL     1      50.542 160.242  30.853  0.00  0.00    +0.014 C 
ATOM      9  C   UNL     1      49.442 160.311  30.063  0.00  0.00    -0.022 C 
ATOM     10  C   UNL     1      49.447 159.591  28.907  0.00  0.00    -0.001 C 
ATOM     11  C   UNL     1      50.574 158.822  28.588  0.00  0.00    +0.039 C 
ATOM     12  C   UNL     1      51.682 158.788  29.439  0.00  0.00    +0.167 C 
ATOM     13  C   UNL     1      48.310 161.151  30.453  0.00  0.00    +0.044 C 
ATOM     14  C   UNL     1      52.800 162.103  31.658  0.00  0.00    +0.191 C 
ATOM     15  O   UNL     1      53.952 162.386  31.931  0.00  0.00    -0.292 OA
ATOM     16  C   UNL     1      52.007 162.846  30.658  0.00  0.00    +0.068 C 
ATOM     17  C   UNL     1      50.751 163.360  31.353  0.00  0.00    +0.010 C 
ATOM     18  C   UNL     1      49.937 160.164  33.190  0.00  0.00    +0.027 C 
ATOM     19  C   UNL     1      48.456 160.253  33.140  0.00  0.00    +0.089 C 
ENDROOT
BRANCH  12  20
ATOM     20  O   UNL     1      52.799 158.034  29.136  0.00  0.00    -0.503 OA
ATOM     21  H   UNL     1      52.824 157.530  28.346  0.00  0.00    +0.292 HD
ENDBRANCH  12  20
TORSDOF 1
