REMARK  Name = =
REMARK  2 active torsions:
REMARK  status: ('A' for Active; 'I' for Inactive)
REMARK    1  A    between atoms: N_1  and  N_20
REMARK    2  A    between atoms: C_12  and  O_33
REMARK                            x       y       z     vdW  Elec       q    Type
REMARK                         _______ _______ _______ _____ _____    ______ ____
ROOT
ATOM      1  N   UNL     1      48.372 162.183  34.364  0.00  0.00    -0.250 N 
ATOM      2  C   UNL     1      48.095 162.306  32.977  0.00  0.00    +0.095 C 
ATOM      3  C   UNL     1      49.400 162.073  32.257  0.00  0.00    +0.028 C 
ATOM      4  C   UNL     1      49.798 160.636  32.578  0.00  0.00    +0.069 C 
ATOM      5  C   UNL     1      51.113 160.204  31.996  0.00  0.00    +0.226 C 
ATOM      6  O   UNL     1      50.846 158.996  31.281  0.00  0.00    -0.469 OA
ATOM      7  C   UNL     1      49.459 158.915  31.029  0.00  0.00    +0.168 C 
ATOM      8  C   UNL     1      48.851 159.879  31.743  0.00  0.00    +0.014 C 
ATOM      9  C   UNL     1      47.524 160.166  31.779  0.00  0.00    -0.021 C 
ATOM     10  C   UNL     1      46.755 159.337  30.977  0.00  0.00    -0.001 C 
ATOM     11  C   UNL     1      47.329 158.313  30.215  0.00  0.00    +0.039 C 
ATOM     12  C   UNL     1      48.698 158.074  30.218  0.00  0.00    +0.167 C 
ATOM     13  C   UNL     1      47.010 161.322  32.544  0.00  0.00    +0.047 C 
ATOM     14  C   UNL     1      51.590 161.271  31.129  0.00  0.00    +0.191 C 
ATOM     15  O   UNL     1      51.858 161.087  29.976  0.00  0.00    -0.292 OA
ATOM     16  C   UNL     1      51.738 162.640  31.746  0.00  0.00    +0.068 C 
ATOM     17  C   UNL     1      50.493 162.985  32.580  0.00  0.00    +0.010 C 
ATOM     18  C   UNL     1      49.780 160.303  34.027  0.00  0.00    +0.031 C 
ATOM     19  C   UNL     1      48.503 160.759  34.675  0.00  0.00    +0.110 C 
ENDROOT
BRANCH   1  20
ATOM     20  N   UNL     1      47.595 162.885  35.249  0.00  0.00    -0.263 N 
ATOM     21  C   UNL     1      47.710 162.650  36.586  0.00  0.00    +0.078 A 
ATOM     22  C   UNL     1      46.804 163.421  37.265  0.00  0.00    +0.015 A 
ATOM     23  C   UNL     1      46.135 164.133  36.313  0.00  0.00    -0.005 A 
ATOM     24  C   UNL     1      46.634 163.793  35.098  0.00  0.00    +0.068 A 
ATOM     25  C   UNL     1      46.119 164.434  33.882  0.00  0.00    +0.115 C 
ATOM     26  N   UNL     1      45.657 165.783  34.077  0.00  0.00    -0.292 NA
ATOM     27  C   UNL     1      45.318 166.200  35.372  0.00  0.00    +0.074 C 
ATOM     28  C   UNL     1      45.020 165.130  36.354  0.00  0.00    +0.045 C 
ATOM     29  C   UNL     1      46.662 163.437  38.642  0.00  0.00    +0.001 C 
ATOM     30  C   UNL     1      47.478 162.632  39.404  0.00  0.00    +0.000 C 
ATOM     31  C   UNL     1      48.402 161.845  38.756  0.00  0.00    +0.002 C 
ATOM     32  C   UNL     1      48.534 161.840  37.367  0.00  0.00    +0.019 C 
ATOM     33  H   UNL     1      44.827 165.902  33.497  0.00  0.00    +0.124 HD
ENDBRANCH   1  20
BRANCH  12  34
ATOM     34  O   UNL     1      49.283 157.068  29.471  0.00  0.00    -0.503 OA
ATOM     35  H   UNL     1      48.752 156.515  28.933  0.00  0.00    +0.292 HD
ENDBRANCH  12  34
TORSDOF 2
