REMARK  Name = =
REMARK  2 active torsions:
REMARK  status: ('A' for Active; 'I' for Inactive)
REMARK    1  A    between atoms: C_1  and  N_13
REMARK    2  A    between atoms: N_13  and  N_18
REMARK                            x       y       z     vdW  Elec       q    Type
REMARK                         _______ _______ _______ _____ _____    ______ ____
ROOT
ATOM      1  C   UNL     1      53.087 153.315  26.466  0.00  0.00    +0.115 C 
ATOM      2  C   UNL     1      52.927 154.471  27.133  0.00  0.00    +0.062 C 
ATOM      3  C   UNL     1      52.137 154.469  28.349  0.00  0.00    +0.197 C 
ATOM      4  O   UNL     1      51.960 155.534  29.008  0.00  0.00    -0.287 OA
ATOM      5  C   UNL     1      51.521 153.260  28.857  0.00  0.00    +0.042 C 
ATOM      6  C   UNL     1      51.683 152.075  28.175  0.00  0.00    +0.043 C 
ATOM      7  C   UNL     1      51.109 150.889  28.627  0.00  0.00    +0.003 C 
ATOM      8  C   UNL     1      50.358 150.878  29.779  0.00  0.00    +0.000 C 
ATOM      9  C   UNL     1      50.197 152.065  30.460  0.00  0.00    +0.000 C 
ATOM     10  C   UNL     1      50.761 153.243  30.020  0.00  0.00    +0.003 C 
ATOM     11  C   UNL     1      52.490 152.095  26.940  0.00  0.00    +0.211 C 
ATOM     12  O   UNL     1      52.589 150.977  26.382  0.00  0.00    -0.285 OA
ENDROOT
BRANCH   1  13
ATOM     13  N   UNL     1      53.863 153.375  25.293  0.00  0.00    -0.175 N 
ATOM     14  C   UNL     1      54.049 152.438  24.277  0.00  0.00    +0.324 C 
ATOM     15  O   UNL     1      53.525 151.324  24.241  0.00  0.00    -0.263 OA
BRANCH  13  18
ATOM     16  C   UNL     1      54.126 155.406  24.016  0.00  0.00    +0.317 C 
ATOM     17  O   UNL     1      53.147 155.049  23.333  0.00  0.00    -0.264 OA
ATOM     18  N   UNL     1      54.598 154.598  25.084  0.00  0.00    -0.219 N 
ATOM     19  H   UNL     1      55.369 154.854  25.640  0.00  0.00    +0.174 HD
ENDBRANCH  13  18
ENDBRANCH   1  13
TORSDOF 2
