REMARK  Name = =
REMARK  3 active torsions:
REMARK  status: ('A' for Active; 'I' for Inactive)
REMARK    1  A    between atoms: N_1  and  N_20
REMARK    2  A    between atoms: C_12  and  O_39
REMARK    3  A    between atoms: C_30  and  C_33
REMARK                            x       y       z     vdW  Elec       q    Type
REMARK                         _______ _______ _______ _____ _____    ______ ____
ROOT
ATOM      1  N   UNL     1      49.285 161.155  31.792  0.00  0.00    -0.228 N 
ATOM      2  C   UNL     1      50.235 160.264  32.353  0.00  0.00    +0.100 C 
ATOM      3  C   UNL     1      51.052 159.726  31.239  0.00  0.00    +0.032 C 
ATOM      4  C   UNL     1      51.840 160.854  30.650  0.00  0.00    +0.087 C 
ATOM      5  C   UNL     1      52.731 160.466  29.485  0.00  0.00    +0.230 C 
ATOM      6  O   UNL     1      54.023 160.989  29.784  0.00  0.00    -0.468 OA
ATOM      7  C   UNL     1      54.125 161.159  31.179  0.00  0.00    +0.168 C 
ATOM      8  C   UNL     1      52.875 161.072  31.681  0.00  0.00    +0.018 C 
ATOM      9  C   UNL     1      52.524 161.168  32.974  0.00  0.00    -0.021 C 
ATOM     10  C   UNL     1      53.566 161.389  33.895  0.00  0.00    -0.001 C 
ATOM     11  C   UNL     1      54.870 161.491  33.445  0.00  0.00    +0.039 C 
ATOM     12  C   UNL     1      55.142 161.377  32.098  0.00  0.00    +0.167 C 
ATOM     13  C   UNL     1      51.114 161.003  33.387  0.00  0.00    +0.048 C 
ATOM     14  C   UNL     1      52.671 159.016  29.325  0.00  0.00    +0.191 C 
ATOM     15  O   UNL     1      53.671 158.333  29.332  0.00  0.00    -0.292 OA
ATOM     16  C   UNL     1      51.329 158.394  29.146  0.00  0.00    +0.068 C 
ATOM     17  C   UNL     1      50.502 158.708  30.385  0.00  0.00    +0.010 C 
ATOM     18  C   UNL     1      51.094 162.107  30.413  0.00  0.00    -0.001 C 
ATOM     19  C   UNL     1      49.803 162.293  31.133  0.00  0.00    +0.078 C 
ENDROOT
BRANCH   1  20
ATOM     20  N   UNL     1      47.976 160.917  31.810  0.00  0.00    -0.259 N 
ATOM     21  C   UNL     1      47.238 160.613  32.921  0.00  0.00    +0.078 A 
ATOM     22  C   UNL     1      45.905 160.456  32.524  0.00  0.00    +0.014 A 
ATOM     23  C   UNL     1      45.871 160.672  31.167  0.00  0.00    -0.005 A 
ATOM     24  C   UNL     1      47.161 160.957  30.732  0.00  0.00    +0.069 A 
ATOM     25  C   UNL     1      47.320 161.225  29.308  0.00  0.00    +0.115 C 
ATOM     26  N   UNL     1      46.207 162.126  28.957  0.00  0.00    -0.292 NA
ATOM     27  C   UNL     1      44.964 161.393  28.969  0.00  0.00    +0.074 C 
ATOM     28  C   UNL     1      44.731 160.631  30.238  0.00  0.00    +0.045 C 
ATOM     29  C   UNL     1      44.938 160.137  33.468  0.00  0.00    -0.001 C 
ATOM     30  C   UNL     1      45.273 159.978  34.764  0.00  0.00    +0.005 C 
ATOM     31  C   UNL     1      46.615 160.140  35.143  0.00  0.00    -0.000 C 
ATOM     32  C   UNL     1      47.595 160.455  34.239  0.00  0.00    +0.019 C 
ATOM     33  H   UNL     1      46.159 162.886  29.636  0.00  0.00    +0.124 HD
BRANCH  30  34
ATOM     34  C   UNL     1      44.289 159.654  35.812  0.00  0.00    +0.142 C 
ATOM     35  O   UNL     1      44.619 160.341  37.012  0.00  0.00    -0.347 OA
ATOM     36  C   UNL     1      44.547 161.719  36.784  0.00  0.00    +0.168 C 
ATOM     37  C   UNL     1      43.123 162.069  36.529  0.00  0.00    +0.001 C 
ATOM     38  C   UNL     1      42.349 161.201  35.916  0.00  0.00    -0.025 C 
ATOM     39  C   UNL     1      42.857 159.889  35.471  0.00  0.00    +0.060 C 
ENDBRANCH  30  34
ENDBRANCH   1  20
BRANCH  12  40
ATOM     40  O   UNL     1      56.439 161.478  31.658  0.00  0.00    -0.503 OA
ATOM     41  H   UNL     1      56.631 161.402  30.744  0.00  0.00    +0.292 HD
ENDBRANCH  12  40
TORSDOF 3
