MODEL 1
REMARK VINA RESULT:    -7.073      0.000      0.000
REMARK INTER + INTRA:         -11.093
REMARK INTER:                  -9.761
REMARK INTRA:                  -1.332
REMARK UNBOUND:                -1.332
REMARK  Name = =
REMARK  8 active torsions:
REMARK  status: ('A' for Active; 'I' for Inactive)
REMARK    1  A    between atoms: N_1  and  N_11
REMARK    2  A    between atoms: C_7  and  S_22
REMARK    3  A    between atoms: C_23  and  S_27
REMARK    4  A    between atoms: C_24  and  S_32
REMARK    5  A    between atoms: S_32  and  P_33
REMARK    6  A    between atoms: P_33  and  O_34
REMARK    7  A    between atoms: P_33  and  O_35
REMARK    8  A    between atoms: P_33  and  O_36
REMARK                            x       y       z     vdW  Elec       q    Type
REMARK                         _______ _______ _______ _____ _____    ______ ____
ROOT
ATOM      1  N   UNL     1      59.873 161.435  38.577  0.00  0.00    -0.199 N 
ATOM      2  C   UNL     1      59.619 162.262  37.564  0.00  0.00    +0.105 A 
ATOM      3  C   UNL     1      58.926 161.551  36.557  0.00  0.00    +0.078 A 
ATOM      4  C   UNL     1      58.573 162.164  35.398  0.00  0.00    +0.019 C 
ATOM      5  C   UNL     1      58.879 163.475  35.175  0.00  0.00    +0.002 C 
ATOM      6  C   UNL     1      59.555 164.167  36.161  0.00  0.00    +0.007 C 
ATOM      7  C   UNL     1      59.929 163.581  37.356  0.00  0.00    +0.038 C 
ATOM      8  N   UNL     1      58.791 160.307  37.033  0.00  0.00    -0.304 N 
ATOM      9  C   UNL     1      59.339 160.200  38.228  0.00  0.00    +0.345 A 
ATOM     10  O   UNL     1      59.402 159.192  38.965  0.00  0.00    -0.245 OA
ATOM     11  H   UNL     1      58.343 159.571  36.556  0.00  0.00    +0.171 HD
ENDROOT
BRANCH   1  12
ATOM     12  N   UNL     1      60.569 161.567  39.777  0.00  0.00    -0.168 N 
ATOM     13  C   UNL     1      61.908 161.352  39.815  0.00  0.00    +0.068 C 
ATOM     14  C   UNL     1      62.610 161.556  40.996  0.00  0.00    +0.015 C 
ATOM     15  C   UNL     1      63.983 161.376  41.093  0.00  0.00    +0.001 C 
ATOM     16  C   UNL     1      64.673 160.984  39.981  0.00  0.00    -0.001 C 
ATOM     17  C   UNL     1      63.979 160.781  38.805  0.00  0.00    -0.007 C 
ATOM     18  C   UNL     1      62.621 160.959  38.714  0.00  0.00    +0.035 C 
ATOM     19  C   UNL     1      61.959 161.982  42.149  0.00  0.00    +0.006 C 
ATOM     20  C   UNL     1      60.611 162.195  42.088  0.00  0.00    +0.060 C 
ATOM     21  C   UNL     1      59.980 161.979  40.908  0.00  0.00    +0.271 C 
ATOM     22  O   UNL     1      58.723 162.183  40.854  0.00  0.00    -0.268 OA
ENDBRANCH   1  12
BRANCH   7  23
ATOM     23  S   UNL     1      60.668 164.612  38.623  0.00  0.00    -0.128 S 
ATOM     24  C   UNL     1      60.609 166.487  38.151  0.00  0.00    +0.101 C 
ATOM     25  C   UNL     1      61.599 166.251  37.024  0.00  0.00    +0.136 C 
ATOM     26  N   UNL     1      62.770 165.813  37.685  0.00  0.00    -0.196 NA
ATOM     27  C   UNL     1      62.540 164.700  38.510  0.00  0.00    +0.143 C 
BRANCH  24  28
ATOM     28  S   UNL     1      61.247 167.249  39.410  0.00  0.00    -0.184 S 
ATOM     29  C   UNL     1      60.671 166.786  41.123  0.00  0.00    +0.147 C 
ATOM     30  N   UNL     1      60.682 167.878  41.747  0.00  0.00    -0.139 NA
ATOM     31  N   UNL     1      61.071 169.010  41.098  0.00  0.00    -0.218 NA
ATOM     32  C   UNL     1      60.763 168.996  39.678  0.00  0.00    +0.125 C 
ATOM     33  H   UNL     1      62.522 166.948  39.043  0.00  0.00    +0.087 HD
ATOM     34  H   UNL     1      62.079 169.117  41.210  0.00  0.00    +0.144 HD
ENDBRANCH  24  28
BRANCH  25  35
ATOM     35  S   UNL     1      61.757 167.713  36.075  0.00  0.00    -0.103 S 
ATOM     36  H   UNL     1      63.072 168.016  35.914  0.00  0.00    +0.104 HD
BRANCH  35  37
ATOM     37  P   UNL     1      60.947 167.415  34.367  0.00  0.00    +0.279 P 
BRANCH  37  38
ATOM     38  O   UNL     1      61.483 165.988  33.674  0.00  0.00    -0.328 OA
ATOM     39  H   UNL     1      61.143 165.234  34.183  0.00  0.00    +0.219 HD
ENDBRANCH  37  38
BRANCH  37  40
ATOM     40  O   UNL     1      61.357 168.775  33.409  0.00  0.00    -0.328 OA
ATOM     41  H   UNL     1      61.478 168.497  32.488  0.00  0.00    +0.219 HD
ENDBRANCH  37  40
BRANCH  37  42
ATOM     42  O   UNL     1      59.259 167.432  34.514  0.00  0.00    -0.328 OA
ATOM     43  H   UNL     1      58.969 168.311  34.800  0.00  0.00    +0.219 HD
ENDBRANCH  37  42
ENDBRANCH  35  37
ENDBRANCH  25  35
ENDBRANCH   7  23
TORSDOF 8
ENDMDL
