MODEL 1
REMARK VINA RESULT:    -5.918      0.000      0.000
REMARK INTER + INTRA:         -11.813
REMARK INTER:                  -8.340
REMARK INTRA:                  -3.473
REMARK UNBOUND:                -3.473
REMARK  Name = =
REMARK  8 active torsions:
REMARK  status: ('A' for Active; 'I' for Inactive)
REMARK    1  A    between atoms: C_1  and  O_28
REMARK    2  A    between atoms: C_2  and  S_11
REMARK    3  A    between atoms: C_3  and  O_10
REMARK    4  A    between atoms: C_5  and  O_9
REMARK    5  A    between atoms: C_6  and  C_7
REMARK    6  A    between atoms: S_11  and  C_12
REMARK    7  A    between atoms: S_11  and  C_23
REMARK    8  A    between atoms: O_28  and  C_29
REMARK                            x       y       z     vdW  Elec       q    Type
REMARK                         _______ _______ _______ _____ _____    ______ ____
ROOT
ATOM      1  C   UNL     1      59.585 163.825  37.341  0.00  0.00    +0.152 C 
ATOM      2  C   UNL     1      59.581 162.675  38.124  0.00  0.00    +0.085 C 
ATOM      3  C   UNL     1      59.228 161.487  37.555  0.00  0.00    +0.144 C 
ATOM      4  C   UNL     1      58.874 161.378  36.222  0.00  0.00    +0.074 C 
ATOM      5  C   UNL     1      58.879 162.497  35.455  0.00  0.00    +0.143 C 
ATOM      6  C   UNL     1      59.232 163.731  35.994  0.00  0.00    +0.110 C 
ENDROOT
BRANCH   6   7
ATOM      7  C   UNL     1      59.221 164.871  35.104  0.00  0.00    +0.240 C 
ATOM      8  O   UNL     1      60.095 165.167  34.297  0.00  0.00    -0.283 OA
ENDBRANCH   6   7
BRANCH   5   9
ATOM      9  O   UNL     1      58.528 162.438  34.095  0.00  0.00    -0.505 OA
ATOM     10  H   UNL     1      58.021 161.719  33.774  0.00  0.00    +0.292 HD
ENDBRANCH   5   9
BRANCH   3  11
ATOM     11  O   UNL     1      59.217 160.344  38.318  0.00  0.00    -0.505 OA
ATOM     12  H   UNL     1      59.581 160.354  39.181  0.00  0.00    +0.292 HD
ENDBRANCH   3  11
BRANCH   2  13
ATOM     13  S   UNL     1      60.041 162.684  39.816  0.00  0.00    -0.114 S 
ATOM     14  H   UNL     1      60.059 163.948  40.317  0.00  0.00    +0.101 HD
BRANCH  13  15
ATOM     15  C   UNL     1      61.583 162.069  40.005  0.00  0.00    +0.093 C 
ATOM     16  N   UNL     1      61.804 160.763  39.929  0.00  0.00    -0.263 NA
ATOM     17  C   UNL     1      63.052 160.020  40.059  0.00  0.00    +0.147 C 
ATOM     18  C   UNL     1      64.020 160.423  38.976  0.00  0.00    +0.114 C 
ATOM     19  N   UNL     1      64.609 161.721  39.167  0.00  0.00    -0.331 N 
ATOM     20  C   UNL     1      64.031 162.838  39.861  0.00  0.00    +0.047 C 
ATOM     21  C   UNL     1      62.684 162.985  40.250  0.00  0.00    +0.035 C 
ATOM     22  C   UNL     1      62.296 164.114  40.934  0.00  0.00    +0.003 C 
ATOM     23  C   UNL     1      63.236 165.073  41.218  0.00  0.00    +0.000 C 
ATOM     24  C   UNL     1      64.559 164.982  40.864  0.00  0.00    +0.001 C 
ATOM     25  C   UNL     1      64.935 163.827  40.171  0.00  0.00    +0.014 C 
ATOM     26  H   UNL     1      65.504 161.859  38.780  0.00  0.00    +0.147 HD
ENDBRANCH  13  15
BRANCH  13  27
ATOM     27  C   UNL     1      58.889 161.725  40.642  0.00  0.00    +0.197 A 
ATOM     28  N   UNL     1      59.156 160.625  41.368  0.00  0.00    -0.235 N 
ATOM     29  N   UNL     1      58.038 160.153  41.887  0.00  0.00    -0.046 NA
ATOM     30  N   UNL     1      57.064 160.952  41.491  0.00  0.00    -0.022 NA
ATOM     31  N   UNL     1      57.568 161.911  40.733  0.00  0.00    -0.103 NA
ATOM     32  H   UNL     1      60.049 160.231  41.493  0.00  0.00    +0.193 HD
ENDBRANCH  13  27
ENDBRANCH   2  13
BRANCH   1  33
ATOM     33  O   UNL     1      59.923 165.010  37.876  0.00  0.00    -0.474 OA
BRANCH  33  34
ATOM     34  C   UNL     1      61.025 165.723  38.201  0.00  0.00    +0.195 C 
ATOM     35  C   UNL     1      60.614 167.088  38.726  0.00  0.00    +0.096 C 
ATOM     36  C   UNL     1      60.540 168.156  37.685  0.00  0.00    +0.209 C 
ATOM     37  O   UNL     1      60.947 167.757  36.390  0.00  0.00    -0.476 OA
ATOM     38  C   UNL     1      62.060 166.937  36.269  0.00  0.00    +0.138 C 
ATOM     39  C   UNL     1      62.105 165.890  37.180  0.00  0.00    +0.051 C 
ATOM     40  C   UNL     1      63.175 165.043  37.118  0.00  0.00    +0.002 C 
ATOM     41  C   UNL     1      64.170 165.208  36.203  0.00  0.00    -0.000 C 
ATOM     42  C   UNL     1      64.126 166.246  35.301  0.00  0.00    +0.003 C 
ATOM     43  C   UNL     1      63.061 167.130  35.325  0.00  0.00    +0.037 C 
ENDBRANCH  33  34
ENDBRANCH   1  33
TORSDOF 8
ENDMDL
