MODEL 1
REMARK VINA RESULT:    -4.471      0.000      0.000
REMARK INTER + INTRA:          -5.303
REMARK INTER:                  -5.647
REMARK INTRA:                   0.345
REMARK UNBOUND:                 0.345
REMARK  Name = =
REMARK  5 active torsions:
REMARK  status: ('A' for Active; 'I' for Inactive)
REMARK    1  A    between atoms: N_1  and  N_2
REMARK    2  A    between atoms: N_1  and  C_6
REMARK    3  A    between atoms: N_1  and  C_14
REMARK    4  A    between atoms: C_6  and  C_9
REMARK    5  A    between atoms: C_14  and  N_16
REMARK                            x       y       z     vdW  Elec       q    Type
REMARK                         _______ _______ _______ _____ _____    ______ ____
ROOT
ATOM      1  N   UNL     1      60.955 166.252  35.498  0.00  0.00    -0.213 N 
ENDROOT
BRANCH   1   2
ATOM      2  N   UNL     1      60.146 167.278  35.073  0.00  0.00    -0.200 NA
ATOM      3  C   UNL     1      59.448 167.072  33.818  0.00  0.00    +0.094 C 
ATOM      4  C   UNL     1      59.572 168.588  33.606  0.00  0.00    +0.038 C 
ATOM      5  C   UNL     1      60.839 168.381  34.409  0.00  0.00    +0.094 C 
ENDBRANCH   1   2
BRANCH   1   6
ATOM      6  C   UNL     1      60.487 165.363  36.535  0.00  0.00    +0.079 C 
ATOM      7  C   UNL     1      60.214 165.902  37.700  0.00  0.00    +0.050 C 
ATOM      8  I   UNL     1      60.457 167.986  38.026  0.00  0.00    -0.041 I 
BRANCH   6   9
ATOM      9  C   UNL     1      60.308 163.936  36.314  0.00  0.00    +0.153 C 
ATOM     10  O   UNL     1      59.743 163.294  37.447  0.00  0.00    -0.351 OA
ATOM     11  C   UNL     1      59.443 162.045  36.912  0.00  0.00    +0.143 C 
ATOM     12  C   UNL     1      58.736 162.356  35.633  0.00  0.00    +0.035 C 
ATOM     13  C   UNL     1      59.248 163.715  35.247  0.00  0.00    +0.038 C 
ENDBRANCH   6   9
ENDBRANCH   1   6
BRANCH   1  14
ATOM     14  C   UNL     1      62.249 165.998  34.972  0.00  0.00    +0.149 C 
ATOM     15  S   UNL     1      63.532 166.340  35.924  0.00  0.00    -0.017 S 
BRANCH  14  16
ATOM     16  N   UNL     1      62.447 165.470  33.679  0.00  0.00    -0.339 N 
ATOM     17  H   UNL     1      61.847 165.730  32.943  0.00  0.00    +0.144 HD
ATOM     18  H   UNL     1      63.186 164.840  33.511  0.00  0.00    +0.144 HD
ENDBRANCH  14  16
ENDBRANCH   1  14
TORSDOF 5
ENDMDL
