REMARK  Name = =
REMARK  5 active torsions:
REMARK  status: ('A' for Active; 'I' for Inactive)
REMARK    1  A    between atoms: N_1  and  N_2
REMARK    2  A    between atoms: N_1  and  C_6
REMARK    3  A    between atoms: N_1  and  C_14
REMARK    4  A    between atoms: C_6  and  C_9
REMARK    5  A    between atoms: C_14  and  N_16
REMARK                            x       y       z     vdW  Elec       q    Type
REMARK                         _______ _______ _______ _____ _____    ______ ____
ROOT
ATOM      1  N   UNL     1      53.901 154.215  25.565  0.00  0.00    -0.213 N 
ENDROOT
BRANCH   1   2
ATOM      2  N   UNL     1      55.099 153.594  25.825  0.00  0.00    -0.200 NA
ATOM      3  C   UNL     1      55.701 152.866  24.724  0.00  0.00    +0.094 C 
ATOM      4  C   UNL     1      56.266 151.911  25.787  0.00  0.00    +0.038 C 
ATOM      5  C   UNL     1      54.996 152.307  26.510  0.00  0.00    +0.094 C 
ENDBRANCH   1   2
BRANCH   1   6
ATOM      6  C   UNL     1      53.353 155.135  26.533  0.00  0.00    +0.079 C 
ATOM      7  C   UNL     1      53.740 156.386  26.448  0.00  0.00    +0.050 C 
ATOM      8  I   UNL     1      55.111 157.008  24.950  0.00  0.00    -0.041 I 
BRANCH   6   9
ATOM      9  C   UNL     1      52.404 154.716  27.554  0.00  0.00    +0.153 C 
ATOM     10  O   UNL     1      53.059 154.176  28.692  0.00  0.00    -0.351 OA
ATOM     11  C   UNL     1      51.997 154.097  29.587  0.00  0.00    +0.143 C 
ATOM     12  C   UNL     1      51.346 155.439  29.500  0.00  0.00    +0.035 C 
ATOM     13  C   UNL     1      51.700 155.935  28.127  0.00  0.00    +0.038 C 
ENDBRANCH   6   9
ENDBRANCH   1   6
BRANCH   1  14
ATOM     14  C   UNL     1      53.149 154.011  24.378  0.00  0.00    +0.149 C 
ATOM     15  S   UNL     1      53.854 153.162  23.173  0.00  0.00    -0.017 S 
BRANCH  14  16
ATOM     16  N   UNL     1      51.839 154.512  24.219  0.00  0.00    -0.339 N 
ATOM     17  H   UNL     1      51.416 155.023  24.946  0.00  0.00    +0.144 HD
ATOM     18  H   UNL     1      51.348 154.350  23.381  0.00  0.00    +0.144 HD
ENDBRANCH  14  16
ENDBRANCH   1  14
TORSDOF 5
