REMARK  Name = =
REMARK  1 active torsions:
REMARK  status: ('A' for Active; 'I' for Inactive)
REMARK    1  A    between atoms: O_1  and  C_2
REMARK                            x       y       z     vdW  Elec       q    Type
REMARK                         _______ _______ _______ _____ _____    ______ ____
ROOT
ATOM      1  O   UNL     1     -12.586 -42.183  27.969  0.00  0.00    -0.498 OA
ATOM      2  H   UNL     1     -13.435 -42.122  27.578  0.00  0.00    +0.293 HD
ENDROOT
BRANCH   1   3
ATOM      3  C   UNL     1     -12.000 -43.419  28.158  0.00  0.00    +0.213 C 
ATOM      4  S   UNL     1     -10.512 -43.452  28.848  0.00  0.00    -0.008 S 
ENDBRANCH   1   3
TORSDOF 1
