REMARK  Name = =
REMARK  5 active torsions:
REMARK  status: ('A' for Active; 'I' for Inactive)
REMARK    1  A    between atoms: N_1  and  C_19
REMARK    2  A    between atoms: C_2  and  C_28
REMARK    3  A    between atoms: C_5  and  C_8
REMARK    4  A    between atoms: C_18  and  O_25
REMARK    5  A    between atoms: O_25  and  C_26
REMARK                            x       y       z     vdW  Elec       q    Type
REMARK                         _______ _______ _______ _____ _____    ______ ____
ROOT
ATOM      1  N   UNL     1     -24.725 -41.896  24.735  0.00  0.00    -0.211 N 
ATOM      2  C   UNL     1     -25.542 -41.140  25.453  0.00  0.00    +0.150 C 
ATOM      3  N   UNL     1     -26.386 -40.272  24.852  0.00  0.00    -0.230 NA
ATOM      4  C   UNL     1     -26.437 -40.137  23.529  0.00  0.00    +0.105 C 
ATOM      5  C   UNL     1     -25.606 -40.903  22.747  0.00  0.00    +0.073 C 
ATOM      6  C   UNL     1     -24.753 -41.782  23.375  0.00  0.00    +0.259 C 
ATOM      7  O   UNL     1     -23.971 -42.509  22.724  0.00  0.00    -0.269 OA
ENDROOT
BRANCH   5   8
ATOM      8  C   UNL     1     -25.640 -40.778  21.285  0.00  0.00    +0.006 C 
ATOM      9  C   UNL     1     -25.423 -41.891  20.513  0.00  0.00    -0.000 C 
ATOM     10  C   UNL     1     -25.434 -41.867  19.137  0.00  0.00    +0.022 C 
ATOM     11  C   UNL     1     -25.673 -40.680  18.479  0.00  0.00    +0.210 C 
ATOM     12  C   UNL     1     -25.897 -39.533  19.251  0.00  0.00    +0.021 C 
ATOM     13  C   UNL     1     -25.878 -39.591  20.629  0.00  0.00    -0.000 C 
ATOM     14  O   UNL     1     -25.690 -40.629  17.096  0.00  0.00    -0.467 OA
ATOM     15  C   UNL     1     -25.474 -41.734  16.258  0.00  0.00    +0.173 C 
ATOM     16  C   UNL     1     -25.221 -42.992  16.989  0.00  0.00    +0.040 C 
ATOM     17  C   UNL     1     -25.204 -43.043  18.306  0.00  0.00    +0.003 C 
ENDBRANCH   5   8
BRANCH   1  19
ATOM     18  C   UNL     1     -22.571 -42.492  25.793  0.00  0.00    +0.320 C 
ATOM     19  C   UNL     1     -23.837 -42.788  25.365  0.00  0.00    +0.171 C 
ATOM     20  C   UNL     1     -24.262 -44.097  25.571  0.00  0.00    +0.219 C 
ATOM     21  O   UNL     1     -25.407 -44.462  25.211  0.00  0.00    -0.285 OA
ATOM     22  C   UNL     1     -23.451 -45.035  26.171  0.00  0.00    +0.084 C 
ATOM     23  C   UNL     1     -22.204 -44.624  26.558  0.00  0.00    +0.186 C 
ATOM     24  O   UNL     1     -21.804 -43.392  26.364  0.00  0.00    -0.419 OA
BRANCH  18  25
ATOM     25  O   UNL     1     -22.102 -41.197  25.607  0.00  0.00    -0.412 OA
BRANCH  25  26
ATOM     26  C   UNL     1     -20.739 -40.938  25.648  0.00  0.00    +0.226 C 
ATOM     27  S   UNL     1     -19.777 -41.316  26.890  0.00  0.00    -0.007 S 
ENDBRANCH  25  26
ENDBRANCH  18  25
ENDBRANCH   1  19
BRANCH   2  28
ATOM     28  C   UNL     1     -25.576 -41.224  26.890  0.00  0.00    +0.185 C 
ATOM     29  N   UNL     1     -24.997 -40.401  27.681  0.00  0.00    -0.196 NA
ATOM     30  C   UNL     1     -25.199 -40.725  29.054  0.00  0.00    +0.108 C 
ATOM     31  C   UNL     1     -25.628 -42.175  29.020  0.00  0.00    +0.089 C 
ATOM     32  N   UNL     1     -26.251 -42.184  27.676  0.00  0.00    -0.278 NA
ATOM     33  H   UNL     1     -26.157 -43.108  27.254  0.00  0.00    +0.125 HD
ENDBRANCH   2  28
TORSDOF 5
