REMARK  Name = =
REMARK  0 active torsions:
REMARK  status: ('A' for Active; 'I' for Inactive)
REMARK                            x       y       z     vdW  Elec       q    Type
REMARK                         _______ _______ _______ _____ _____    ______ ____
ROOT
ATOM      1  C   UNL     1      50.525 155.801  28.828  0.00  0.00    +0.025 C 
ATOM      2  C   UNL     1      51.804 156.540  29.017  0.00  0.00    +0.005 C 
ATOM      3  C   UNL     1      51.663 157.960  29.436  0.00  0.00    +0.004 C 
ATOM      4  C   UNL     1      50.358 158.310  30.061  0.00  0.00    +0.018 C 
ATOM      5  C   UNL     1      50.590 159.262  31.188  0.00  0.00    +0.004 C 
ATOM      6  C   UNL     1      51.620 160.306  30.925  0.00  0.00    +0.000 C 
ATOM      7  C   UNL     1      51.141 161.675  31.277  0.00  0.00    +0.000 C 
ATOM      8  C   UNL     1      50.494 161.788  32.617  0.00  0.00    +0.000 C 
ATOM      9  C   UNL     1      49.664 160.590  32.995  0.00  0.00    +0.000 C 
ATOM     10  C   UNL     1      48.529 161.145  33.758  0.00  0.00    +0.000 C 
ATOM     11  C   UNL     1      48.459 162.624  33.543  0.00  0.00    +0.000 C 
ATOM     12  C   UNL     1      49.510 162.963  32.540  0.00  0.00    +0.000 C 
ATOM     13  C   UNL     1      49.314 159.825  31.769  0.00  0.00    +0.001 C 
ATOM     14  C   UNL     1      48.330 158.726  31.959  0.00  0.00    +0.004 C 
ATOM     15  C   UNL     1      48.912 157.343  31.910  0.00  0.00    +0.022 C 
ATOM     16  C   UNL     1      49.670 157.104  30.651  0.00  0.00    -0.049 C 
ATOM     17  C   UNL     1      49.733 155.918  30.092  0.00  0.00    -0.035 C 
ENDROOT
TORSDOF 0
