REMARK  Name = =
REMARK  6 active torsions:
REMARK  status: ('A' for Active; 'I' for Inactive)
REMARK    1  A    between atoms: O_1  and  P_2
REMARK    2  A    between atoms: O_1  and  P_6
REMARK    3  A    between atoms: P_2  and  O_4
REMARK    4  A    between atoms: P_2  and  O_5
REMARK    5  A    between atoms: P_6  and  O_8
REMARK    6  A    between atoms: P_6  and  O_9
REMARK                            x       y       z     vdW  Elec       q    Type
REMARK                         _______ _______ _______ _____ _____    ______ ____
ROOT
ATOM      1  O   UNL     1      51.329 153.911  27.805  0.00  0.00    -0.186 OA
ENDROOT
BRANCH   1   2
ATOM      2  P   UNL     1      52.628 153.142  27.027  0.00  0.00    +0.481 P 
ATOM      3  O   UNL     1      52.163 151.719  26.739  0.00  0.00    -0.227 OA
BRANCH   2   4
ATOM      4  O   UNL     1      52.925 153.946  25.582  0.00  0.00    -0.302 OA
ATOM      5  H   UNL     1      53.220 154.851  25.770  0.00  0.00    +0.222 HD
ENDBRANCH   2   4
BRANCH   2   6
ATOM      6  O   UNL     1      53.936 153.174  28.076  0.00  0.00    -0.302 OA
ATOM      7  H   UNL     1      53.710 152.697  28.890  0.00  0.00    +0.222 HD
ENDBRANCH   2   6
ENDBRANCH   1   2
BRANCH   1   8
ATOM      8  P   UNL     1      51.747 155.444  28.359  0.00  0.00    +0.481 P 
ATOM      9  O   UNL     1      52.210 156.356  27.258  0.00  0.00    -0.227 OA
BRANCH   8  10
ATOM     10  O   UNL     1      53.038 155.230  29.451  0.00  0.00    -0.302 OA
ATOM     11  H   UNL     1      52.759 154.643  30.171  0.00  0.00    +0.222 HD
ENDBRANCH   8  10
BRANCH   8  12
ATOM     12  O   UNL     1      50.396 156.080  29.158  0.00  0.00    -0.302 OA
ATOM     13  H   UNL     1      50.120 155.472  29.861  0.00  0.00    +0.222 HD
ENDBRANCH   8  12
ENDBRANCH   1   8
TORSDOF 6
