REMARK  Name = =
REMARK  7 active torsions:
REMARK  status: ('A' for Active; 'I' for Inactive)
REMARK    1  A    between atoms: P_1  and  O_3
REMARK    2  A    between atoms: P_1  and  O_4
REMARK    3  A    between atoms: P_1  and  O_10
REMARK    4  A    between atoms: O_4  and  C_5
REMARK    5  A    between atoms: O_10  and  P_11
REMARK    6  A    between atoms: P_11  and  O_13
REMARK    7  A    between atoms: P_11  and  O_14
REMARK                            x       y       z     vdW  Elec       q    Type
REMARK                         _______ _______ _______ _____ _____    ______ ____
ROOT
ATOM      1  P   UNL     1      51.201 153.478  27.549  0.00  0.00    +0.486 P 
ATOM      2  O   UNL     1      52.307 152.595  28.016  0.00  0.00    -0.227 OA
ENDROOT
BRANCH   1   3
ATOM      3  O   UNL     1      49.915 153.506  28.677  0.00  0.00    -0.302 OA
ATOM      4  H   UNL     1      49.598 152.602  28.828  0.00  0.00    +0.222 HD
ENDBRANCH   1   3
BRANCH   1   5
ATOM      5  O   UNL     1      50.536 152.953  26.068  0.00  0.00    -0.249 OA
BRANCH   5   6
ATOM      6  C   UNL     1      49.781 153.995  25.576  0.00  0.00    +0.234 C 
ATOM      7  S   UNL     1      48.045 153.476  25.259  0.00  0.00    -0.093 S 
ATOM      8  C   UNL     1      48.205 153.262  23.438  0.00  0.00    +0.078 C 
ATOM      9  C   UNL     1      49.740 153.270  23.362  0.00  0.00    +0.083 C 
ATOM     10  N   UNL     1      50.175 154.361  24.204  0.00  0.00    -0.265 NA
ATOM     11  H   UNL     1      49.719 155.229  23.924  0.00  0.00    +0.126 HD
ENDBRANCH   5   6
ENDBRANCH   1   5
BRANCH   1  12
ATOM     12  O   UNL     1      51.699 155.075  27.337  0.00  0.00    -0.186 OA
BRANCH  12  13
ATOM     13  P   UNL     1      53.279 155.312  27.840  0.00  0.00    +0.481 P 
ATOM     14  O   UNL     1      53.504 156.810  27.992  0.00  0.00    -0.227 OA
BRANCH  13  15
ATOM     15  O   UNL     1      54.396 154.773  26.682  0.00  0.00    -0.302 OA
ATOM     16  H   UNL     1      54.247 155.242  25.846  0.00  0.00    +0.222 HD
ENDBRANCH  13  15
BRANCH  13  17
ATOM     17  O   UNL     1      53.534 154.500  29.294  0.00  0.00    -0.302 OA
ATOM     18  H   UNL     1      52.894 154.810  29.954  0.00  0.00    +0.222 HD
ENDBRANCH  13  17
ENDBRANCH  12  13
ENDBRANCH   1  12
TORSDOF 7
