REMARK  Name = =
REMARK  1 active torsions:
REMARK  status: ('A' for Active; 'I' for Inactive)
REMARK    1  A    between atoms: C_1  and  N_18
REMARK                            x       y       z     vdW  Elec       q    Type
REMARK                         _______ _______ _______ _____ _____    ______ ____
ROOT
ATOM      1  C   UNL     1      52.656 155.967  28.789  0.00  0.00    +0.079 C 
ATOM      2  C   UNL     1      53.264 157.300  29.053  0.00  0.00    +0.021 C 
ATOM      3  C   UNL     1      52.390 158.207  29.920  0.00  0.00    +0.006 C 
ATOM      4  C   UNL     1      51.029 158.221  29.306  0.00  0.00    +0.018 C 
ATOM      5  C   UNL     1      50.110 159.275  29.722  0.00  0.00    +0.004 C 
ATOM      6  C   UNL     1      50.517 160.671  29.519  0.00  0.00    +0.000 C 
ATOM      7  C   UNL     1      50.906 161.410  30.757  0.00  0.00    +0.000 C 
ATOM      8  C   UNL     1      50.179 161.075  31.986  0.00  0.00    +0.000 C 
ATOM      9  C   UNL     1      49.284 159.932  32.005  0.00  0.00    +0.000 C 
ATOM     10  C   UNL     1      47.970 160.464  32.518  0.00  0.00    +0.000 C 
ATOM     11  C   UNL     1      48.400 161.602  33.423  0.00  0.00    +0.000 C 
ATOM     12  C   UNL     1      49.450 162.283  32.570  0.00  0.00    +0.000 C 
ATOM     13  C   UNL     1      49.209 159.043  30.850  0.00  0.00    +0.001 C 
ATOM     14  C   UNL     1      48.713 157.670  31.065  0.00  0.00    +0.004 C 
ATOM     15  C   UNL     1      49.034 156.758  29.907  0.00  0.00    +0.022 C 
ATOM     16  C   UNL     1      50.447 156.873  29.474  0.00  0.00    -0.048 C 
ATOM     17  C   UNL     1      51.245 155.844  29.221  0.00  0.00    -0.019 C 
ENDROOT
BRANCH   1  18
ATOM     18  N   UNL     1      52.876 155.565  27.422  0.00  0.00    -0.268 NA
ATOM     19  C   UNL     1      52.810 156.609  26.456  0.00  0.00    +0.090 C 
ATOM     20  C   UNL     1      53.753 156.204  25.314  0.00  0.00    +0.086 C 
ATOM     21  N   UNL     1      53.685 154.772  25.213  0.00  0.00    -0.295 NA
ATOM     22  C   UNL     1      52.351 154.262  25.506  0.00  0.00    +0.086 C 
ATOM     23  C   UNL     1      52.052 154.471  26.986  0.00  0.00    +0.090 C 
ATOM     24  H   UNL     1      54.345 154.364  25.875  0.00  0.00    +0.123 HD
ENDBRANCH   1  18
TORSDOF 1
