REMARK  Name = =
REMARK  10 active torsions:
REMARK  status: ('A' for Active; 'I' for Inactive)
REMARK    1  A    between atoms: O_1  and  C_2
REMARK    2  A    between atoms: O_1  and  P_11
REMARK    3  A    between atoms: C_2  and  S_7
REMARK    4  A    between atoms: S_7  and  C_8
REMARK    5  A    between atoms: C_8  and  N_10
REMARK    6  A    between atoms: P_11  and  O_13
REMARK    7  A    between atoms: P_11  and  O_14
REMARK    8  A    between atoms: O_14  and  P_15
REMARK    9  A    between atoms: P_15  and  O_17
REMARK   10  A    between atoms: P_15  and  O_18
REMARK                            x       y       z     vdW  Elec       q    Type
REMARK                         _______ _______ _______ _____ _____    ______ ____
ROOT
ATOM      1  O   UNL     1      52.056 153.727  27.076  0.00  0.00    -0.245 OA
ENDROOT
BRANCH   1   2
ATOM      2  C   UNL     1      52.048 154.977  27.595  0.00  0.00    +0.236 C 
ATOM      3  S   UNL     1      52.525 156.260  26.366  0.00  0.00    -0.087 S 
ATOM      4  C   UNL     1      53.324 157.329  27.636  0.00  0.00    +0.079 C 
ATOM      5  C   UNL     1      53.777 156.249  28.579  0.00  0.00    +0.084 C 
ATOM      6  N   UNL     1      52.827 155.250  28.721  0.00  0.00    -0.260 NA
ATOM      7  H   UNL     1      53.314 154.391  28.978  0.00  0.00    +0.127 HD
BRANCH   2   8
ATOM      8  S   UNL     1      50.298 155.361  28.012  0.00  0.00    -0.040 S 
BRANCH   8   9
ATOM      9  C   UNL     1      50.122 155.759  29.718  0.00  0.00    +0.109 C 
ATOM     10  S   UNL     1      50.875 154.872  30.856  0.00  0.00    -0.028 S 
BRANCH   9  11
ATOM     11  N   UNL     1      49.325 156.854  30.132  0.00  0.00    -0.347 N 
ATOM     12  H   UNL     1      48.860 157.405  29.462  0.00  0.00    +0.143 HD
ATOM     13  H   UNL     1      49.236 157.064  31.090  0.00  0.00    +0.143 HD
ENDBRANCH   9  11
ENDBRANCH   8   9
ENDBRANCH   2   8
ENDBRANCH   1   2
BRANCH   1  14
ATOM     14  P   UNL     1      53.517 153.072  26.649  0.00  0.00    +0.486 P 
ATOM     15  O   UNL     1      54.487 152.889  27.764  0.00  0.00    -0.227 OA
BRANCH  14  16
ATOM     16  O   UNL     1      54.166 154.007  25.375  0.00  0.00    -0.302 OA
ATOM     17  H   UNL     1      54.357 154.902  25.696  0.00  0.00    +0.222 HD
ENDBRANCH  14  16
BRANCH  14  18
ATOM     18  O   UNL     1      53.208 151.514  26.009  0.00  0.00    -0.186 OA
BRANCH  18  19
ATOM     19  P   UNL     1      54.366 151.060  24.894  0.00  0.00    +0.481 P 
ATOM     20  O   UNL     1      54.047 151.700  23.567  0.00  0.00    -0.227 OA
BRANCH  19  21
ATOM     21  O   UNL     1      54.240 149.377  24.686  0.00  0.00    -0.302 OA
ATOM     22  H   UNL     1      54.440 148.932  25.524  0.00  0.00    +0.222 HD
ENDBRANCH  19  21
BRANCH  19  23
ATOM     23  O   UNL     1      55.930 151.498  25.363  0.00  0.00    -0.302 OA
ATOM     24  H   UNL     1      55.976 152.460  25.475  0.00  0.00    +0.222 HD
ENDBRANCH  19  23
ENDBRANCH  18  19
ENDBRANCH  14  18
ENDBRANCH   1  14
TORSDOF 10
