REMARK  Name = =
REMARK  2 active torsions:
REMARK  status: ('A' for Active; 'I' for Inactive)
REMARK    1  A    between atoms: C_1  and  C_18
REMARK    2  A    between atoms: C_1  and  N_29
REMARK                            x       y       z     vdW  Elec       q    Type
REMARK                         _______ _______ _______ _____ _____    ______ ____
ROOT
ATOM      1  C   UNL     1      51.159 158.579  29.996  0.00  0.00    +0.089 C 
ATOM      2  C   UNL     1      52.238 157.694  30.597  0.00  0.00    +0.022 C 
ATOM      3  C   UNL     1      52.953 156.822  29.620  0.00  0.00    +0.006 C 
ATOM      4  C   UNL     1      52.091 156.296  28.513  0.00  0.00    +0.018 C 
ATOM      5  C   UNL     1      52.767 155.303  27.655  0.00  0.00    +0.004 C 
ATOM      6  C   UNL     1      51.949 154.085  27.364  0.00  0.00    +0.000 C 
ATOM      7  C   UNL     1      51.764 153.786  25.920  0.00  0.00    +0.000 C 
ATOM      8  C   UNL     1      52.930 154.022  25.048  0.00  0.00    +0.000 C 
ATOM      9  C   UNL     1      54.060 154.778  25.668  0.00  0.00    +0.000 C 
ATOM     10  C   UNL     1      54.808 153.737  26.428  0.00  0.00    +0.000 C 
ATOM     11  C   UNL     1      54.428 152.395  25.836  0.00  0.00    +0.000 C 
ATOM     12  C   UNL     1      53.602 152.729  24.613  0.00  0.00    +0.000 C 
ATOM     13  C   UNL     1      53.494 155.887  26.516  0.00  0.00    +0.001 C 
ATOM     14  C   UNL     1      52.722 156.842  25.668  0.00  0.00    +0.004 C 
ATOM     15  C   UNL     1      51.510 157.416  26.305  0.00  0.00    +0.022 C 
ATOM     16  C   UNL     1      51.558 157.451  27.792  0.00  0.00    -0.047 C 
ATOM     17  C   UNL     1      51.139 158.483  28.505  0.00  0.00    -0.018 C 
ENDROOT
BRANCH   1  18
ATOM     18  C   UNL     1      51.661 160.017  30.252  0.00  0.00    +0.139 C 
ATOM     19  O   UNL     1      53.015 160.069  30.435  0.00  0.00    -0.331 OA
ATOM     20  C   UNL     1      53.425 161.380  30.446  0.00  0.00    +0.207 C 
ATOM     21  O   UNL     1      52.954 162.067  29.346  0.00  0.00    -0.331 OA
ATOM     22  C   UNL     1      53.158 163.418  29.379  0.00  0.00    +0.145 C 
ATOM     23  C   UNL     1      54.513 163.879  29.771  0.00  0.00    +0.032 C 
ATOM     24  C   UNL     1      55.282 162.929  30.640  0.00  0.00    +0.008 C 
ATOM     25  C   UNL     1      54.953 161.485  30.382  0.00  0.00    +0.061 C 
ATOM     26  C   UNL     1      53.006 161.992  31.751  0.00  0.00    +0.024 C 
ATOM     27  C   UNL     1      51.713 161.511  32.287  0.00  0.00    -0.023 C 
ATOM     28  C   UNL     1      50.869 160.716  31.312  0.00  0.00    +0.057 C 
ENDBRANCH   1  18
BRANCH   1  29
ATOM     29  N   UNL     1      49.904 158.328  30.572  0.00  0.00    -0.267 NA
ATOM     30  C   UNL     1      48.702 158.721  29.987  0.00  0.00    +0.090 C 
ATOM     31  C   UNL     1      47.560 158.130  30.842  0.00  0.00    +0.086 C 
ATOM     32  N   UNL     1      47.446 158.894  32.038  0.00  0.00    -0.295 NA
ATOM     33  C   UNL     1      48.737 159.309  32.482  0.00  0.00    +0.086 C 
ATOM     34  C   UNL     1      49.739 158.265  31.960  0.00  0.00    +0.090 C 
ATOM     35  H   UNL     1      47.008 158.324  32.762  0.00  0.00    +0.123 HD
ENDBRANCH   1  29
TORSDOF 2
