REMARK  Name = =
REMARK  13 active torsions:
REMARK  status: ('A' for Active; 'I' for Inactive)
REMARK    1  A    between atoms: C_1  and  O_6
REMARK    2  A    between atoms: C_1  and  S_15
REMARK    3  A    between atoms: O_6  and  P_7
REMARK    4  A    between atoms: P_7  and  O_9
REMARK    5  A    between atoms: P_7  and  O_10
REMARK    6  A    between atoms: O_10  and  P_11
REMARK    7  A    between atoms: P_11  and  O_13
REMARK    8  A    between atoms: P_11  and  O_14
REMARK    9  A    between atoms: S_15  and  C_16
REMARK   10  A    between atoms: C_16  and  N_18
REMARK   11  A    between atoms: N_18  and  S_19
REMARK   12  A    between atoms: S_19  and  C_20
REMARK   13  A    between atoms: C_23  and  O_26
REMARK                            x       y       z     vdW  Elec       q    Type
REMARK                         _______ _______ _______ _____ _____    ______ ____
ROOT
ATOM      1  C   UNL     1      53.300 154.059  24.980  0.00  0.00    +0.236 C 
ATOM      2  S   UNL     1      53.696 153.388  23.315  0.00  0.00    -0.087 S 
ATOM      3  C   UNL     1      55.515 153.452  23.586  0.00  0.00    +0.079 C 
ATOM      4  C   UNL     1      55.554 153.332  25.063  0.00  0.00    +0.084 C 
ATOM      5  N   UNL     1      54.498 153.973  25.687  0.00  0.00    -0.260 NA
ATOM      6  H   UNL     1      54.307 153.475  26.556  0.00  0.00    +0.127 HD
ENDROOT
BRANCH   1   7
ATOM      7  O   UNL     1      52.191 153.483  25.522  0.00  0.00    -0.245 OA
BRANCH   7   8
ATOM      8  P   UNL     1      52.478 152.070  26.367  0.00  0.00    +0.486 P 
ATOM      9  O   UNL     1      51.208 151.615  27.051  0.00  0.00    -0.227 OA
BRANCH   8  10
ATOM     10  O   UNL     1      53.656 152.243  27.561  0.00  0.00    -0.302 OA
ATOM     11  H   UNL     1      53.385 152.935  28.184  0.00  0.00    +0.222 HD
ENDBRANCH   8  10
BRANCH   8  12
ATOM     12  O   UNL     1      52.916 150.869  25.259  0.00  0.00    -0.186 OA
BRANCH  12  13
ATOM     13  P   UNL     1      52.438 149.375  25.892  0.00  0.00    +0.481 P 
ATOM     14  O   UNL     1      53.580 148.403  25.633  0.00  0.00    -0.227 OA
BRANCH  13  15
ATOM     15  O   UNL     1      52.180 149.429  27.547  0.00  0.00    -0.302 OA
ATOM     16  H   UNL     1      52.972 149.775  27.987  0.00  0.00    +0.222 HD
ENDBRANCH  13  15
BRANCH  13  17
ATOM     17  O   UNL     1      51.086 148.778  25.069  0.00  0.00    -0.302 OA
ATOM     18  H   UNL     1      50.333 149.373  25.210  0.00  0.00    +0.222 HD
ENDBRANCH  13  17
ENDBRANCH  12  13
ENDBRANCH   8  12
ENDBRANCH   7   8
ENDBRANCH   1   7
BRANCH   1  19
ATOM     19  S   UNL     1      52.926 155.830  24.685  0.00  0.00    -0.039 S 
BRANCH  19  20
ATOM     20  C   UNL     1      54.031 156.869  25.613  0.00  0.00    +0.121 C 
ATOM     21  S   UNL     1      55.436 157.301  24.940  0.00  0.00    -0.027 S 
BRANCH  20  22
ATOM     22  N   UNL     1      53.642 157.282  26.908  0.00  0.00    -0.273 N 
ATOM     23  H   UNL     1      53.862 158.194  27.206  0.00  0.00    +0.161 HD
BRANCH  22  24
ATOM     24  S   UNL     1      52.776 156.211  28.000  0.00  0.00    -0.023 S 
BRANCH  24  25
ATOM     25  C   UNL     1      51.691 157.203  29.012  0.00  0.00    +0.044 C 
ATOM     26  C   UNL     1      51.971 158.505  29.330  0.00  0.00    +0.011 C 
ATOM     27  C   UNL     1      51.112 159.255  30.117  0.00  0.00    +0.037 C 
ATOM     28  C   UNL     1      49.956 158.669  30.584  0.00  0.00    +0.134 C 
ATOM     29  C   UNL     1      49.666 157.358  30.270  0.00  0.00    +0.037 C 
ATOM     30  C   UNL     1      50.533 156.624  29.484  0.00  0.00    +0.011 C 
BRANCH  28  31
ATOM     31  O   UNL     1      49.095 159.416  31.371  0.00  0.00    -0.506 OA
ATOM     32  H   UNL     1      49.303 160.306  31.578  0.00  0.00    +0.292 HD
ENDBRANCH  28  31
ENDBRANCH  24  25
ENDBRANCH  22  24
ENDBRANCH  20  22
ENDBRANCH  19  20
ENDBRANCH   1  19
TORSDOF 13
