REMARK  Name = =
REMARK  6 active torsions:
REMARK  status: ('A' for Active; 'I' for Inactive)
REMARK    1  A    between atoms: C_2  and  C_10
REMARK    2  A    between atoms: C_4  and  C_28
REMARK    3  A    between atoms: C_20  and  O_27
REMARK    4  A    between atoms: C_21  and  C_24
REMARK    5  A    between atoms: C_24  and  O_26
REMARK    6  A    between atoms: C_28  and  O_30
REMARK                            x       y       z     vdW  Elec       q    Type
REMARK                         _______ _______ _______ _____ _____    ______ ____
ROOT
ATOM      1  S   UNL     1      51.355 154.695  27.772  0.00  0.00    -0.182 S 
ATOM      2  C   UNL     1      52.029 156.181  27.166  0.00  0.00    +0.079 C 
ATOM      3  C   UNL     1      53.155 155.997  26.243  0.00  0.00    +0.006 C 
ATOM      4  C   UNL     1      53.657 154.821  25.866  0.00  0.00    +0.127 C 
ATOM      5  N   UNL     1      53.146 153.583  26.326  0.00  0.00    -0.246 N 
ATOM      6  C   UNL     1      52.717 153.515  27.716  0.00  0.00    +0.126 C 
ATOM      7  C   UNL     1      52.277 152.113  27.474  0.00  0.00    +0.116 C 
ATOM      8  C   UNL     1      52.802 152.227  26.090  0.00  0.00    +0.233 C 
ATOM      9  O   UNL     1      52.911 151.446  25.084  0.00  0.00    -0.274 OA
ATOM     10  H   UNL     1      50.328 154.279  26.984  0.00  0.00    +0.094 HD
ENDROOT
BRANCH   2  11
ATOM     11  C   UNL     1      52.440 157.099  28.296  0.00  0.00    +0.146 C 
ATOM     12  S   UNL     1      53.592 158.321  27.535  0.00  0.00    -0.047 S 
ATOM     13  C   UNL     1      54.791 158.319  28.857  0.00  0.00    +0.279 C 
ATOM     14  O   UNL     1      55.832 159.004  28.884  0.00  0.00    -0.263 OA
ATOM     15  N   UNL     1      54.296 157.401  29.811  0.00  0.00    -0.246 N 
ATOM     16  C   UNL     1      53.350 156.491  29.272  0.00  0.00    +0.240 C 
ATOM     17  O   UNL     1      53.313 155.259  29.621  0.00  0.00    -0.274 OA
ATOM     18  H   UNL     1      54.579 157.394  30.754  0.00  0.00    +0.158 HD
ENDBRANCH   2  11
BRANCH   4  19
ATOM     19  C   UNL     1      54.793 154.800  24.912  0.00  0.00    +0.352 C 
ATOM     20  O   UNL     1      55.217 155.885  24.429  0.00  0.00    -0.244 OA
BRANCH  19  21
ATOM     21  O   UNL     1      55.356 153.593  24.574  0.00  0.00    -0.476 OA
ATOM     22  H   UNL     1      55.023 152.800  24.946  0.00  0.00    +0.295 HD
ENDBRANCH  19  21
ENDBRANCH   4  19
TORSDOF 3
REMARK  Name = =
REMARK  6 active torsions:
REMARK  status: ('A' for Active; 'I' for Inactive)
REMARK    1  A    between atoms: C_2  and  C_10
REMARK    2  A    between atoms: C_4  and  C_28
REMARK    3  A    between atoms: C_20  and  O_27
REMARK    4  A    between atoms: C_21  and  C_24
REMARK    5  A    between atoms: C_24  and  O_26
REMARK    6  A    between atoms: C_28  and  O_30
REMARK                            x       y       z     vdW  Elec       q    Type
REMARK                         _______ _______ _______ _____ _____    ______ ____
ROOT
ATOM      1  I   UNL     1      50.460 154.723  29.555  0.00  0.00    -0.107 I 
ATOM      2  H   UNL     1      52.021 154.723  29.555  0.00  0.00    +0.107 HD
ENDROOT
TORSDOF 0
REMARK  Name = =
REMARK  6 active torsions:
REMARK  status: ('A' for Active; 'I' for Inactive)
REMARK    1  A    between atoms: C_2  and  C_10
REMARK    2  A    between atoms: C_4  and  C_28
REMARK    3  A    between atoms: C_20  and  O_27
REMARK    4  A    between atoms: C_21  and  C_24
REMARK    5  A    between atoms: C_24  and  O_26
REMARK    6  A    between atoms: C_28  and  O_30
REMARK                            x       y       z     vdW  Elec       q    Type
REMARK                         _______ _______ _______ _____ _____    ______ ____
ROOT
ATOM      1  C   UNL     1      50.015 156.742  29.915  0.00  0.00    +0.003 C 
ATOM      2  C   UNL     1      50.960 157.697  30.138  0.00  0.00    +0.037 C 
ATOM      3  C   UNL     1      50.604 159.040  30.375  0.00  0.00    +0.140 C 
ATOM      4  C   UNL     1      49.292 159.424  30.388  0.00  0.00    +0.109 C 
ATOM      5  C   UNL     1      48.314 158.434  30.157  0.00  0.00    +0.009 C 
ATOM      6  C   UNL     1      48.695 157.137  29.930  0.00  0.00    +0.000 C 
ENDROOT
BRANCH   4   7
ATOM      7  C   UNL     1      48.835 160.784  30.624  0.00  0.00    +0.341 C 
ATOM      8  O   UNL     1      47.696 161.167  30.176  0.00  0.00    -0.245 OA
BRANCH   7   9
ATOM      9  O   UNL     1      49.552 161.722  31.312  0.00  0.00    -0.477 OA
ATOM     10  H   UNL     1      50.392 161.504  31.665  0.00  0.00    +0.295 HD
ENDBRANCH   7   9
ENDBRANCH   4   7
BRANCH   3  11
ATOM     11  O   UNL     1      51.606 159.936  30.588  0.00  0.00    -0.505 OA
ATOM     12  H   UNL     1      52.499 159.652  30.575  0.00  0.00    +0.292 HD
ENDBRANCH   3  11
TORSDOF 3
