REMARK  Name = =
REMARK  0 active torsions:
REMARK  status: ('A' for Active; 'I' for Inactive)
REMARK                            x       y       z     vdW  Elec       q    Type
REMARK                         _______ _______ _______ _____ _____    ______ ____
ROOT
ATOM      1  N   UNL     1      53.369 155.538  28.590  0.00  0.00    -0.244 NA
ATOM      2  C   UNL     1      52.468 156.458  28.900  0.00  0.00    +0.081 A 
ATOM      3  C   UNL     1      51.761 157.087  27.875  0.00  0.00    +0.018 A 
ATOM      4  C   UNL     1      51.997 156.754  26.550  0.00  0.00    +0.006 A 
ATOM      5  C   UNL     1      52.961 155.774  26.299  0.00  0.00    +0.038 A 
ATOM      6  C   UNL     1      53.647 155.165  27.333  0.00  0.00    +0.100 A 
ATOM      7  C   UNL     1      54.598 154.196  27.046  0.00  0.00    +0.100 A 
ATOM      8  N   UNL     1      55.267 153.603  28.061  0.00  0.00    -0.244 NA
ATOM      9  C   UNL     1      56.193 152.660  27.799  0.00  0.00    +0.081 A 
ATOM     10  C   UNL     1      56.505 152.252  26.497  0.00  0.00    +0.018 A 
ATOM     11  C   UNL     1      55.801 152.879  25.486  0.00  0.00    +0.006 A 
ATOM     12  C   UNL     1      54.849 153.849  25.735  0.00  0.00    +0.038 A 
ATOM     13  C   UNL     1      54.147 154.473  24.722  0.00  0.00    +0.100 A 
ATOM     14  C   UNL     1      53.185 155.453  24.977  0.00  0.00    +0.100 A 
ATOM     15  N   UNL     1      52.523 156.037  23.955  0.00  0.00    -0.242 NA
ATOM     16  C   UNL     1      51.603 156.973  24.188  0.00  0.00    +0.099 C 
ATOM     17  C   UNL     1      51.339 157.334  25.491  0.00  0.00    +0.021 C 
ATOM     18  N   UNL     1      54.405 154.122  23.452  0.00  0.00    -0.242 NA
ATOM     19  C   UNL     1      55.321 153.188  23.182  0.00  0.00    +0.099 C 
ATOM     20  C   UNL     1      56.029 152.556  24.179  0.00  0.00    +0.021 C 
ATOM     21  C   UNL     1      57.444 151.296  26.243  0.00  0.00    +0.001 C 
ATOM     22  C   UNL     1      58.117 150.701  27.280  0.00  0.00    +0.000 C 
ATOM     23  C   UNL     1      57.829 151.084  28.574  0.00  0.00    +0.002 C 
ATOM     24  C   UNL     1      56.883 152.048  28.842  0.00  0.00    +0.019 C 
ATOM     25  C   UNL     1      50.821 158.048  28.165  0.00  0.00    +0.001 C 
ATOM     26  C   UNL     1      50.573 158.394  29.496  0.00  0.00    +0.000 C 
ATOM     27  C   UNL     1      51.267 157.774  30.492  0.00  0.00    +0.002 C 
ATOM     28  C   UNL     1      52.211 156.812  30.227  0.00  0.00    +0.019 C 
ENDROOT
TORSDOF 0
