REMARK  Name = =
REMARK  4 active torsions:
REMARK  status: ('A' for Active; 'I' for Inactive)
REMARK    1  A    between atoms: N_1  and  O_11
REMARK    2  A    between atoms: C_2  and  C_4
REMARK    3  A    between atoms: C_7  and  O_10
REMARK    4  A    between atoms: O_11  and  C_12
REMARK                            x       y       z     vdW  Elec       q    Type
REMARK                         _______ _______ _______ _____ _____    ______ ____
ROOT
ATOM      1  N   UNL     1      56.780 162.341  29.693  0.00  0.00    -0.144 N 
ATOM      2  C   UNL     1      56.519 162.984  28.454  0.00  0.00    +0.277 C 
ATOM      3  O   UNL     1      55.333 163.394  28.295  0.00  0.00    -0.267 OA
ATOM      4  H   UNL     1      57.684 161.999  29.882  0.00  0.00    +0.196 HD
ENDROOT
BRANCH   2   5
ATOM      5  C   UNL     1      57.539 163.162  27.437  0.00  0.00    +0.056 C 
ATOM      6  C   UNL     1      58.871 163.235  27.772  0.00  0.00    +0.008 C 
ATOM      7  C   UNL     1      59.861 163.404  26.818  0.00  0.00    +0.037 C 
ATOM      8  C   UNL     1      59.519 163.504  25.490  0.00  0.00    +0.134 C 
ATOM      9  C   UNL     1      58.200 163.434  25.135  0.00  0.00    +0.037 C 
ATOM     10  C   UNL     1      57.226 163.265  26.093  0.00  0.00    +0.008 C 
BRANCH   8  11
ATOM     11  O   UNL     1      60.484 163.673  24.517  0.00  0.00    -0.506 OA
ATOM     12  H   UNL     1      61.388 163.721  24.757  0.00  0.00    +0.292 HD
ENDBRANCH   8  11
ENDBRANCH   2   5
BRANCH   1  13
ATOM     13  O   UNL     1      55.793 162.191  30.628  0.00  0.00    -0.384 OA
BRANCH  13  14
ATOM     14  C   UNL     1      54.768 161.246  30.502  0.00  0.00    +0.170 C 
ATOM     15  C   UNL     1      53.547 161.535  31.070  0.00  0.00    +0.037 C 
ATOM     16  C   UNL     1      52.512 160.650  30.979  0.00  0.00    +0.003 C 
ATOM     17  C   UNL     1      52.711 159.461  30.305  0.00  0.00    +0.000 C 
ATOM     18  C   UNL     1      53.920 159.161  29.734  0.00  0.00    +0.003 C 
ATOM     19  C   UNL     1      54.942 160.068  29.842  0.00  0.00    +0.040 C 
ATOM     20  C   UNL     1      51.284 160.953  31.557  0.00  0.00    +0.000 C 
ATOM     21  C   UNL     1      51.144 162.147  32.213  0.00  0.00    +0.000 C 
ATOM     22  C   UNL     1      52.192 163.031  32.300  0.00  0.00    +0.000 C 
ATOM     23  C   UNL     1      53.414 162.754  31.737  0.00  0.00    +0.003 C 
ENDBRANCH  13  14
ENDBRANCH   1  13
TORSDOF 4
