REMARK  Name = =
REMARK  1 active torsions:
REMARK  status: ('A' for Active; 'I' for Inactive)
REMARK    1  A    between atoms: C_25  and  N_29
REMARK                            x       y       z     vdW  Elec       q    Type
REMARK                         _______ _______ _______ _____ _____    ______ ____
ROOT
ATOM      1  N   UNL     1      51.795 154.336  29.767  0.00  0.00    -0.244 NA
ATOM      2  C   UNL     1      51.071 154.875  30.758  0.00  0.00    +0.083 A 
ATOM      3  C   UNL     1      50.654 156.220  30.742  0.00  0.00    +0.031 A 
ATOM      4  C   UNL     1      51.030 156.979  29.655  0.00  0.00    +0.007 A 
ATOM      5  C   UNL     1      51.783 156.356  28.655  0.00  0.00    +0.038 A 
ATOM      6  C   UNL     1      52.170 155.033  28.703  0.00  0.00    +0.100 A 
ATOM      7  C   UNL     1      52.901 154.436  27.695  0.00  0.00    +0.100 A 
ATOM      8  N   UNL     1      53.241 153.136  27.752  0.00  0.00    -0.244 NA
ATOM      9  C   UNL     1      53.929 152.585  26.737  0.00  0.00    +0.081 A 
ATOM     10  C   UNL     1      54.307 153.321  25.615  0.00  0.00    +0.018 A 
ATOM     11  C   UNL     1      53.957 154.679  25.550  0.00  0.00    +0.006 A 
ATOM     12  C   UNL     1      53.247 155.209  26.616  0.00  0.00    +0.038 A 
ATOM     13  C   UNL     1      52.908 156.554  26.550  0.00  0.00    +0.100 A 
ATOM     14  C   UNL     1      52.169 157.133  27.580  0.00  0.00    +0.100 A 
ATOM     15  N   UNL     1      51.837 158.438  27.501  0.00  0.00    -0.242 NA
ATOM     16  C   UNL     1      51.129 159.031  28.450  0.00  0.00    +0.099 C 
ATOM     17  C   UNL     1      50.701 158.299  29.572  0.00  0.00    +0.021 C 
ATOM     18  N   UNL     1      53.238 157.342  25.510  0.00  0.00    -0.242 NA
ATOM     19  C   UNL     1      53.925 156.811  24.489  0.00  0.00    +0.099 C 
ATOM     20  C   UNL     1      54.298 155.466  24.489  0.00  0.00    +0.021 C 
ATOM     21  C   UNL     1      55.005 152.745  24.583  0.00  0.00    +0.001 C 
ATOM     22  C   UNL     1      55.331 151.390  24.681  0.00  0.00    +0.000 C 
ATOM     23  C   UNL     1      54.963 150.652  25.782  0.00  0.00    +0.002 C 
ATOM     24  C   UNL     1      54.272 151.250  26.792  0.00  0.00    +0.019 C 
ATOM     25  C   UNL     1      49.900 156.718  31.735  0.00  0.00    +0.055 C 
ATOM     26  C   UNL     1      49.556 155.834  32.799  0.00  0.00    +0.015 C 
ATOM     27  C   UNL     1      49.975 154.530  32.805  0.00  0.00    +0.003 C 
ATOM     28  C   UNL     1      50.734 154.046  31.781  0.00  0.00    +0.019 C 
ENDROOT
BRANCH  25  29
ATOM     29  N   UNL     1      49.288 157.967  31.854  0.00  0.00    -0.259 N 
ATOM     30  C   UNL     1      49.226 158.687  33.105  0.00  0.00    +0.229 C 
ATOM     31  O   UNL     1      49.817 158.377  34.197  0.00  0.00    -0.275 OA
ATOM     32  C   UNL     1      48.369 159.870  32.976  0.00  0.00    +0.087 C 
ATOM     33  C   UNL     1      48.299 160.067  31.501  0.00  0.00    +0.031 C 
ATOM     34  C   UNL     1      48.470 158.706  30.906  0.00  0.00    +0.099 C 
ENDBRANCH  25  29
TORSDOF 1
