REMARK  Name = =
REMARK  3 active torsions:
REMARK  status: ('A' for Active; 'I' for Inactive)
REMARK    1  A    between atoms: C_17  and  N_29
REMARK    2  A    between atoms: C_25  and  N_34
REMARK    3  A    between atoms: N_32  and  N_33
REMARK                            x       y       z     vdW  Elec       q    Type
REMARK                         _______ _______ _______ _____ _____    ______ ____
ROOT
ATOM      1  N   UNL     1      51.571 154.843  29.201  0.00  0.00    -0.244 NA
ATOM      2  C   UNL     1      50.819 155.380  30.177  0.00  0.00    +0.083 A 
ATOM      3  C   UNL     1      50.508 156.771  30.064  0.00  0.00    +0.033 A 
ATOM      4  C   UNL     1      50.945 157.490  28.990  0.00  0.00    +0.021 A 
ATOM      5  C   UNL     1      51.748 156.876  27.990  0.00  0.00    +0.040 A 
ATOM      6  C   UNL     1      52.023 155.536  28.167  0.00  0.00    +0.100 A 
ATOM      7  C   UNL     1      52.795 154.896  27.200  0.00  0.00    +0.100 A 
ATOM      8  N   UNL     1      53.082 153.612  27.416  0.00  0.00    -0.244 NA
ATOM      9  C   UNL     1      53.869 152.977  26.503  0.00  0.00    +0.081 A 
ATOM     10  C   UNL     1      54.356 153.638  25.382  0.00  0.00    +0.018 A 
ATOM     11  C   UNL     1      54.045 154.977  25.171  0.00  0.00    +0.006 A 
ATOM     12  C   UNL     1      53.246 155.602  26.111  0.00  0.00    +0.038 A 
ATOM     13  C   UNL     1      52.904 156.917  25.892  0.00  0.00    +0.100 A 
ATOM     14  C   UNL     1      52.128 157.547  26.877  0.00  0.00    +0.100 A 
ATOM     15  N   UNL     1      51.723 158.798  26.699  0.00  0.00    -0.241 NA
ATOM     16  C   UNL     1      50.915 159.427  27.611  0.00  0.00    +0.114 C 
ATOM     17  C   UNL     1      50.517 158.768  28.751  0.00  0.00    +0.071 C 
ATOM     18  N   UNL     1      53.287 157.646  24.833  0.00  0.00    -0.242 NA
ATOM     19  C   UNL     1      54.068 157.016  23.926  0.00  0.00    +0.099 C 
ATOM     20  C   UNL     1      54.449 155.704  24.080  0.00  0.00    +0.021 C 
ATOM     21  C   UNL     1      55.153 153.007  24.455  0.00  0.00    +0.001 C 
ATOM     22  C   UNL     1      55.456 151.660  24.685  0.00  0.00    +0.000 C 
ATOM     23  C   UNL     1      54.984 150.989  25.786  0.00  0.00    +0.002 C 
ATOM     24  C   UNL     1      54.193 151.641  26.693  0.00  0.00    +0.019 C 
ATOM     25  C   UNL     1      49.897 157.361  31.114  0.00  0.00    +0.055 C 
ATOM     26  C   UNL     1      49.526 156.602  32.249  0.00  0.00    +0.015 C 
ATOM     27  C   UNL     1      49.807 155.261  32.304  0.00  0.00    +0.003 C 
ATOM     28  C   UNL     1      50.458 154.668  31.266  0.00  0.00    +0.019 C 
ENDROOT
BRANCH  17  29
ATOM     29  N   UNL     1      49.260 159.228  29.241  0.00  0.00    -0.266 N 
ATOM     30  C   UNL     1      48.966 160.576  29.594  0.00  0.00    +0.317 C 
ATOM     31  O   UNL     1      49.817 161.486  29.533  0.00  0.00    -0.251 OA
ATOM     32  N   UNL     1      47.634 160.944  30.038  0.00  0.00    -0.237 N 
ATOM     33  H   UNL     1      48.541 158.564  29.343  0.00  0.00    +0.156 HD
ATOM     34  H   UNL     1      46.919 160.271  30.107  0.00  0.00    +0.170 HD
BRANCH  32  35
ATOM     35  N   UNL     1      47.396 162.284  30.365  0.00  0.00    -0.253 NA
ATOM     36  H   UNL     1      48.251 162.824  30.231  0.00  0.00    +0.141 HD
ATOM     37  H   UNL     1      47.102 162.349  31.340  0.00  0.00    +0.141 HD
ENDBRANCH  32  35
ENDBRANCH  17  29
BRANCH  25  38
ATOM     38  N   UNL     1      50.160 158.744  31.502  0.00  0.00    -0.259 N 
ATOM     39  C   UNL     1      51.326 159.531  31.417  0.00  0.00    +0.229 C 
ATOM     40  O   UNL     1      52.333 159.351  30.729  0.00  0.00    -0.275 OA
ATOM     41  C   UNL     1      51.206 160.713  32.341  0.00  0.00    +0.087 C 
ATOM     42  C   UNL     1      50.275 160.068  33.396  0.00  0.00    +0.031 C 
ATOM     43  C   UNL     1      49.255 159.492  32.370  0.00  0.00    +0.099 C 
ENDBRANCH  25  38
TORSDOF 3
