REMARK  Name = =
REMARK  4 active torsions:
REMARK  status: ('A' for Active; 'I' for Inactive)
REMARK    1  A    between atoms: C_17  and  N_35
REMARK    2  A    between atoms: C_25  and  N_29
REMARK    3  A    between atoms: N_38  and  S_39
REMARK    4  A    between atoms: N_38  and  N_46
REMARK                            x       y       z     vdW  Elec       q    Type
REMARK                         _______ _______ _______ _____ _____    ______ ____
ROOT
ATOM      1  N   UNL     1      50.808 155.317  29.263  0.00  0.00    -0.244 NA
ATOM      2  C   UNL     1      50.218 156.136  30.170  0.00  0.00    +0.083 A 
ATOM      3  C   UNL     1      50.607 157.511  30.161  0.00  0.00    +0.033 A 
ATOM      4  C   UNL     1      51.550 157.953  29.296  0.00  0.00    +0.021 A 
ATOM      5  C   UNL     1      52.138 157.061  28.352  0.00  0.00    +0.040 A 
ATOM      6  C   UNL     1      51.715 155.749  28.394  0.00  0.00    +0.100 A 
ATOM      7  C   UNL     1      52.287 154.861  27.509  0.00  0.00    +0.100 A 
ATOM      8  N   UNL     1      51.860 153.595  27.516  0.00  0.00    -0.244 NA
ATOM      9  C   UNL     1      52.388 152.729  26.640  0.00  0.00    +0.081 A 
ATOM     10  C   UNL     1      53.366 153.077  25.712  0.00  0.00    +0.018 A 
ATOM     11  C   UNL     1      53.823 154.385  25.689  0.00  0.00    +0.006 A 
ATOM     12  C   UNL     1      53.270 155.273  26.601  0.00  0.00    +0.038 A 
ATOM     13  C   UNL     1      53.729 156.584  26.636  0.00  0.00    +0.100 A 
ATOM     14  C   UNL     1      53.146 157.463  27.527  0.00  0.00    +0.100 A 
ATOM     15  N   UNL     1      53.602 158.698  27.625  0.00  0.00    -0.241 NA
ATOM     16  C   UNL     1      53.098 159.588  28.542  0.00  0.00    +0.114 C 
ATOM     17  C   UNL     1      52.077 159.214  29.389  0.00  0.00    +0.071 C 
ATOM     18  N   UNL     1      54.699 156.974  25.789  0.00  0.00    -0.242 NA
ATOM     19  C   UNL     1      55.234 156.100  24.899  0.00  0.00    +0.099 C 
ATOM     20  C   UNL     1      54.809 154.796  24.832  0.00  0.00    +0.021 C 
ATOM     21  C   UNL     1      53.882 152.158  24.832  0.00  0.00    +0.001 C 
ATOM     22  C   UNL     1      53.418 150.832  24.861  0.00  0.00    +0.000 C 
ATOM     23  C   UNL     1      52.452 150.456  25.765  0.00  0.00    +0.002 C 
ATOM     24  C   UNL     1      51.951 151.394  26.636  0.00  0.00    +0.019 C 
ATOM     25  C   UNL     1      49.902 158.363  30.943  0.00  0.00    +0.055 C 
ATOM     26  C   UNL     1      48.871 157.898  31.777  0.00  0.00    +0.015 C 
ATOM     27  C   UNL     1      48.540 156.567  31.797  0.00  0.00    +0.003 C 
ATOM     28  C   UNL     1      49.224 155.707  30.978  0.00  0.00    +0.019 C 
ENDROOT
BRANCH  25  29
ATOM     29  N   UNL     1      49.647 159.737  30.505  0.00  0.00    -0.259 N 
ATOM     30  C   UNL     1      48.891 160.205  29.402  0.00  0.00    +0.229 C 
ATOM     31  O   UNL     1      48.156 159.539  28.656  0.00  0.00    -0.275 OA
ATOM     32  C   UNL     1      49.093 161.673  29.243  0.00  0.00    +0.087 C 
ATOM     33  C   UNL     1      49.430 162.127  30.645  0.00  0.00    +0.031 C 
ATOM     34  C   UNL     1      49.953 160.896  31.311  0.00  0.00    +0.099 C 
ENDBRANCH  25  29
BRANCH  17  35
ATOM     35  N   UNL     1      52.129 159.925  30.658  0.00  0.00    -0.265 N 
ATOM     36  C   UNL     1      53.263 160.485  31.245  0.00  0.00    +0.329 C 
ATOM     37  O   UNL     1      54.366 160.448  30.657  0.00  0.00    -0.250 OA
ATOM     38  N   UNL     1      53.280 161.120  32.525  0.00  0.00    -0.176 N 
ATOM     39  H   UNL     1      51.281 160.020  31.150  0.00  0.00    +0.157 HD
BRANCH  38  40
ATOM     40  S   UNL     1      54.672 161.835  33.156  0.00  0.00    -0.069 S 
ATOM     41  C   UNL     1      56.188 160.788  33.257  0.00  0.00    +0.148 C 
ATOM     42  C   UNL     1      57.156 161.927  33.333  0.00  0.00    +0.240 C 
ATOM     43  O   UNL     1      58.111 161.897  34.185  0.00  0.00    -0.274 OA
ATOM     44  N   UNL     1      56.855 162.918  32.397  0.00  0.00    -0.246 N 
ATOM     45  C   UNL     1      55.490 163.194  32.236  0.00  0.00    +0.276 C 
ATOM     46  O   UNL     1      54.934 164.110  31.634  0.00  0.00    -0.263 OA
ATOM     47  H   UNL     1      54.048 162.187  34.312  0.00  0.00    +0.112 HD
ATOM     48  H   UNL     1      57.552 163.390  31.886  0.00  0.00    +0.158 HD
ENDBRANCH  38  40
BRANCH  38  49
ATOM     49  N   UNL     1      52.148 161.122  33.332  0.00  0.00    -0.241 NA
ATOM     50  H   UNL     1      51.380 160.664  32.841  0.00  0.00    +0.142 HD
ATOM     51  H   UNL     1      51.887 162.084  33.550  0.00  0.00    +0.142 HD
ENDBRANCH  38  49
ENDBRANCH  17  35
TORSDOF 4
