REMARK  Name = =
REMARK  10 active torsions:
REMARK  status: ('A' for Active; 'I' for Inactive)
REMARK    1  A    between atoms: N_1  and  N_11
REMARK    2  A    between atoms: N_1  and  O_27
REMARK    3  A    between atoms: C_2  and  C_4
REMARK    4  A    between atoms: C_7  and  O_10
REMARK    5  A    between atoms: N_11  and  C_12
REMARK    6  A    between atoms: C_13  and  S_18
REMARK    7  A    between atoms: S_18  and  N_19
REMARK    8  A    between atoms: S_18  and  S_25
REMARK    9  A    between atoms: S_25  and  S_26
REMARK   10  A    between atoms: O_27  and  C_28
REMARK                            x       y       z     vdW  Elec       q    Type
REMARK                         _______ _______ _______ _____ _____    ______ ____
ROOT
ATOM      1  N   UNL     1      51.766 157.373  29.101  0.00  0.00    -0.042 N 
ATOM      2  C   UNL     1      50.601 157.214  29.872  0.00  0.00    +0.299 C 
ATOM      3  O   UNL     1      50.219 156.011  30.187  0.00  0.00    -0.265 OA
ENDROOT
BRANCH   2   4
ATOM      4  C   UNL     1      49.737 158.255  30.382  0.00  0.00    +0.058 C 
ATOM      5  C   UNL     1      48.582 157.941  31.099  0.00  0.00    +0.008 C 
ATOM      6  C   UNL     1      47.728 158.893  31.597  0.00  0.00    +0.037 C 
ATOM      7  C   UNL     1      47.979 160.227  31.407  0.00  0.00    +0.134 C 
ATOM      8  C   UNL     1      49.093 160.584  30.714  0.00  0.00    +0.037 C 
ATOM      9  C   UNL     1      49.962 159.600  30.207  0.00  0.00    +0.008 C 
BRANCH   7  10
ATOM     10  O   UNL     1      47.119 161.210  31.907  0.00  0.00    -0.506 OA
ATOM     11  H   UNL     1      46.352 160.962  32.384  0.00  0.00    +0.292 HD
ENDBRANCH   7  10
ENDBRANCH   2   4
BRANCH   1  12
ATOM     12  N   UNL     1      52.462 156.235  28.688  0.00  0.00    -0.227 N 
ATOM     13  H   UNL     1      52.599 155.488  29.314  0.00  0.00    +0.173 HD
BRANCH  12  14
ATOM     14  C   UNL     1      52.970 156.156  27.370  0.00  0.00    +0.070 C 
ATOM     15  C   UNL     1      53.255 154.922  26.773  0.00  0.00    +0.045 C 
ATOM     16  C   UNL     1      53.734 154.863  25.479  0.00  0.00    +0.008 C 
ATOM     17  C   UNL     1      53.925 156.031  24.789  0.00  0.00    +0.001 C 
ATOM     18  C   UNL     1      53.646 157.255  25.371  0.00  0.00    +0.001 C 
ATOM     19  C   UNL     1      53.169 157.321  26.659  0.00  0.00    +0.016 C 
BRANCH  15  20
ATOM     20  S   UNL     1      53.020 153.494  27.685  0.00  0.00    -0.091 S 
ATOM     21  H   UNL     1      51.794 153.139  28.154  0.00  0.00    +0.117 HD
BRANCH  20  22
ATOM     22  N   UNL     1      53.408 152.245  26.641  0.00  0.00    -0.233 N 
ATOM     23  C   UNL     1      54.658 151.559  26.490  0.00  0.00    +0.131 C 
ATOM     24  C   UNL     1      54.442 150.555  25.445  0.00  0.00    +0.001 C 
ATOM     25  C   UNL     1      53.205 150.637  25.023  0.00  0.00    +0.056 C 
ATOM     26  C   UNL     1      52.490 151.680  25.729  0.00  0.00    +0.258 C 
ATOM     27  O   UNL     1      51.268 152.033  25.571  0.00  0.00    -0.269 OA
ENDBRANCH  20  22
BRANCH  20  28
ATOM     28  S   UNL     1      53.984 153.804  29.015  0.00  0.00    -0.029 S 
BRANCH  28  29
ATOM     29  S   UNL     1      55.546 152.813  29.581  0.00  0.00    -0.099 S 
ATOM     30  H   UNL     1      56.056 153.376  30.709  0.00  0.00    +0.115 HD
ENDBRANCH  28  29
ENDBRANCH  20  28
ENDBRANCH  15  20
ENDBRANCH  12  14
ENDBRANCH   1  12
BRANCH   1  31
ATOM     31  O   UNL     1      52.260 158.568  28.725  0.00  0.00    -0.363 OA
BRANCH  31  32
ATOM     32  C   UNL     1      53.427 159.131  29.248  0.00  0.00    +0.172 C 
ATOM     33  C   UNL     1      53.332 160.241  30.074  0.00  0.00    +0.037 C 
ATOM     34  C   UNL     1      54.417 160.871  30.641  0.00  0.00    +0.003 C 
ATOM     35  C   UNL     1      55.682 160.356  30.362  0.00  0.00    +0.000 C 
ATOM     36  C   UNL     1      55.805 159.254  29.545  0.00  0.00    +0.003 C 
ATOM     37  C   UNL     1      54.687 158.652  28.997  0.00  0.00    +0.040 C 
ATOM     38  C   UNL     1      54.294 161.979  31.462  0.00  0.00    +0.000 C 
ATOM     39  C   UNL     1      53.047 162.492  31.741  0.00  0.00    +0.000 C 
ATOM     40  C   UNL     1      51.952 161.872  31.181  0.00  0.00    +0.000 C 
ATOM     41  C   UNL     1      52.076 160.771  30.364  0.00  0.00    +0.003 C 
ENDBRANCH  31  32
ENDBRANCH   1  31
TORSDOF 10
