MODEL 1
REMARK VINA RESULT:    -5.840      0.000      0.000
REMARK INTER + INTRA:          -9.719
REMARK INTER:                  -9.937
REMARK INTRA:                   0.218
REMARK UNBOUND:                 0.218
REMARK  Name = =
REMARK  15 active torsions:
REMARK  status: ('A' for Active; 'I' for Inactive)
REMARK    1  A    between atoms: S_1  and  N_12
REMARK    2  A    between atoms: S_1  and  P_17
REMARK    3  A    between atoms: S_1  and  S_21
REMARK    4  A    between atoms: N_12  and  C_13
REMARK    5  A    between atoms: C_13  and  C_15
REMARK    6  A    between atoms: P_17  and  O_19
REMARK    7  A    between atoms: P_17  and  O_20
REMARK    8  A    between atoms: S_21  and  S_22
REMARK    9  A    between atoms: S_21  and  S_23
REMARK   10  A    between atoms: S_23  and  N_24
REMARK   11  A    between atoms: N_24  and  O_25
REMARK   12  A    between atoms: N_24  and  C_26
REMARK   13  A    between atoms: C_26  and  P_28
REMARK   14  A    between atoms: P_28  and  O_30
REMARK   15  A    between atoms: P_28  and  O_31
REMARK                            x       y       z     vdW  Elec       q    Type
REMARK                         _______ _______ _______ _____ _____    ______ ____
ROOT
ATOM      1  S   UNL     1      60.423 161.314  40.496  0.00  0.00    -0.032 S 
ATOM      2  H   UNL     1      60.236 162.614  40.847  0.00  0.00    +0.123 HD
ENDROOT
BRANCH   1  13
ATOM      3  N   UNL     1      57.568 162.035  41.137  0.00  0.00    -0.213 NA
ATOM      4  C   UNL     1      57.779 160.731  40.908  0.00  0.00    +0.229 C 
ATOM      5  N   UNL     1      56.752 159.858  40.976  0.00  0.00    -0.211 NA
ATOM      6  C   UNL     1      55.511 160.250  41.265  0.00  0.00    +0.103 C 
ATOM      7  C   UNL     1      55.295 161.590  41.501  0.00  0.00    +0.037 C 
ATOM      8  C   UNL     1      54.008 162.058  41.810  0.00  0.00    +0.003 C 
ATOM      9  C   UNL     1      53.815 163.391  42.039  0.00  0.00    +0.000 C 
ATOM     10  C   UNL     1      54.894 164.259  41.962  0.00  0.00    +0.002 C 
ATOM     11  C   UNL     1      56.159 163.834  41.663  0.00  0.00    +0.019 C 
ATOM     12  C   UNL     1      56.340 162.468  41.431  0.00  0.00    +0.086 C 
ATOM     13  N   UNL     1      59.063 160.239  40.595  0.00  0.00    -0.229 N 
BRANCH  13  14
ATOM     14  C   UNL     1      59.243 158.832  40.358  0.00  0.00    +0.151 C 
ATOM     15  C   UNL     1      58.534 158.147  41.534  0.00  0.00    +0.031 C 
BRANCH  14  16
ATOM     16  C   UNL     1      58.476 158.494  39.128  0.00  0.00    +0.228 C 
ATOM     17  O   UNL     1      59.096 157.988  38.181  0.00  0.00    -0.286 OA
ENDBRANCH  14  16
ENDBRANCH  13  14
ENDBRANCH   1  13
BRANCH   1  18
ATOM     18  P   UNL     1      61.579 160.608  41.532  0.00  0.00    +0.390 P 
ATOM     19  O   UNL     1      62.728 161.538  41.931  0.00  0.00    -0.246 OA
BRANCH  18  20
ATOM     20  O   UNL     1      60.912 160.107  43.034  0.00  0.00    -0.316 OA
ATOM     21  H   UNL     1      61.613 160.074  43.705  0.00  0.00    +0.221 HD
ENDBRANCH  18  20
BRANCH  18  22
ATOM     22  O   UNL     1      62.331 159.217  40.909  0.00  0.00    -0.316 OA
ATOM     23  H   UNL     1      62.880 159.459  40.147  0.00  0.00    +0.221 HD
ENDBRANCH  18  22
ENDBRANCH   1  18
BRANCH   1  24
ATOM     24  S   UNL     1      60.906 161.188  38.733  0.00  0.00    -0.082 S 
ATOM     25  H   UNL     1      61.144 159.964  38.192  0.00  0.00    +0.116 HD
BRANCH  24  26
ATOM     26  S   UNL     1      62.456 161.865  38.537  0.00  0.00    -0.112 S 
ATOM     27  H   UNL     1      63.192 161.646  39.659  0.00  0.00    +0.114 HD
ENDBRANCH  24  26
BRANCH  24  28
ATOM     28  S   UNL     1      59.622 161.726  37.950  0.00  0.00    +0.047 S 
BRANCH  28  29
ATOM     29  N   UNL     1      59.652 162.791  36.667  0.00  0.00    -0.178 N 
BRANCH  29  30
ATOM     30  O   UNL     1      59.562 162.308  35.377  0.00  0.00    -0.275 OA
ATOM     31  H   UNL     1      60.109 162.853  34.789  0.00  0.00    +0.246 HD
ENDBRANCH  29  30
BRANCH  29  32
ATOM     32  C   UNL     1      59.761 164.199  36.755  0.00  0.00    +0.174 C 
ATOM     33  C   UNL     1      59.835 164.779  37.921  0.00  0.00    +0.030 C 
BRANCH  32  34
ATOM     34  P   UNL     1      59.799 165.161  35.267  0.00  0.00    +0.378 P 
ATOM     35  O   UNL     1      61.073 164.906  34.472  0.00  0.00    -0.252 OA
BRANCH  34  36
ATOM     36  O   UNL     1      59.808 166.830  35.627  0.00  0.00    -0.320 OA
ATOM     37  H   UNL     1      59.982 166.955  36.573  0.00  0.00    +0.220 HD
ENDBRANCH  34  36
BRANCH  34  38
ATOM     38  O   UNL     1      58.500 164.787  34.233  0.00  0.00    -0.320 OA
ATOM     39  H   UNL     1      58.366 163.827  34.217  0.00  0.00    +0.220 HD
ENDBRANCH  34  38
ENDBRANCH  32  34
ENDBRANCH  29  32
ENDBRANCH  28  29
ENDBRANCH  24  28
ENDBRANCH   1  24
TORSDOF 15
ENDMDL
