REMARK  Name = =
REMARK  0 active torsions:
REMARK  status: ('A' for Active; 'I' for Inactive)
REMARK                            x       y       z     vdW  Elec       q    Type
REMARK                         _______ _______ _______ _____ _____    ______ ____
ROOT
ATOM      1  C   UNL     1      51.146 155.286  28.997  0.00  0.00    +0.099 C 
ATOM      2  C   UNL     1      51.492 156.535  29.479  0.00  0.00    +0.021 C 
ATOM      3  C   UNL     1      52.347 157.315  28.733  0.00  0.00    +0.003 C 
ATOM      4  C   UNL     1      52.825 156.814  27.527  0.00  0.00    +0.021 C 
ATOM      5  C   UNL     1      52.467 155.559  27.060  0.00  0.00    +0.099 C 
ATOM      6  N   UNL     1      51.628 154.841  27.830  0.00  0.00    -0.242 NA
ENDROOT
TORSDOF 0
