REMARK  Name = =
REMARK  3 active torsions:
REMARK  status: ('A' for Active; 'I' for Inactive)
REMARK    1  A    between atoms: C_1  and  O_7
REMARK    2  A    between atoms: O_7  and  N_8
REMARK    3  A    between atoms: N_8  and  O_9
REMARK                            x       y       z     vdW  Elec       q    Type
REMARK                         _______ _______ _______ _____ _____    ______ ____
ROOT
ATOM      1  C   UNL     1      51.695 155.705  28.668  0.00  0.00    +0.251 C 
ATOM      2  C   UNL     1      52.439 156.718  28.108  0.00  0.00    +0.060 C 
ATOM      3  C   UNL     1      53.022 156.498  26.875  0.00  0.00    +0.006 C 
ATOM      4  C   UNL     1      52.813 155.266  26.288  0.00  0.00    +0.021 C 
ATOM      5  C   UNL     1      52.061 154.281  26.886  0.00  0.00    +0.102 C 
ATOM      6  N   UNL     1      51.511 154.522  28.076  0.00  0.00    -0.208 NA
ENDROOT
BRANCH   1   7
ATOM      7  O   UNL     1      51.106 155.919  29.910  0.00  0.00    -0.361 OA
BRANCH   7   8
ATOM      8  N   UNL     1      49.816 156.431  29.875  0.00  0.00    -0.030 NA
ATOM      9  H   UNL     1      49.215 155.869  30.479  0.00  0.00    +0.201 HD
BRANCH   8  10
ATOM     10  O   UNL     1      49.804 157.704  30.301  0.00  0.00    -0.282 OA
ATOM     11  H   UNL     1      50.374 158.242  29.729  0.00  0.00    +0.240 HD
ENDBRANCH   8  10
ENDBRANCH   7   8
ENDBRANCH   1   7
TORSDOF 3
