REMARK  Name = =
REMARK  6 active torsions:
REMARK  status: ('A' for Active; 'I' for Inactive)
REMARK    1  A    between atoms: N_1  and  C_13
REMARK    2  A    between atoms: C_6  and  N_14
REMARK    3  A    between atoms: N_7  and  C_8
REMARK    4  A    between atoms: N_14  and  O_15
REMARK    5  A    between atoms: N_14  and  O_16
REMARK    6  A    between atoms: O_16  and  C_17
REMARK                            x       y       z     vdW  Elec       q    Type
REMARK                         _______ _______ _______ _____ _____    ______ ____
ROOT
ATOM      1  N   UNL     1      53.391 153.588  25.868  0.00  0.00    -0.263 N 
ATOM      2  C   UNL     1      53.831 152.281  25.362  0.00  0.00    +0.168 C 
ATOM      3  N   UNL     1      53.515 151.220  26.280  0.00  0.00    -0.267 NA
ATOM      4  C   UNL     1      52.200 151.252  26.811  0.00  0.00    +0.146 C 
ATOM      5  N   UNL     1      51.510 152.499  26.703  0.00  0.00    -0.251 NA
ATOM      6  C   UNL     1      52.476 153.557  26.983  0.00  0.00    +0.262 C 
ATOM      7  H   UNL     1      54.171 151.271  27.059  0.00  0.00    +0.126 HD
ATOM      8  H   UNL     1      50.747 152.535  27.379  0.00  0.00    +0.127 HD
ENDROOT
BRANCH   1  14
ATOM      9  C   UNL     1      53.001 155.601  24.579  0.00  0.00    +0.139 C 
ATOM     10  N   UNL     1      53.417 156.734  23.974  0.00  0.00    -0.228 NA
ATOM     11  C   UNL     1      54.703 157.084  24.010  0.00  0.00    +0.100 C 
ATOM     12  C   UNL     1      55.620 156.274  24.676  0.00  0.00    +0.022 C 
ATOM     13  C   UNL     1      55.206 155.112  25.299  0.00  0.00    +0.019 C 
ATOM     14  C   UNL     1      53.871 154.761  25.254  0.00  0.00    +0.082 C 
BRANCH   9  15
ATOM     15  N   UNL     1      51.640 155.237  24.538  0.00  0.00    -0.342 N 
ATOM     16  H   UNL     1      51.338 154.411  24.980  0.00  0.00    +0.144 HD
ATOM     17  H   UNL     1      50.991 155.809  24.068  0.00  0.00    +0.144 HD
ENDBRANCH   9  15
ENDBRANCH   1  14
BRANCH   6  18
ATOM     18  N   UNL     1      51.825 154.819  27.225  0.00  0.00    +0.028 NA
BRANCH  18  19
ATOM     19  O   UNL     1      50.485 154.747  27.049  0.00  0.00    -0.276 OA
ATOM     20  H   UNL     1      50.291 154.553  26.118  0.00  0.00    +0.240 HD
ENDBRANCH  18  19
BRANCH  18  21
ATOM     21  O   UNL     1      52.020 155.098  28.578  0.00  0.00    -0.355 OA
BRANCH  21  22
ATOM     22  C   UNL     1      51.569 156.295  29.145  0.00  0.00    +0.251 C 
ATOM     23  C   UNL     1      52.299 157.444  28.970  0.00  0.00    +0.060 C 
ATOM     24  C   UNL     1      51.875 158.642  29.520  0.00  0.00    +0.006 C 
ATOM     25  C   UNL     1      50.707 158.650  30.243  0.00  0.00    +0.021 C 
ATOM     26  C   UNL     1      50.005 157.465  30.391  0.00  0.00    +0.102 C 
ATOM     27  N   UNL     1      50.415 156.312  29.862  0.00  0.00    -0.208 NA
ENDBRANCH  21  22
ENDBRANCH  18  21
ENDBRANCH   6  18
TORSDOF 6
