REMARK  Name = =
REMARK  6 active torsions:
REMARK  status: ('A' for Active; 'I' for Inactive)
REMARK    1  A    between atoms: C_1  and  C_7
REMARK    2  A    between atoms: C_1  and  C_17
REMARK    3  A    between atoms: C_2  and  C_28
REMARK    4  A    between atoms: C_6  and  C_25
REMARK    5  A    between atoms: C_25  and  O_27
REMARK    6  A    between atoms: C_28  and  O_30
REMARK                            x       y       z     vdW  Elec       q    Type
REMARK                         _______ _______ _______ _____ _____    ______ ____
ROOT
ATOM      1  C   UNL     1     -12.886 -44.011  31.034  0.00  0.00    +0.082 C 
ATOM      2  C   UNL     1     -14.274 -44.261  30.645  0.00  0.00    +0.075 C 
ATOM      3  C   UNL     1     -14.871 -45.422  30.793  0.00  0.00    +0.065 C 
ATOM      4  N   UNL     1     -14.218 -46.547  31.331  0.00  0.00    -0.311 N 
ATOM      5  C   UNL     1     -12.866 -46.386  31.711  0.00  0.00    +0.065 C 
ATOM      6  C   UNL     1     -12.222 -45.238  31.582  0.00  0.00    +0.075 C 
ATOM      7  H   UNL     1     -14.683 -47.408  31.438  0.00  0.00    +0.152 HD
ENDROOT
BRANCH   1   8
ATOM      8  C   UNL     1     -12.144 -43.372  29.952  0.00  0.00    -0.013 C 
ATOM      9  C   UNL     1     -10.860 -42.891  30.215  0.00  0.00    +0.015 C 
ATOM     10  C   UNL     1     -10.115 -42.283  29.234  0.00  0.00    +0.081 C 
ATOM     11  N   UNL     1      -8.880 -41.813  29.461  0.00  0.00    -0.244 NA
ATOM     12  C   UNL     1      -8.138 -41.216  28.512  0.00  0.00    +0.099 C 
ATOM     13  C   UNL     1      -8.625 -41.057  27.231  0.00  0.00    +0.021 C 
ATOM     14  C   UNL     1      -9.886 -41.521  26.948  0.00  0.00    +0.003 C 
ATOM     15  C   UNL     1     -10.615 -42.127  27.943  0.00  0.00    +0.018 C 
ATOM     16  C   UNL     1     -11.879 -42.599  27.683  0.00  0.00    +0.001 C 
ATOM     17  C   UNL     1     -12.616 -43.209  28.686  0.00  0.00    -0.004 C 
ENDBRANCH   1   8
BRANCH   1  18
ATOM     18  C   UNL     1     -12.864 -43.044  32.252  0.00  0.00    +0.117 C 
ATOM     19  C   UNL     1     -13.727 -41.874  32.202  0.00  0.00    +0.133 C 
ATOM     20  S   UNL     1     -13.139 -40.341  33.041  0.00  0.00    -0.119 S 
ATOM     21  C   UNL     1     -14.665 -40.059  34.035  0.00  0.00    +0.081 C 
ATOM     22  C   UNL     1     -15.503 -41.253  33.621  0.00  0.00    +0.106 C 
ATOM     23  N   UNL     1     -14.573 -42.328  33.334  0.00  0.00    -0.271 N 
ATOM     24  C   UNL     1     -13.819 -43.529  33.304  0.00  0.00    +0.229 C 
ATOM     25  O   UNL     1     -13.908 -44.618  33.929  0.00  0.00    -0.275 OA
ENDBRANCH   1  18
BRANCH   6  26
ATOM     26  C   UNL     1     -10.820 -45.214  31.971  0.00  0.00    +0.336 C 
ATOM     27  O   UNL     1     -10.346 -44.275  32.619  0.00  0.00    -0.245 OA
BRANCH  26  28
ATOM     28  O   UNL     1      -9.981 -46.249  31.619  0.00  0.00    -0.477 OA
ATOM     29  H   UNL     1     -10.313 -46.975  31.128  0.00  0.00    +0.295 HD
ENDBRANCH  26  28
ENDBRANCH   6  26
BRANCH   2  30
ATOM     30  C   UNL     1     -15.092 -43.197  29.994  0.00  0.00    +0.336 C 
ATOM     31  O   UNL     1     -15.863 -42.462  30.662  0.00  0.00    -0.245 OA
BRANCH  30  32
ATOM     32  O   UNL     1     -15.033 -42.987  28.652  0.00  0.00    -0.477 OA
ATOM     33  H   UNL     1     -14.470 -43.514  28.120  0.00  0.00    +0.295 HD
ENDBRANCH  30  32
ENDBRANCH   2  30
TORSDOF 6
