MODEL 1
REMARK VINA RESULT:    -8.846      0.000      0.000
REMARK INTER + INTRA:         -16.732
REMARK INTER:                 -15.052
REMARK INTRA:                  -1.680
REMARK UNBOUND:                -1.680
REMARK  Name = =
REMARK  14 active torsions:
REMARK  status: ('A' for Active; 'I' for Inactive)
REMARK    1  A    between atoms: C_1  and  O_31
REMARK    2  A    between atoms: N_3  and  C_4
REMARK    3  A    between atoms: N_3  and  N_21
REMARK    4  A    between atoms: C_7  and  N_8
REMARK    5  A    between atoms: N_8  and  S_24
REMARK    6  A    between atoms: C_11  and  C_15
REMARK    7  A    between atoms: N_17  and  S_18
REMARK    8  A    between atoms: S_24  and  N_27
REMARK    9  A    between atoms: N_27  and  N_28
REMARK   10  A    between atoms: O_31  and  P_32
REMARK   11  A    between atoms: P_32  and  O_33
REMARK   12  A    between atoms: P_32  and  S_34
REMARK   13  A    between atoms: P_32  and  O_35
REMARK   14  A    between atoms: P_32  and  O_36
REMARK                            x       y       z     vdW  Elec       q    Type
REMARK                         _______ _______ _______ _____ _____    ______ ____
ROOT
ATOM      1  C   UNL     1      -5.434  -1.858  31.648  0.00  0.00    +0.178 A 
ATOM      2  N   UNL     1      -4.886  -0.657  31.402  0.00  0.00    -0.130 NA
ATOM      3  N   UNL     1      -5.609   0.456  31.475  0.00  0.00    -0.130 NA
ATOM      4  C   UNL     1      -6.926   0.453  31.798  0.00  0.00    +0.170 A 
ATOM      5  C   UNL     1      -7.531  -0.735  32.058  0.00  0.00    +0.038 A 
ATOM      6  C   UNL     1      -8.869  -0.828  32.395  0.00  0.00    +0.008 C 
ATOM      7  C   UNL     1      -9.464  -2.046  32.657  0.00  0.00    +0.055 C 
ATOM      8  C   UNL     1      -8.668  -3.177  32.565  0.00  0.00    +0.005 C 
ATOM      9  C   UNL     1      -7.341  -3.130  32.234  0.00  0.00    +0.003 C 
ATOM     10  C   UNL     1      -6.758  -1.911  31.977  0.00  0.00    +0.038 A 
ENDROOT
BRANCH   7  11
ATOM     11  C   UNL     1     -10.861  -2.148  33.019  0.00  0.00    +0.264 C 
ATOM     12  O   UNL     1     -11.164  -2.568  34.158  0.00  0.00    -0.269 OA
ATOM     13  N   UNL     1     -11.872  -1.784  32.118  0.00  0.00    -0.188 N 
ATOM     14  H   UNL     1     -11.659  -1.451  31.216  0.00  0.00    +0.176 HD
BRANCH  13  15
ATOM     15  S   UNL     1     -13.520  -1.945  32.658  0.00  0.00    +0.035 S 
ATOM     16  O   UNL     1     -13.798  -0.893  33.669  0.00  0.00    -0.158 OA
ATOM     17  O   UNL     1     -14.396  -1.799  31.447  0.00  0.00    -0.158 OA
ATOM     18  H   UNL     1     -13.756  -3.149  33.242  0.00  0.00    +0.233 HD
ENDBRANCH  13  15
ENDBRANCH   7  11
BRANCH   1  21
ATOM     19  C   UNL     1      -4.092  -3.664  32.717  0.00  0.00    +0.432 C 
ATOM     20  O   UNL     1      -4.295  -3.274  33.875  0.00  0.00    -0.224 OA
ATOM     21  N   UNL     1      -4.625  -3.016  31.575  0.00  0.00    -0.132 N 
BRANCH  21  22
ATOM     22  N   UNL     1      -4.380  -3.519  30.276  0.00  0.00    -0.215 N 
ATOM     23  C   UNL     1      -3.165  -3.224  29.652  0.00  0.00    +0.317 C 
ATOM     24  O   UNL     1      -2.275  -2.530  30.181  0.00  0.00    -0.264 OA
ATOM     25  H   UNL     1      -5.056  -4.069  29.818  0.00  0.00    +0.174 HD
ENDBRANCH  21  22
BRANCH  19  26
ATOM     26  O   UNL     1      -3.316  -4.782  32.528  0.00  0.00    -0.367 OA
BRANCH  26  27
ATOM     27  P   UNL     1      -3.709  -6.387  32.561  0.00  0.00    +0.370 P 
BRANCH  27  28
ATOM     28  O   UNL     1      -4.261  -6.566  31.146  0.00  0.00    -0.306 OA
ATOM     29  H   UNL     1      -3.535  -6.783  30.540  0.00  0.00    +0.222 HD
ENDBRANCH  27  28
BRANCH  27  30
ATOM     30  S   UNL     1      -2.582  -7.444  31.203  0.00  0.00    -0.044 S 
ATOM     31  H   UNL     1      -2.515  -6.754  30.034  0.00  0.00    +0.115 HD
ENDBRANCH  27  30
BRANCH  27  32
ATOM     32  O   UNL     1      -4.717  -6.029  33.831  0.00  0.00    -0.306 OA
ATOM     33  H   UNL     1      -4.187  -5.769  34.601  0.00  0.00    +0.222 HD
ENDBRANCH  27  32
BRANCH  27  34
ATOM     34  O   UNL     1      -2.931  -7.261  33.808  0.00  0.00    -0.306 OA
ATOM     35  H   UNL     1      -3.517  -7.968  34.121  0.00  0.00    +0.222 HD
ENDBRANCH  27  34
ENDBRANCH  26  27
ENDBRANCH  19  26
ENDBRANCH   1  21
BRANCH   4  36
ATOM     36  N   UNL     1      -7.643   1.678  31.861  0.00  0.00    -0.184 N 
ATOM     37  H   UNL     1      -8.198   1.883  32.649  0.00  0.00    +0.177 HD
BRANCH  36  38
ATOM     38  S   UNL     1      -7.545   2.823  30.546  0.00  0.00    +0.143 S 
ATOM     39  O   UNL     1      -6.661   2.276  29.459  0.00  0.00    -0.134 OA
ATOM     40  O   UNL     1      -6.991   4.120  31.033  0.00  0.00    -0.134 OA
BRANCH  38  41
ATOM     41  N   UNL     1      -9.117   3.146  29.915  0.00  0.00    -0.074 N 
ATOM     42  H   UNL     1      -9.313   4.033  29.533  0.00  0.00    +0.203 HD
BRANCH  41  43
ATOM     43  N   UNL     1     -10.114   2.171  29.936  0.00  0.00    +0.139 N 
ATOM     44  O   UNL     1      -9.878   0.863  29.597  0.00  0.00    -0.108 OA
ATOM     45  O   UNL     1     -11.283   2.456  30.271  0.00  0.00    -0.108 OA
ENDBRANCH  41  43
ENDBRANCH  38  41
ENDBRANCH  36  38
ENDBRANCH   4  36
TORSDOF 14
ENDMDL
