REMARK  Name = =
REMARK  1 active torsions:
REMARK  status: ('A' for Active; 'I' for Inactive)
REMARK    1  A    between atoms: N_1  and  C_9
REMARK                            x       y       z     vdW  Elec       q    Type
REMARK                         _______ _______ _______ _____ _____    ______ ____
ROOT
ATOM      1  N   UNL     1     -14.058 -42.886  26.744  0.00  0.00    -0.207 N 
ATOM      2  C   UNL     1     -15.265 -42.683  27.467  0.00  0.00    +0.235 C 
ATOM      3  O   UNL     1     -15.379 -43.285  28.581  0.00  0.00    -0.274 OA
ATOM      4  C   UNL     1     -16.338 -41.798  26.926  0.00  0.00    +0.087 C 
ATOM      5  C   UNL     1     -16.356 -41.783  25.430  0.00  0.00    +0.019 C 
ATOM      6  C   UNL     1     -15.569 -42.898  24.793  0.00  0.00    +0.087 C 
ATOM      7  C   UNL     1     -14.174 -42.880  25.312  0.00  0.00    +0.235 C 
ATOM      8  O   UNL     1     -13.158 -42.860  24.606  0.00  0.00    -0.274 OA
ENDROOT
BRANCH   1   9
ATOM      9  C   UNL     1     -12.811 -43.083  27.399  0.00  0.00    +0.080 C 
ATOM     10  C   UNL     1     -11.938 -42.056  27.702  0.00  0.00    +0.018 C 
ATOM     11  C   UNL     1     -10.730 -42.298  28.342  0.00  0.00    +0.022 C 
ATOM     12  C   UNL     1     -10.363 -43.580  28.697  0.00  0.00    +0.099 C 
ATOM     13  N   UNL     1     -11.225 -44.569  28.396  0.00  0.00    -0.241 NA
ATOM     14  C   UNL     1     -12.416 -44.351  27.767  0.00  0.00    +0.114 C 
ENDBRANCH   1   9
TORSDOF 1
