REMARK  Name = =
REMARK  2 active torsions:
REMARK  status: ('A' for Active; 'I' for Inactive)
REMARK    1  A    between atoms: N_1  and  C_2
REMARK    2  A    between atoms: N_1  and  N_7
REMARK                            x       y       z     vdW  Elec       q    Type
REMARK                         _______ _______ _______ _____ _____    ______ ____
ROOT
ATOM      1  N   UNL     1      58.203 148.633  40.227  0.00  0.00    -0.200 NA
ATOM      2  H   UNL     1      58.344 148.752  41.230  0.00  0.00    +0.146 HD
ENDROOT
BRANCH   1   3
ATOM      3  C   UNL     1      59.018 147.537  39.789  0.00  0.00    +0.318 C 
ATOM      4  O   UNL     1      58.552 146.884  38.681  0.00  0.00    -0.314 OA
ATOM      5  C   UNL     1      57.900 145.722  39.148  0.00  0.00    +0.178 C 
ATOM      6  C   UNL     1      58.812 145.370  40.309  0.00  0.00    +0.178 C 
ATOM      7  O   UNL     1      59.058 146.625  40.845  0.00  0.00    -0.314 OA
ENDBRANCH   1   3
BRANCH   1   8
ATOM      8  N   UNL     1      58.470 149.839  39.611  0.00  0.00    -0.266 NA
ATOM      9  H   UNL     1      58.335 149.744  38.604  0.00  0.00    +0.137 HD
ATOM     10  H   UNL     1      59.435 150.111  39.800  0.00  0.00    +0.137 HD
ENDBRANCH   1   8
TORSDOF 2
