REMARK  Name = =
REMARK  7 active torsions:
REMARK  status: ('A' for Active; 'I' for Inactive)
REMARK    1  A    between atoms: S_1  and  C_4
REMARK    2  A    between atoms: S_1  and  P_14
REMARK    3  A    between atoms: S_1  and  N_18
REMARK    4  A    between atoms: P_14  and  O_16
REMARK    5  A    between atoms: P_14  and  O_17
REMARK    6  A    between atoms: N_18  and  C_19
REMARK    7  A    between atoms: N_18  and  N_24
REMARK                            x       y       z     vdW  Elec       q    Type
REMARK                         _______ _______ _______ _____ _____    ______ ____
ROOT
ATOM      1  S   UNL     1      59.299 146.799  40.942  0.00  0.00    -0.070 S 
ATOM      2  H   UNL     1      58.842 146.469  42.180  0.00  0.00    +0.110 HD
ENDROOT
BRANCH   1   5
ATOM      3  C   UNL     1      62.421 145.904  38.886  0.00  0.00    +0.096 C 
ATOM      4  N   UNL     1      61.296 146.217  39.423  0.00  0.00    -0.250 NA
ATOM      5  C   UNL     1      60.509 145.705  40.522  0.00  0.00    +0.228 C 
ATOM      6  C   UNL     1      61.325 145.227  41.656  0.00  0.00    +0.259 C 
ATOM      7  O   UNL     1      60.923 145.552  42.789  0.00  0.00    -0.272 OA
ATOM      8  N   UNL     1      62.508 144.446  41.632  0.00  0.00    -0.282 N 
ATOM      9  C   UNL     1      63.367 144.151  40.511  0.00  0.00    +0.052 C 
ATOM     10  C   UNL     1      63.310 144.812  39.298  0.00  0.00    +0.032 C 
ATOM     11  C   UNL     1      64.204 144.408  38.327  0.00  0.00    +0.003 C 
ATOM     12  C   UNL     1      65.127 143.397  38.513  0.00  0.00    +0.000 C 
ATOM     13  C   UNL     1      65.159 142.748  39.754  0.00  0.00    +0.001 C 
ATOM     14  C   UNL     1      64.271 143.144  40.730  0.00  0.00    +0.015 C 
ATOM     15  H   UNL     1      62.779 144.053  42.493  0.00  0.00    +0.155 HD
ENDBRANCH   1   5
BRANCH   1  16
ATOM     16  P   UNL     1      59.835 148.466  41.156  0.00  0.00    +0.221 P 
ATOM     17  S   UNL     1      58.507 149.593  41.023  0.00  0.00    +0.002 S 
BRANCH  16  18
ATOM     18  O   UNL     1      60.510 148.728  42.700  0.00  0.00    -0.340 OA
ATOM     19  H   UNL     1      59.878 148.449  43.381  0.00  0.00    +0.218 HD
ENDBRANCH  16  18
BRANCH  16  20
ATOM     20  O   UNL     1      60.997 148.977  40.014  0.00  0.00    -0.340 OA
ATOM     21  H   UNL     1      61.763 148.383  40.044  0.00  0.00    +0.218 HD
ENDBRANCH  16  20
ENDBRANCH   1  16
BRANCH   1  22
ATOM     22  N   UNL     1      58.098 146.670  39.793  0.00  0.00    -0.138 NA
BRANCH  22  23
ATOM     23  C   UNL     1      57.105 145.723  40.234  0.00  0.00    +0.330 C 
ATOM     24  O   UNL     1      57.659 144.704  40.996  0.00  0.00    -0.313 OA
ATOM     25  C   UNL     1      56.878 143.579  40.786  0.00  0.00    +0.178 C 
ATOM     26  C   UNL     1      55.840 144.028  39.782  0.00  0.00    +0.178 C 
ATOM     27  O   UNL     1      56.462 145.103  39.150  0.00  0.00    -0.313 OA
ENDBRANCH  22  23
BRANCH  22  28
ATOM     28  N   UNL     1      58.649 146.148  38.592  0.00  0.00    -0.255 NA
ATOM     29  H   UNL     1      57.915 146.068  37.888  0.00  0.00    +0.138 HD
ATOM     30  H   UNL     1      59.048 145.227  38.773  0.00  0.00    +0.138 HD
ENDBRANCH  22  28
ENDBRANCH   1  22
TORSDOF 7
