REMARK  Name = =
REMARK  11 active torsions:
REMARK  status: ('A' for Active; 'I' for Inactive)
REMARK    1  A    between atoms: C_1  and  O_25
REMARK    2  A    between atoms: C_3  and  S_13
REMARK    3  A    between atoms: S_13  and  P_14
REMARK    4  A    between atoms: S_13  and  N_18
REMARK    5  A    between atoms: P_14  and  O_16
REMARK    6  A    between atoms: P_14  and  O_17
REMARK    7  A    between atoms: N_18  and  C_19
REMARK    8  A    between atoms: N_18  and  N_24
REMARK    9  A    between atoms: O_25  and  C_27
REMARK   10  A    between atoms: C_26  and  O_32
REMARK   11  A    between atoms: C_29  and  C_33
REMARK                            x       y       z     vdW  Elec       q    Type
REMARK                         _______ _______ _______ _____ _____    ______ ____
ROOT
ATOM      1  C   UNL     1      62.827 145.163  39.617  0.00  0.00    +0.228 C 
ATOM      2  N   UNL     1      61.686 145.275  40.177  0.00  0.00    -0.219 NA
ATOM      3  C   UNL     1      60.853 144.325  40.816  0.00  0.00    +0.231 C 
ATOM      4  C   UNL     1      61.002 142.921  40.366  0.00  0.00    +0.259 C 
ATOM      5  O   UNL     1      59.932 142.242  40.180  0.00  0.00    -0.272 OA
ATOM      6  N   UNL     1      62.171 142.167  40.095  0.00  0.00    -0.281 N 
ATOM      7  C   UNL     1      63.409 142.690  39.627  0.00  0.00    +0.055 C 
ATOM      8  C   UNL     1      63.728 144.033  39.403  0.00  0.00    +0.067 C 
ATOM      9  C   UNL     1      64.975 144.323  38.946  0.00  0.00    +0.006 C 
ATOM     10  C   UNL     1      65.944 143.378  38.690  0.00  0.00    +0.000 C 
ATOM     11  C   UNL     1      65.628 142.052  38.910  0.00  0.00    +0.001 C 
ATOM     12  C   UNL     1      64.365 141.733  39.376  0.00  0.00    +0.015 C 
ATOM     13  H   UNL     1      62.122 141.195  40.244  0.00  0.00    +0.155 HD
ENDROOT
BRANCH   3  14
ATOM     14  S   UNL     1      59.179 144.711  40.774  0.00  0.00    -0.070 S 
ATOM     15  H   UNL     1      58.556 143.910  41.679  0.00  0.00    +0.110 HD
BRANCH  14  16
ATOM     16  P   UNL     1      58.813 146.342  41.406  0.00  0.00    +0.221 P 
ATOM     17  S   UNL     1      59.389 146.554  43.034  0.00  0.00    +0.002 S 
BRANCH  16  18
ATOM     18  O   UNL     1      57.124 146.574  41.488  0.00  0.00    -0.340 OA
ATOM     19  H   UNL     1      56.728 145.875  42.031  0.00  0.00    +0.218 HD
ENDBRANCH  16  18
BRANCH  16  20
ATOM     20  O   UNL     1      59.507 147.556  40.463  0.00  0.00    -0.340 OA
ATOM     21  H   UNL     1      59.205 147.466  39.546  0.00  0.00    +0.218 HD
ENDBRANCH  16  20
ENDBRANCH  14  16
BRANCH  14  22
ATOM     22  N   UNL     1      58.486 144.298  39.407  0.00  0.00    -0.138 NA
BRANCH  22  23
ATOM     23  C   UNL     1      57.390 143.332  39.454  0.00  0.00    +0.330 C 
ATOM     24  O   UNL     1      57.112 142.867  38.173  0.00  0.00    -0.313 OA
ATOM     25  C   UNL     1      55.746 142.835  38.029  0.00  0.00    +0.178 C 
ATOM     26  C   UNL     1      55.180 143.428  39.277  0.00  0.00    +0.178 C 
ATOM     27  O   UNL     1      56.265 144.034  39.872  0.00  0.00    -0.313 OA
ENDBRANCH  22  23
BRANCH  22  28
ATOM     28  N   UNL     1      58.108 145.295  38.521  0.00  0.00    -0.255 NA
ATOM     29  H   UNL     1      57.680 144.873  37.697  0.00  0.00    +0.138 HD
ATOM     30  H   UNL     1      58.930 145.831  38.241  0.00  0.00    +0.138 HD
ENDBRANCH  22  28
ENDBRANCH  14  22
ENDBRANCH   3  14
BRANCH   1  31
ATOM     31  O   UNL     1      63.280 146.367  39.116  0.00  0.00    -0.433 OA
BRANCH  31  33
ATOM     32  C   UNL     1      64.745 147.913  40.133  0.00  0.00    +0.168 C 
ATOM     33  C   UNL     1      63.430 147.493  39.900  0.00  0.00    +0.181 C 
ATOM     34  C   UNL     1      62.435 148.237  40.468  0.00  0.00    +0.044 C 
ATOM     35  C   UNL     1      62.708 149.372  41.250  0.00  0.00    +0.045 C 
ATOM     36  C   UNL     1      64.010 149.771  41.471  0.00  0.00    +0.007 C 
ATOM     37  C   UNL     1      65.018 149.042  40.912  0.00  0.00    +0.040 C 
BRANCH  32  38
ATOM     38  O   UNL     1      65.792 147.204  39.588  0.00  0.00    -0.503 OA
ATOM     39  H   UNL     1      66.674 147.480  39.740  0.00  0.00    +0.292 HD
ENDBRANCH  32  38
BRANCH  35  40
ATOM     40  C   UNL     1      61.614 150.125  41.836  0.00  0.00    +0.234 C 
ATOM     41  O   UNL     1      60.451 149.915  41.431  0.00  0.00    -0.283 OA
ENDBRANCH  35  40
ENDBRANCH  31  33
ENDBRANCH   1  31
TORSDOF 11
