REMARK  Name = =
REMARK  3 active torsions:
REMARK  status: ('A' for Active; 'I' for Inactive)
REMARK    1  A    between atoms: C_2  and  C_5
REMARK    2  A    between atoms: C_16  and  N_18
REMARK    3  A    between atoms: C_19  and  N_23
REMARK                            x       y       z     vdW  Elec       q    Type
REMARK                         _______ _______ _______ _____ _____    ______ ____
ROOT
ATOM      1  C   UNL     1      52.353 155.653  28.077  0.00  0.00    -0.019 C 
ATOM      2  C   UNL     1      52.664 154.604  27.276  0.00  0.00    +0.072 C 
ATOM      3  C   UNL     1      53.391 154.829  26.105  0.00  0.00    +0.094 C 
ATOM      4  C   UNL     1      53.769 156.117  25.801  0.00  0.00    +0.176 C 
ATOM      5  N   UNL     1      53.440 157.107  26.619  0.00  0.00    -0.225 NA
ATOM      6  C   UNL     1      52.732 156.916  27.769  0.00  0.00    +0.092 C 
ATOM      7  N   UNL     1      54.479 156.325  24.657  0.00  0.00    -0.227 NA
ATOM      8  C   UNL     1      54.791 155.292  23.858  0.00  0.00    +0.101 C 
ATOM      9  C   UNL     1      54.396 154.011  24.189  0.00  0.00    +0.172 C 
ATOM     10  N   UNL     1      53.693 153.782  25.318  0.00  0.00    -0.265 NA
ENDROOT
BRANCH   1  12
ATOM     11  C   UNL     1      50.619 155.978  29.921  0.00  0.00    +0.004 C 
ATOM     12  C   UNL     1      51.584 155.385  29.324  0.00  0.00    +0.020 C 
ATOM     13  C   UNL     1      51.661 154.330  30.328  0.00  0.00    +0.004 C 
ATOM     14  C   UNL     1      50.558 155.028  30.996  0.00  0.00    +0.001 C 
ENDBRANCH   1  12
TORSDOF 1
REMARK  Name = =
REMARK  3 active torsions:
REMARK  status: ('A' for Active; 'I' for Inactive)
REMARK    1  A    between atoms: C_2  and  C_5
REMARK    2  A    between atoms: C_16  and  N_18
REMARK    3  A    between atoms: C_19  and  N_23
REMARK                            x       y       z     vdW  Elec       q    Type
REMARK                         _______ _______ _______ _____ _____    ______ ____
ROOT
ATOM      1  I   UNL     1      49.526 157.751  29.446  0.00  0.00    -0.107 I 
ATOM      2  H   UNL     1      51.087 157.751  29.446  0.00  0.00    +0.107 HD
ENDROOT
TORSDOF 0
REMARK  Name = =
REMARK  3 active torsions:
REMARK  status: ('A' for Active; 'I' for Inactive)
REMARK    1  A    between atoms: C_2  and  C_5
REMARK    2  A    between atoms: C_16  and  N_18
REMARK    3  A    between atoms: C_19  and  N_23
REMARK                            x       y       z     vdW  Elec       q    Type
REMARK                         _______ _______ _______ _____ _____    ______ ____
ROOT
ATOM      1  N   UNL     1      49.582 160.013  31.574  0.00  0.00    -0.296 N 
ATOM      2  C   UNL     1      48.487 160.914  31.369  0.00  0.00    +0.128 C 
ATOM      3  C   UNL     1      48.802 162.043  32.324  0.00  0.00    +0.038 C 
ATOM      4  C   UNL     1      49.237 161.281  33.558  0.00  0.00    +0.025 C 
ATOM      5  C   UNL     1      49.786 159.974  33.030  0.00  0.00    +0.092 C 
ENDROOT
BRANCH   2   6
ATOM      6  N   UNL     1      48.336 161.369  30.009  0.00  0.00    -0.307 NA
ATOM      7  H   UNL     1      48.125 160.574  29.406  0.00  0.00    +0.120 HD
ATOM      8  H   UNL     1      49.202 161.810  29.700  0.00  0.00    +0.120 HD
ENDBRANCH   2   6
BRANCH   1   9
ATOM      9  C   UNL     1      50.370 159.264  30.629  0.00  0.00    +0.062 C 
ATOM     10  C   UNL     1      51.647 159.572  30.544  0.00  0.00    +0.017 C 
ENDBRANCH   1   9
TORSDOF 2
