REMARK  Name = =
REMARK  0 active torsions:
REMARK  status: ('A' for Active; 'I' for Inactive)
REMARK                            x       y       z     vdW  Elec       q    Type
REMARK                         _______ _______ _______ _____ _____    ______ ____
ROOT
ATOM      1  C   UNL     1      -5.287  -2.303  32.187  0.00  0.00    +0.095 C 
ATOM      2  C   UNL     1      -4.415  -2.182  30.996  0.00  0.00    -0.014 C 
ATOM      3  C   UNL     1      -3.853  -3.300  30.540  0.00  0.00    -0.029 C 
ATOM      4  C   UNL     1      -3.886  -4.483  31.441  0.00  0.00    +0.026 C 
ATOM      5  C   UNL     1      -4.784  -4.290  32.619  0.00  0.00    +0.008 C 
ATOM      6  C   UNL     1      -6.075  -3.605  32.152  0.00  0.00    +0.022 C 
ATOM      7  C   UNL     1      -4.434  -2.950  33.283  0.00  0.00    +0.022 C 
ATOM      8  N   UNL     1      -6.012  -1.143  32.582  0.00  0.00    -0.130 NA
ENDROOT
TORSDOF 0
