REMARK  Name = =
REMARK  2 active torsions:
REMARK  status: ('A' for Active; 'I' for Inactive)
REMARK    1  A    between atoms: C_6  and  C_9
REMARK    2  A    between atoms: C_9  and  C_10
REMARK                            x       y       z     vdW  Elec       q    Type
REMARK                         _______ _______ _______ _____ _____    ______ ____
ROOT
ATOM      1  C   UNL     1      -5.511  -1.826  31.831  0.00  0.00    +0.077 C 
ATOM      2  C   UNL     1      -4.401  -2.360  30.967  0.00  0.00    +0.018 C 
ATOM      3  C   UNL     1      -3.866  -3.512  31.378  0.00  0.00    +0.001 C 
ATOM      4  C   UNL     1      -4.765  -4.438  32.162  0.00  0.00    +0.000 C 
ATOM      5  C   UNL     1      -5.772  -3.607  32.906  0.00  0.00    +0.003 C 
ATOM      6  C   UNL     1      -6.585  -2.840  31.855  0.00  0.00    +0.024 C 
ATOM      7  C   UNL     1      -5.141  -2.267  33.252  0.00  0.00    +0.018 C 
ATOM      8  N   UNL     1      -5.798  -0.451  31.684  0.00  0.00    -0.134 NA
ENDROOT
BRANCH   6   9
ATOM      9  C   UNL     1      -7.926  -2.508  32.390  0.00  0.00    +0.066 C 
BRANCH   9  10
ATOM     10  C   UNL     1      -8.940  -2.082  31.420  0.00  0.00    +0.151 C 
ATOM     11  O   UNL     1      -8.640  -1.793  30.299  0.00  0.00    -0.296 OA
ATOM     12  C   UNL     1     -10.351  -2.008  31.838  0.00  0.00    +0.072 C 
ENDBRANCH   9  10
ENDBRANCH   6   9
TORSDOF 2
