REMARK  Name = =
REMARK  5 active torsions:
REMARK  status: ('A' for Active; 'I' for Inactive)
REMARK    1  A    between atoms: C_1  and  N_12
REMARK    2  A    between atoms: C_6  and  C_8
REMARK    3  A    between atoms: C_8  and  C_9
REMARK    4  A    between atoms: N_12  and  S_13
REMARK    5  A    between atoms: S_13  and  N_16
REMARK                            x       y       z     vdW  Elec       q    Type
REMARK                         _______ _______ _______ _____ _____    ______ ____
ROOT
ATOM      1  C   UNL     1      -7.805  -0.963  31.101  0.00  0.00    +0.102 C 
ATOM      2  C   UNL     1      -8.477  -0.604  32.376  0.00  0.00    -0.013 C 
ATOM      3  C   UNL     1      -7.791  -0.750  33.500  0.00  0.00    -0.029 C 
ATOM      4  C   UNL     1      -6.317  -0.943  33.383  0.00  0.00    +0.026 C 
ATOM      5  C   UNL     1      -5.935  -1.208  31.965  0.00  0.00    +0.008 C 
ATOM      6  C   UNL     1      -6.523  -0.186  30.999  0.00  0.00    +0.028 C 
ATOM      7  C   UNL     1      -6.969  -2.186  31.394  0.00  0.00    +0.023 C 
ENDROOT
BRANCH   6   8
ATOM      8  C   UNL     1      -6.531   1.218  31.481  0.00  0.00    +0.066 C 
BRANCH   8   9
ATOM      9  C   UNL     1      -6.710   2.209  30.418  0.00  0.00    +0.151 C 
ATOM     10  O   UNL     1      -6.369   1.949  29.282  0.00  0.00    -0.296 OA
ATOM     11  C   UNL     1      -7.302   3.549  30.667  0.00  0.00    +0.072 C 
ENDBRANCH   8   9
ENDBRANCH   6   8
BRANCH   1  12
ATOM     12  N   UNL     1      -8.671  -0.998  30.001  0.00  0.00    -0.066 NA
BRANCH  12  13
ATOM     13  S   UNL     1      -9.929   0.132  29.971  0.00  0.00    +0.110 S 
ATOM     14  O   UNL     1      -9.783   1.222  31.004  0.00  0.00    -0.140 OA
ATOM     15  O   UNL     1     -11.217  -0.598  30.336  0.00  0.00    -0.140 OA
BRANCH  13  16
ATOM     16  N   UNL     1     -10.193   0.831  28.415  0.00  0.00    -0.192 NA
ATOM     17  H   UNL     1     -10.291   0.090  27.721  0.00  0.00    +0.145 HD
ATOM     18  H   UNL     1      -9.400   1.424  28.170  0.00  0.00    +0.145 HD
ENDBRANCH  13  16
ENDBRANCH  12  13
ENDBRANCH   1  12
TORSDOF 5
