REMARK  Name = =
REMARK  5 active torsions:
REMARK  status: ('A' for Active; 'I' for Inactive)
REMARK    1  A    between atoms: C_1  and  N_20
REMARK    2  A    between atoms: C_14  and  C_16
REMARK    3  A    between atoms: C_16  and  C_17
REMARK    4  A    between atoms: N_20  and  S_21
REMARK    5  A    between atoms: S_21  and  N_24
REMARK                            x       y       z     vdW  Elec       q    Type
REMARK                         _______ _______ _______ _____ _____    ______ ____
ROOT
ATOM      1  C   UNL     1       4.444 -15.318  22.713  0.00  0.00    +0.084 C 
ATOM      2  C   UNL     1       4.393 -16.050  24.037  0.00  0.00    +0.018 C 
ATOM      3  C   UNL     1       3.421 -14.933  23.617  0.00  0.00    +0.021 C 
ATOM      4  C   UNL     1       2.030 -15.333  23.737  0.00  0.00    +0.006 C 
ATOM      5  C   UNL     1       1.036 -14.200  23.589  0.00  0.00    +0.026 C 
ATOM      6  C   UNL     1       1.369 -13.310  24.763  0.00  0.00    -0.026 C 
ATOM      7  C   UNL     1       0.419 -12.523  25.207  0.00  0.00    -0.005 C 
ATOM      8  C   UNL     1       2.719 -13.379  25.334  0.00  0.00    -0.026 C 
ATOM      9  C   UNL     1       2.774 -13.179  26.635  0.00  0.00    -0.005 C 
ATOM     10  C   UNL     1       3.816 -13.655  24.424  0.00  0.00    +0.024 C 
ATOM     11  C   UNL     1       5.345 -16.928  24.213  0.00  0.00    +0.001 C 
ATOM     12  C   UNL     1       6.605 -16.065  24.661  0.00  0.00    +0.000 C 
ATOM     13  C   UNL     1       6.158 -14.666  24.290  0.00  0.00    +0.002 C 
ATOM     14  C   UNL     1       5.152 -13.949  25.131  0.00  0.00    +0.011 C 
ATOM     15  C   UNL     1       5.750 -14.561  22.811  0.00  0.00    +0.018 C 
ENDROOT
BRANCH  14  16
ATOM     16  C   UNL     1       5.833 -12.620  25.426  0.00  0.00    +0.065 C 
BRANCH  16  17
ATOM     17  C   UNL     1       6.611 -12.700  26.668  0.00  0.00    +0.151 C 
ATOM     18  O   UNL     1       6.758 -13.697  27.344  0.00  0.00    -0.296 OA
ATOM     19  C   UNL     1       7.323 -11.484  27.221  0.00  0.00    +0.072 C 
ENDBRANCH  16  17
ENDBRANCH  14  16
BRANCH   1  20
ATOM     20  N   UNL     1       4.067 -15.928  21.483  0.00  0.00    -0.070 NA
BRANCH  20  21
ATOM     21  S   UNL     1       5.304 -16.136  20.338  0.00  0.00    +0.109 S 
ATOM     22  O   UNL     1       5.931 -14.880  19.867  0.00  0.00    -0.140 OA
ATOM     23  O   UNL     1       6.356 -17.044  20.956  0.00  0.00    -0.140 OA
BRANCH  21  24
ATOM     24  N   UNL     1       4.741 -16.979  18.921  0.00  0.00    -0.192 NA
ATOM     25  H   UNL     1       4.299 -17.855  19.200  0.00  0.00    +0.145 HD
ATOM     26  H   UNL     1       5.531 -17.177  18.307  0.00  0.00    +0.145 HD
ENDBRANCH  21  24
ENDBRANCH  20  21
ENDBRANCH   1  20
TORSDOF 5
