REMARK  Name = =
REMARK  8 active torsions:
REMARK  status: ('A' for Active; 'I' for Inactive)
REMARK    1  A    between atoms: C_1  and  N_24
REMARK    2  A    between atoms: C_14  and  C_16
REMARK    3  A    between atoms: C_15  and  S_20
REMARK    4  A    between atoms: C_16  and  C_17
REMARK    5  A    between atoms: S_20  and  C_21
REMARK    6  A    between atoms: C_21  and  O_23
REMARK    7  A    between atoms: N_24  and  S_25
REMARK    8  A    between atoms: S_25  and  N_28
REMARK                            x       y       z     vdW  Elec       q    Type
REMARK                         _______ _______ _______ _____ _____    ______ ____
ROOT
ATOM      1  C   UNL     1       4.640 -14.887  22.670  0.00  0.00    +0.093 C 
ATOM      2  C   UNL     1       4.163 -15.650  23.931  0.00  0.00    +0.019 C 
ATOM      3  C   UNL     1       3.258 -14.820  23.001  0.00  0.00    +0.022 C 
ATOM      4  C   UNL     1       2.191 -15.552  22.372  0.00  0.00    +0.006 C 
ATOM      5  C   UNL     1       1.139 -16.115  23.318  0.00  0.00    +0.026 C 
ATOM      6  C   UNL     1       0.635 -14.943  24.118  0.00  0.00    -0.026 C 
ATOM      7  C   UNL     1      -0.653 -14.860  24.340  0.00  0.00    -0.005 C 
ATOM      8  C   UNL     1       1.590 -13.928  24.626  0.00  0.00    -0.026 C 
ATOM      9  C   UNL     1       1.263 -13.388  25.773  0.00  0.00    -0.005 C 
ATOM     10  C   UNL     1       2.833 -13.576  23.848  0.00  0.00    +0.024 C 
ATOM     11  C   UNL     1       5.119 -16.229  24.596  0.00  0.00    +0.002 C 
ATOM     12  C   UNL     1       5.748 -15.064  25.499  0.00  0.00    +0.001 C 
ATOM     13  C   UNL     1       5.251 -13.840  24.753  0.00  0.00    +0.013 C 
ATOM     14  C   UNL     1       3.913 -13.296  24.907  0.00  0.00    +0.012 C 
ATOM     15  C   UNL     1       5.669 -13.997  23.289  0.00  0.00    +0.072 C 
ENDROOT
BRANCH  14  16
ATOM     16  C   UNL     1       3.984 -11.734  24.905  0.00  0.00    +0.065 C 
BRANCH  16  17
ATOM     17  C   UNL     1       4.088 -11.223  26.287  0.00  0.00    +0.151 C 
ATOM     18  O   UNL     1       5.087 -11.465  26.945  0.00  0.00    -0.296 OA
ATOM     19  C   UNL     1       3.015 -10.414  26.928  0.00  0.00    +0.072 C 
ENDBRANCH  16  17
ENDBRANCH  14  16
BRANCH  15  20
ATOM     20  S   UNL     1       7.256 -14.830  23.367  0.00  0.00    -0.070 S 
BRANCH  20  21
ATOM     21  C   UNL     1       8.344 -14.619  22.026  0.00  0.00    +0.199 C 
ATOM     22  S   UNL     1       9.742 -15.522  22.051  0.00  0.00    -0.004 S 
BRANCH  21  23
ATOM     23  O   UNL     1       8.214 -13.804  20.934  0.00  0.00    -0.496 OA
ATOM     24  H   UNL     1       8.884 -13.788  20.279  0.00  0.00    +0.293 HD
ENDBRANCH  21  23
ENDBRANCH  20  21
ENDBRANCH  15  20
BRANCH   1  25
ATOM     25  N   UNL     1       4.945 -15.669  21.480  0.00  0.00    -0.069 NA
BRANCH  25  26
ATOM     26  S   UNL     1       4.980 -14.756  20.063  0.00  0.00    +0.109 S 
ATOM     27  O   UNL     1       6.175 -15.250  19.233  0.00  0.00    -0.140 OA
ATOM     28  O   UNL     1       5.248 -13.288  20.301  0.00  0.00    -0.140 OA
BRANCH  26  29
ATOM     29  N   UNL     1       3.614 -14.867  19.048  0.00  0.00    -0.192 NA
ATOM     30  H   UNL     1       2.788 -14.549  19.554  0.00  0.00    +0.145 HD
ATOM     31  H   UNL     1       3.483 -15.836  18.759  0.00  0.00    +0.145 HD
ENDBRANCH  26  29
ENDBRANCH  25  26
ENDBRANCH   1  25
TORSDOF 8
