REMARK  Name = =
REMARK  8 active torsions:
REMARK  status: ('A' for Active; 'I' for Inactive)
REMARK    1  A    between atoms: C_1  and  N_25
REMARK    2  A    between atoms: C_15  and  C_17
REMARK    3  A    between atoms: C_16  and  S_21
REMARK    4  A    between atoms: C_17  and  C_18
REMARK    5  A    between atoms: S_21  and  C_22
REMARK    6  A    between atoms: C_22  and  O_24
REMARK    7  A    between atoms: N_25  and  S_26
REMARK    8  A    between atoms: S_26  and  N_29
REMARK                            x       y       z     vdW  Elec       q    Type
REMARK                         _______ _______ _______ _____ _____    ______ ____
ROOT
ATOM      1  C   UNL     1       4.704 -15.232  22.871  0.00  0.00    +0.093 C 
ATOM      2  C   UNL     1       4.532 -15.908  24.273  0.00  0.00    +0.019 C 
ATOM      3  C   UNL     1       3.600 -14.828  23.664  0.00  0.00    +0.022 C 
ATOM      4  C   UNL     1       2.209 -15.158  23.595  0.00  0.00    +0.006 C 
ATOM      5  C   UNL     1       1.760 -15.876  22.339  0.00  0.00    +0.000 C 
ATOM      6  C   UNL     1       1.272 -13.919  23.633  0.00  0.00    +0.026 C 
ATOM      7  C   UNL     1       1.470 -13.367  24.997  0.00  0.00    -0.026 C 
ATOM      8  C   UNL     1       0.499 -12.757  25.605  0.00  0.00    -0.005 C 
ATOM      9  C   UNL     1       2.823 -13.581  25.578  0.00  0.00    -0.026 C 
ATOM     10  C   UNL     1       2.858 -13.754  26.866  0.00  0.00    -0.005 C 
ATOM     11  C   UNL     1       3.934 -13.587  24.595  0.00  0.00    +0.024 C 
ATOM     12  C   UNL     1       5.469 -16.754  24.608  0.00  0.00    +0.002 C 
ATOM     13  C   UNL     1       6.722 -15.893  25.003  0.00  0.00    +0.001 C 
ATOM     14  C   UNL     1       6.347 -14.502  24.504  0.00  0.00    +0.013 C 
ATOM     15  C   UNL     1       5.253 -13.808  25.304  0.00  0.00    +0.012 C 
ATOM     16  C   UNL     1       6.023 -14.520  23.054  0.00  0.00    +0.072 C 
ENDROOT
BRANCH  15  17
ATOM     17  C   UNL     1       5.762 -12.606  26.004  0.00  0.00    +0.065 C 
BRANCH  17  18
ATOM     18  C   UNL     1       5.904 -11.353  25.292  0.00  0.00    +0.151 C 
ATOM     19  O   UNL     1       6.104 -11.114  24.130  0.00  0.00    -0.296 OA
ATOM     20  C   UNL     1       5.781 -10.098  26.139  0.00  0.00    +0.072 C 
ENDBRANCH  17  18
ENDBRANCH  15  17
BRANCH  16  21
ATOM     21  S   UNL     1       7.288 -14.793  21.907  0.00  0.00    -0.070 S 
BRANCH  21  22
ATOM     22  C   UNL     1       8.303 -16.180  21.911  0.00  0.00    +0.199 C 
ATOM     23  S   UNL     1       8.029 -17.685  21.384  0.00  0.00    -0.004 S 
BRANCH  22  24
ATOM     24  O   UNL     1       9.608 -16.017  22.456  0.00  0.00    -0.496 OA
ATOM     25  H   UNL     1       9.875 -15.184  22.792  0.00  0.00    +0.293 HD
ENDBRANCH  22  24
ENDBRANCH  21  22
ENDBRANCH  16  21
BRANCH   1  26
ATOM     26  N   UNL     1       4.601 -16.126  21.784  0.00  0.00    -0.069 NA
BRANCH  26  27
ATOM     27  S   UNL     1       4.334 -15.396  20.275  0.00  0.00    +0.109 S 
ATOM     28  O   UNL     1       3.938 -13.947  20.391  0.00  0.00    -0.140 OA
ATOM     29  O   UNL     1       5.581 -15.540  19.430  0.00  0.00    -0.140 OA
BRANCH  27  30
ATOM     30  N   UNL     1       3.095 -16.299  19.458  0.00  0.00    -0.192 NA
ATOM     31  H   UNL     1       2.225 -16.237  19.986  0.00  0.00    +0.145 HD
ATOM     32  H   UNL     1       3.379 -17.276  19.384  0.00  0.00    +0.145 HD
ENDBRANCH  27  30
ENDBRANCH  26  27
ENDBRANCH   1  26
TORSDOF 8
