REMARK  Name = =
REMARK  8 active torsions:
REMARK  status: ('A' for Active; 'I' for Inactive)
REMARK    1  A    between atoms: C_1  and  N_32
REMARK    2  A    between atoms: C_22  and  C_24
REMARK    3  A    between atoms: C_23  and  S_28
REMARK    4  A    between atoms: C_24  and  C_25
REMARK    5  A    between atoms: S_28  and  C_29
REMARK    6  A    between atoms: C_29  and  O_31
REMARK    7  A    between atoms: N_32  and  S_33
REMARK    8  A    between atoms: S_33  and  N_36
REMARK                            x       y       z     vdW  Elec       q    Type
REMARK                         _______ _______ _______ _____ _____    ______ ____
ROOT
ATOM      1  C   UNL     1       4.750 -14.078  23.404  0.00  0.00    +0.093 C 
ATOM      2  C   UNL     1       4.077 -14.640  24.506  0.00  0.00    +0.019 C 
ATOM      3  C   UNL     1       3.307 -14.003  23.430  0.00  0.00    +0.022 C 
ATOM      4  C   UNL     1       2.495 -14.839  22.565  0.00  0.00    +0.006 C 
ATOM      5  C   UNL     1       3.195 -15.602  21.480  0.00  0.00    +0.000 C 
ATOM      6  C   UNL     1       1.697 -15.875  23.391  0.00  0.00    +0.026 C 
ATOM      7  C   UNL     1       0.686 -14.926  24.022  0.00  0.00    -0.026 C 
ATOM      8  C   UNL     1      -0.446 -15.333  24.528  0.00  0.00    -0.005 C 
ATOM      9  C   UNL     1       1.028 -13.496  24.034  0.00  0.00    -0.026 C 
ATOM     10  C   UNL     1       0.007 -12.650  23.889  0.00  0.00    -0.005 C 
ATOM     11  C   UNL     1       2.430 -13.019  24.198  0.00  0.00    +0.025 C 
ATOM     12  C   UNL     1       4.013 -14.902  25.644  0.00  0.00    +0.002 C 
ATOM     13  C   UNL     1       4.001 -13.348  26.173  0.00  0.00    +0.003 C 
ATOM     14  C   UNL     1       2.769 -12.694  25.598  0.00  0.00    +0.020 C 
ATOM     15  C   UNL     1       1.659 -12.959  26.545  0.00  0.00    +0.089 C 
ATOM     16  N   UNL     1       0.531 -12.217  26.587  0.00  0.00    -0.218 NA
ATOM     17  C   UNL     1       0.323 -10.892  26.852  0.00  0.00    +0.089 C 
ATOM     18  C   UNL     1       1.394  -9.887  26.797  0.00  0.00    +0.019 C 
ATOM     19  C   UNL     1       2.786 -10.549  26.960  0.00  0.00    +0.002 C 
ATOM     20  C   UNL     1       3.216 -11.215  25.726  0.00  0.00    +0.002 C 
ATOM     21  C   UNL     1       5.105 -12.636  25.475  0.00  0.00    +0.012 C 
ATOM     22  C   UNL     1       4.659 -11.187  25.497  0.00  0.00    +0.008 C 
ATOM     23  C   UNL     1       5.650 -13.063  24.191  0.00  0.00    +0.072 C 
ENDROOT
BRANCH  22  24
ATOM     24  C   UNL     1       5.588 -10.379  26.272  0.00  0.00    +0.065 C 
BRANCH  24  25
ATOM     25  C   UNL     1       6.368 -10.965  27.365  0.00  0.00    +0.151 C 
ATOM     26  O   UNL     1       6.581 -12.131  27.584  0.00  0.00    -0.296 OA
ATOM     27  C   UNL     1       7.032 -10.072  28.404  0.00  0.00    +0.072 C 
ENDBRANCH  24  25
ENDBRANCH  22  24
BRANCH  23  28
ATOM     28  S   UNL     1       6.454 -11.998  23.084  0.00  0.00    -0.070 S 
BRANCH  28  29
ATOM     29  C   UNL     1       5.523 -10.975  22.005  0.00  0.00    +0.199 C 
ATOM     30  S   UNL     1       6.280 -10.023  20.865  0.00  0.00    -0.004 S 
BRANCH  29  31
ATOM     31  O   UNL     1       4.146 -10.866  21.997  0.00  0.00    -0.496 OA
ATOM     32  H   UNL     1       3.633 -11.364  22.603  0.00  0.00    +0.293 HD
ENDBRANCH  29  31
ENDBRANCH  28  29
ENDBRANCH  23  28
BRANCH   1  33
ATOM     33  N   UNL     1       5.458 -14.702  22.380  0.00  0.00    -0.069 NA
BRANCH  33  34
ATOM     34  S   UNL     1       6.412 -16.043  22.772  0.00  0.00    +0.109 S 
ATOM     35  O   UNL     1       7.580 -15.707  23.659  0.00  0.00    -0.140 OA
ATOM     36  O   UNL     1       7.022 -16.568  21.478  0.00  0.00    -0.140 OA
BRANCH  34  37
ATOM     37  N   UNL     1       5.544 -17.348  23.465  0.00  0.00    -0.192 NA
ATOM     38  H   UNL     1       5.114 -17.045  24.339  0.00  0.00    +0.145 HD
ATOM     39  H   UNL     1       6.183 -18.121  23.651  0.00  0.00    +0.145 HD
ENDBRANCH  34  37
ENDBRANCH  33  34
ENDBRANCH   1  33
TORSDOF 8
