REMARK  Name = =
REMARK  6 active torsions:
REMARK  status: ('A' for Active; 'I' for Inactive)
REMARK    1  A    between atoms: C_3  and  C_14
REMARK    2  A    between atoms: C_10  and  C_32
REMARK    3  A    between atoms: C_17  and  O_24
REMARK    4  A    between atoms: C_19  and  O_25
REMARK    5  A    between atoms: O_25  and  N_26
REMARK    6  A    between atoms: C_33  and  S_38
REMARK                            x       y       z     vdW  Elec       q    Type
REMARK                         _______ _______ _______ _____ _____    ______ ____
ROOT
ATOM      1  N   UNL     1      -9.568  -1.649  16.865  0.00  0.00    -0.219 NA
ATOM      2  C   UNL     1      -8.941  -0.435  17.389  0.00  0.00    +0.093 C 
ATOM      3  C   UNL     1      -8.319  -0.790  18.770  0.00  0.00    +0.050 C 
ATOM      4  C   UNL     1      -9.186  -1.382  19.694  0.00  0.00    +0.029 C 
ATOM      5  C   UNL     1     -10.632  -1.316  19.018  0.00  0.00    +0.022 C 
ATOM      6  C   UNL     1     -10.444  -2.250  17.854  0.00  0.00    +0.077 C 
ATOM      7  C   UNL     1      -9.937  -3.598  18.246  0.00  0.00    +0.043 C 
ATOM      8  C   UNL     1      -9.581  -3.754  19.684  0.00  0.00    -0.025 C 
ATOM      9  C   UNL     1      -9.176  -2.612  20.407  0.00  0.00    -0.026 C 
ATOM     10  C   UNL     1      -8.884  -2.720  21.730  0.00  0.00    -0.004 C 
ATOM     11  C   UNL     1      -8.968  -3.944  22.409  0.00  0.00    -0.000 C 
ATOM     12  C   UNL     1      -9.364  -5.029  21.671  0.00  0.00    -0.000 C 
ATOM     13  C   UNL     1      -9.670  -4.935  20.315  0.00  0.00    -0.005 C 
ENDROOT
BRANCH   3  14
ATOM     14  C   UNL     1      -6.871  -0.886  18.609  0.00  0.00    +0.050 C 
ATOM     15  C   UNL     1      -6.185  -2.014  18.126  0.00  0.00    +0.136 C 
ATOM     16  C   UNL     1      -4.812  -2.078  18.037  0.00  0.00    +0.045 C 
ATOM     17  C   UNL     1      -4.011  -1.009  18.430  0.00  0.00    +0.136 C 
ATOM     18  C   UNL     1      -4.656   0.096  18.911  0.00  0.00    +0.076 C 
ATOM     19  C   UNL     1      -6.015   0.156  18.998  0.00  0.00    +0.172 C 
ATOM     20  C   UNL     1      -4.127  -3.252  17.482  0.00  0.00    +0.036 C 
ATOM     21  C   UNL     1      -4.965  -4.038  16.495  0.00  0.00    +0.052 C 
ATOM     22  C   UNL     1      -6.425  -3.987  16.736  0.00  0.00    +0.206 C 
ATOM     23  O   UNL     1      -6.873  -3.115  17.716  0.00  0.00    -0.476 OA
BRANCH  17  24
ATOM     24  O   UNL     1      -2.630  -1.014  18.361  0.00  0.00    -0.506 OA
ATOM     25  H   UNL     1      -2.180  -1.767  18.033  0.00  0.00    +0.292 HD
ENDBRANCH  17  24
BRANCH  19  26
ATOM     26  O   UNL     1      -6.565   1.346  19.523  0.00  0.00    -0.381 OA
BRANCH  26  27
ATOM     27  N   UNL     1      -5.728   2.203  20.208  0.00  0.00    -0.123 N 
ATOM     28  C   UNL     1      -5.142   1.834  21.512  0.00  0.00    +0.137 C 
ATOM     29  C   UNL     1      -4.505   3.100  22.018  0.00  0.00    +0.035 C 
ATOM     30  C   UNL     1      -4.143   3.857  20.778  0.00  0.00    +0.090 C 
ATOM     31  C   UNL     1      -5.282   3.476  19.864  0.00  0.00    +0.257 C 
ATOM     32  O   UNL     1      -5.679   4.275  18.969  0.00  0.00    -0.272 OA
ENDBRANCH  26  27
ENDBRANCH  19  26
ENDBRANCH   3  14
BRANCH  10  33
ATOM     33  C   UNL     1      -8.512  -1.585  22.577  0.00  0.00    +0.005 C 
ATOM     34  C   UNL     1      -9.553  -0.974  23.293  0.00  0.00    +0.021 C 
ATOM     35  C   UNL     1      -9.308   0.087  24.135  0.00  0.00    +0.006 C 
ATOM     36  C   UNL     1      -8.026   0.599  24.310  0.00  0.00    +0.000 C 
ATOM     37  C   UNL     1      -7.012  -0.007  23.602  0.00  0.00    +0.000 C 
ATOM     38  C   UNL     1      -7.272  -1.074  22.762  0.00  0.00    +0.000 C 
BRANCH  34  39
ATOM     39  S   UNL     1     -11.224  -1.547  23.100  0.00  0.00    -0.141 S 
ATOM     40  H   UNL     1     -11.247  -2.594  22.232  0.00  0.00    +0.107 HD
ENDBRANCH  34  39
ENDBRANCH  10  33
TORSDOF 6
