REMARK  Name = =
REMARK  1 active torsions:
REMARK  status: ('A' for Active; 'I' for Inactive)
REMARK    1  A    between atoms: C_1  and  N_9
REMARK                            x       y       z     vdW  Elec       q    Type
REMARK                         _______ _______ _______ _____ _____    ______ ____
ROOT
ATOM      1  C   UNL     1      -3.340  -6.105  30.687  0.00  0.00    +0.051 C 
ATOM      2  C   UNL     1      -3.753  -6.174  32.153  0.00  0.00    +0.016 C 
ATOM      3  C   UNL     1      -3.480  -7.685  32.024  0.00  0.00    +0.003 C 
ATOM      4  C   UNL     1      -2.404  -7.265  31.064  0.00  0.00    +0.013 C 
ATOM      5  C   UNL     1      -2.118  -8.105  29.897  0.00  0.00    +0.001 C 
ATOM      6  C   UNL     1      -0.670  -8.526  30.111  0.00  0.00    +0.000 C 
ATOM      7  C   UNL     1      -0.056  -7.380  30.886  0.00  0.00    +0.000 C 
ATOM      8  C   UNL     1      -1.160  -6.880  31.762  0.00  0.00    +0.001 C 
ENDROOT
BRANCH   1   9
ATOM      9  N   UNL     1      -2.752  -4.940  30.217  0.00  0.00    -0.322 NA
ATOM     10  H   UNL     1      -2.533  -5.045  29.226  0.00  0.00    +0.119 HD
ATOM     11  H   UNL     1      -1.894  -4.759  30.737  0.00  0.00    +0.119 HD
ENDBRANCH   1   9
TORSDOF 1
