REMARK  Name = =
REMARK  1 active torsions:
REMARK  status: ('A' for Active; 'I' for Inactive)
REMARK    1  A    between atoms: C_1  and  N_19
REMARK                            x       y       z     vdW  Elec       q    Type
REMARK                         _______ _______ _______ _____ _____    ______ ____
ROOT
ATOM      1  C   UNL     1      -3.629  -6.255  31.295  0.00  0.00    +0.051 C 
ATOM      2  C   UNL     1      -4.415  -7.544  31.255  0.00  0.00    +0.016 C 
ATOM      3  C   UNL     1      -3.096  -8.258  31.019  0.00  0.00    +0.003 C 
ATOM      4  C   UNL     1      -2.360  -6.976  30.844  0.00  0.00    +0.019 C 
ATOM      5  C   UNL     1      -2.124  -6.675  29.403  0.00  0.00    +0.017 C 
ATOM      6  C   UNL     1      -1.531  -5.305  29.142  0.00  0.00    +0.069 C 
ATOM      7  N   UNL     1      -0.478  -4.940  30.026  0.00  0.00    -0.297 NA
ATOM      8  C   UNL     1      -0.865  -5.169  31.368  0.00  0.00    +0.072 C 
ATOM      9  C   UNL     1      -1.210  -6.647  31.662  0.00  0.00    +0.058 C 
ATOM     10  C   UNL     1      -1.264  -6.663  33.113  0.00  0.00    +0.107 C 
ATOM     11  C   UNL     1      -2.322  -6.679  34.133  0.00  0.00    +0.022 C 
ATOM     12  N   UNL     1      -0.006  -6.667  33.497  0.00  0.00    -0.085 NA
ATOM     13  O   UNL     1       0.830  -6.658  32.369  0.00  0.00    -0.271 OA
ATOM     14  C   UNL     1       0.016  -7.500  31.497  0.00  0.00    +0.117 C 
ATOM     15  C   UNL     1      -0.069  -8.791  32.277  0.00  0.00    +0.032 C 
ATOM     16  C   UNL     1      -1.390  -7.677  28.606  0.00  0.00    +0.002 C 
ATOM     17  C   UNL     1      -0.317  -8.441  29.273  0.00  0.00    +0.003 C 
ATOM     18  C   UNL     1       0.583  -7.656  30.162  0.00  0.00    +0.029 C 
ATOM     19  H   UNL     1      -0.261  -3.951  29.902  0.00  0.00    +0.123 HD
ENDROOT
BRANCH   1  20
ATOM     20  N   UNL     1      -4.194  -5.352  30.281  0.00  0.00    -0.322 NA
ATOM     21  H   UNL     1      -5.035  -4.909  30.651  0.00  0.00    +0.119 HD
ATOM     22  H   UNL     1      -4.431  -5.886  29.445  0.00  0.00    +0.119 HD
ENDBRANCH   1  20
TORSDOF 1
