REMARK  Name = =
REMARK  2 active torsions:
REMARK  status: ('A' for Active; 'I' for Inactive)
REMARK    1  A    between atoms: C_1  and  N_27
REMARK    2  A    between atoms: C_23  and  C_28
REMARK                            x       y       z     vdW  Elec       q    Type
REMARK                         _______ _______ _______ _____ _____    ______ ____
ROOT
ATOM      1  C   UNL     1      -4.013  -7.444  30.453  0.00  0.00    +0.039 C 
ATOM      2  C   UNL     1      -5.175  -6.937  31.342  0.00  0.00    +0.016 C 
ATOM      3  C   UNL     1      -4.180  -7.440  32.413  0.00  0.00    +0.016 C 
ATOM      4  C   UNL     1      -3.094  -6.903  31.454  0.00  0.00    +0.019 C 
ATOM      5  C   UNL     1      -3.047  -5.385  31.453  0.00  0.00    +0.017 C 
ATOM      6  C   UNL     1      -3.266  -4.965  32.900  0.00  0.00    +0.069 C 
ATOM      7  N   UNL     1      -2.322  -5.792  33.629  0.00  0.00    -0.297 NA
ATOM      8  C   UNL     1      -1.260  -6.373  32.881  0.00  0.00    +0.072 C 
ATOM      9  C   UNL     1      -1.730  -7.323  31.745  0.00  0.00    +0.060 C 
ATOM     10  C   UNL     1      -1.485  -8.638  32.381  0.00  0.00    +0.107 C 
ATOM     11  C   UNL     1      -2.254  -9.682  33.057  0.00  0.00    +0.022 C 
ATOM     12  N   UNL     1      -0.180  -8.780  32.243  0.00  0.00    -0.085 NA
ATOM     13  O   UNL     1       0.346  -7.687  31.597  0.00  0.00    -0.268 OA
ATOM     14  C   UNL     1      -0.718  -7.447  30.669  0.00  0.00    +0.147 C 
ATOM     15  C   UNL     1      -0.850  -8.865  30.030  0.00  0.00    +0.064 C 
ATOM     16  C   UNL     1      -1.102  -8.624  28.591  0.00  0.00    +0.145 C 
ATOM     17  O   UNL     1      -1.466  -7.276  28.617  0.00  0.00    -0.351 OA
ATOM     18  C   UNL     1      -0.392  -6.727  29.506  0.00  0.00    +0.154 C 
ATOM     19  C   UNL     1       0.766  -7.430  28.898  0.00  0.00    +0.025 C 
ATOM     20  C   UNL     1       1.567  -6.973  27.962  0.00  0.00    +0.096 C 
ATOM     21  N   UNL     1       1.357  -5.685  27.487  0.00  0.00    -0.246 NA
ATOM     22  C   UNL     1       0.431  -4.988  27.999  0.00  0.00    +0.089 C 
ATOM     23  C   UNL     1      -0.495  -5.354  29.103  0.00  0.00    +0.144 C 
ATOM     24  C   UNL     1      -3.576  -4.605  30.376  0.00  0.00    +0.001 C 
ATOM     25  C   UNL     1      -2.493  -3.844  29.590  0.00  0.00    +0.002 C 
ATOM     26  C   UNL     1      -1.831  -4.820  28.681  0.00  0.00    +0.023 C 
ATOM     27  H   UNL     1      -2.848  -6.553  34.059  0.00  0.00    +0.123 HD
ENDROOT
BRANCH   1  28
ATOM     28  N   UNL     1      -4.245  -8.875  30.391  0.00  0.00    -0.323 NA
ATOM     29  H   UNL     1      -4.213  -9.183  29.419  0.00  0.00    +0.119 HD
ATOM     30  H   UNL     1      -5.161  -9.088  30.785  0.00  0.00    +0.119 HD
ENDBRANCH   1  28
BRANCH  23  31
ATOM     31  C   UNL     1       0.145  -4.403  30.120  0.00  0.00    +0.080 C 
ATOM     32  N   UNL     1       0.633  -3.667  30.895  0.00  0.00    -0.195 NA
ENDBRANCH  23  31
TORSDOF 2
