REMARK  Name = =
REMARK  4 active torsions:
REMARK  status: ('A' for Active; 'I' for Inactive)
REMARK    1  A    between atoms: C_1  and  N_35
REMARK    2  A    between atoms: N_22  and  C_38
REMARK    3  A    between atoms: C_31  and  C_36
REMARK    4  A    between atoms: C_38  and  O_39
REMARK                            x       y       z     vdW  Elec       q    Type
REMARK                         _______ _______ _______ _____ _____    ______ ____
ROOT
ATOM      1  C   UNL     1      -3.080  -6.913  32.244  0.00  0.00    +0.051 C 
ATOM      2  C   UNL     1      -2.909  -6.096  33.545  0.00  0.00    +0.016 C 
ATOM      3  C   UNL     1      -1.516  -5.904  32.909  0.00  0.00    +0.003 C 
ATOM      4  C   UNL     1      -2.127  -5.954  31.548  0.00  0.00    +0.024 C 
ATOM      5  C   UNL     1      -2.935  -4.674  31.270  0.00  0.00    +0.017 C 
ATOM      6  C   UNL     1      -3.816  -4.924  30.035  0.00  0.00    +0.069 C 
ATOM      7  N   UNL     1      -2.943  -5.009  28.979  0.00  0.00    -0.297 NA
ATOM      8  C   UNL     1      -1.994  -5.999  29.085  0.00  0.00    +0.077 C 
ATOM      9  C   UNL     1      -1.347  -6.434  30.373  0.00  0.00    +0.088 C 
ATOM     10  C   UNL     1      -1.634  -7.937  30.252  0.00  0.00    +0.079 C 
ATOM     11  C   UNL     1      -2.878  -8.645  29.825  0.00  0.00    +0.051 C 
ATOM     12  N   UNL     1      -0.565  -8.557  30.527  0.00  0.00    -0.092 NA
ATOM     13  O   UNL     1       0.467  -7.818  30.822  0.00  0.00    -0.384 OA
ATOM     14  C   UNL     1       0.118  -6.424  30.440  0.00  0.00    +0.182 C 
ATOM     15  C   UNL     1       0.964  -5.806  31.475  0.00  0.00    +0.071 C 
ATOM     16  C   UNL     1       2.269  -6.681  31.302  0.00  0.00    +0.008 C 
ATOM     17  C   UNL     1       2.371  -6.576  29.814  0.00  0.00    +0.019 C 
ATOM     18  C   UNL     1       2.869  -7.961  29.374  0.00  0.00    +0.002 C 
ATOM     19  C   UNL     1       0.997  -6.220  29.257  0.00  0.00    +0.100 C 
ATOM     20  C   UNL     1       0.839  -7.387  28.306  0.00  0.00    +0.039 C 
ATOM     21  C   UNL     1       0.951  -6.880  27.134  0.00  0.00    +0.093 C 
ATOM     22  N   UNL     1       1.170  -5.428  27.162  0.00  0.00    -0.189 NA
ATOM     23  N   UNL     1       0.966  -5.056  28.466  0.00  0.00    -0.190 NA
ATOM     24  C   UNL     1       1.455  -4.427  31.326  0.00  0.00    +0.148 C 
ATOM     25  O   UNL     1       1.507  -3.709  30.315  0.00  0.00    -0.338 OA
ATOM     26  C   UNL     1       1.268  -3.786  28.962  0.00  0.00    +0.190 C 
ATOM     27  C   UNL     1       2.630  -3.394  28.491  0.00  0.00    +0.039 C 
ATOM     28  C   UNL     1       3.005  -2.245  27.999  0.00  0.00    +0.098 C 
ATOM     29  N   UNL     1       2.073  -1.218  27.849  0.00  0.00    -0.246 NA
ATOM     30  C   UNL     1       0.890  -1.399  28.166  0.00  0.00    +0.090 C 
ATOM     31  C   UNL     1       0.302  -2.644  28.714  0.00  0.00    +0.156 C 
ATOM     32  C   UNL     1      -2.219  -3.405  31.301  0.00  0.00    +0.001 C 
ATOM     33  C   UNL     1      -1.891  -2.641  30.075  0.00  0.00    +0.002 C 
ATOM     34  C   UNL     1      -0.456  -2.201  29.940  0.00  0.00    +0.024 C 
ATOM     35  H   UNL     1      -3.486  -5.181  28.133  0.00  0.00    +0.123 HD
ENDROOT
BRANCH   1  36
ATOM     36  N   UNL     1      -2.639  -8.225  32.574  0.00  0.00    -0.322 NA
ATOM     37  H   UNL     1      -3.396  -8.733  33.032  0.00  0.00    +0.119 HD
ATOM     38  H   UNL     1      -1.839  -8.166  33.204  0.00  0.00    +0.119 HD
ENDBRANCH   1  36
BRANCH  31  39
ATOM     39  C   UNL     1      -0.732  -2.977  27.696  0.00  0.00    +0.081 C 
ATOM     40  N   UNL     1      -1.538  -3.257  26.894  0.00  0.00    -0.195 NA
ENDBRANCH  31  39
BRANCH  22  41
ATOM     41  C   UNL     1       1.500  -4.853  25.881  0.00  0.00    +0.231 C 
BRANCH  41  42
ATOM     42  O   UNL     1       1.367  -3.548  25.666  0.00  0.00    -0.366 OA
ATOM     43  H   UNL     1       1.633  -3.341  24.756  0.00  0.00    +0.212 HD
ENDBRANCH  41  42
ENDBRANCH  22  41
TORSDOF 4
