REMARK  Name = =
REMARK  4 active torsions:
REMARK  status: ('A' for Active; 'I' for Inactive)
REMARK    1  A    between atoms: C_1  and  N_42
REMARK    2  A    between atoms: N_29  and  C_45
REMARK    3  A    between atoms: C_38  and  C_43
REMARK    4  A    between atoms: C_45  and  O_46
REMARK                            x       y       z     vdW  Elec       q    Type
REMARK                         _______ _______ _______ _____ _____    ______ ____
ROOT
ATOM      1  C   UNL     1       2.086  -4.078  20.036  0.00  0.00    +0.053 C 
ATOM      2  C   UNL     1       1.520  -3.441  21.282  0.00  0.00    +0.016 C 
ATOM      3  C   UNL     1       2.768  -3.999  21.986  0.00  0.00    +0.005 C 
ATOM      4  C   UNL     1       2.881  -5.005  20.935  0.00  0.00    +0.040 C 
ATOM      5  C   UNL     1       2.213  -6.359  21.120  0.00  0.00    +0.046 C 
ATOM      6  C   UNL     1       3.013  -7.208  20.253  0.00  0.00    +0.173 C 
ATOM      7  O   UNL     1       3.940  -6.435  19.557  0.00  0.00    -0.346 OA
ATOM      8  C   UNL     1       4.256  -5.383  20.390  0.00  0.00    +0.096 C 
ATOM      9  C   UNL     1       4.550  -4.283  19.350  0.00  0.00    +0.027 C 
ATOM     10  C   UNL     1       5.882  -4.676  18.701  0.00  0.00    +0.002 C 
ATOM     11  C   UNL     1       6.910  -4.426  19.741  0.00  0.00    +0.000 C 
ATOM     12  C   UNL     1       6.456  -4.654  21.142  0.00  0.00    +0.003 C 
ATOM     13  C   UNL     1       5.306  -5.594  21.375  0.00  0.00    +0.035 C 
ATOM     14  N   UNL     1       3.771  -8.236  20.770  0.00  0.00    -0.275 NA
ATOM     15  C   UNL     1       4.827  -8.100  21.613  0.00  0.00    +0.079 C 
ATOM     16  C   UNL     1       5.685  -6.951  21.876  0.00  0.00    +0.089 C 
ATOM     17  C   UNL     1       6.947  -7.294  21.110  0.00  0.00    +0.079 C 
ATOM     18  C   UNL     1       7.091  -7.782  19.715  0.00  0.00    +0.051 C 
ATOM     19  N   UNL     1       7.952  -7.187  21.868  0.00  0.00    -0.092 NA
ATOM     20  O   UNL     1       7.591  -6.820  23.081  0.00  0.00    -0.384 OA
ATOM     21  C   UNL     1       6.122  -6.930  23.291  0.00  0.00    +0.182 C 
ATOM     22  C   UNL     1       5.966  -5.794  24.190  0.00  0.00    +0.071 C 
ATOM     23  C   UNL     1       7.183  -6.130  25.134  0.00  0.00    +0.008 C 
ATOM     24  C   UNL     1       7.115  -7.664  25.203  0.00  0.00    +0.019 C 
ATOM     25  C   UNL     1       8.456  -8.277  25.019  0.00  0.00    +0.002 C 
ATOM     26  C   UNL     1       6.036  -8.064  24.213  0.00  0.00    +0.100 C 
ATOM     27  C   UNL     1       6.633  -9.253  23.491  0.00  0.00    +0.039 C 
ATOM     28  C   UNL     1       6.008 -10.324  23.901  0.00  0.00    +0.093 C 
ATOM     29  N   UNL     1       4.992  -9.950  24.875  0.00  0.00    -0.189 NA
ATOM     30  N   UNL     1       4.953  -8.589  24.846  0.00  0.00    -0.190 NA
ATOM     31  C   UNL     1       4.821  -5.662  25.102  0.00  0.00    +0.148 C 
ATOM     32  O   UNL     1       4.458  -6.607  25.857  0.00  0.00    -0.338 OA
ATOM     33  C   UNL     1       4.044  -7.903  25.710  0.00  0.00    +0.190 C 
ATOM     34  C   UNL     1       4.271  -8.344  27.140  0.00  0.00    +0.039 C 
ATOM     35  C   UNL     1       3.385  -8.809  27.959  0.00  0.00    +0.098 C 
ATOM     36  N   UNL     1       2.068  -8.938  27.569  0.00  0.00    -0.246 NA
ATOM     37  C   UNL     1       1.674  -8.607  26.446  0.00  0.00    +0.090 C 
ATOM     38  C   UNL     1       2.575  -8.011  25.396  0.00  0.00    +0.156 C 
ATOM     39  C   UNL     1       2.112  -6.651  22.570  0.00  0.00    +0.004 C 
ATOM     40  C   UNL     1       1.512  -7.919  23.031  0.00  0.00    +0.002 C 
ATOM     41  C   UNL     1       2.145  -8.656  24.150  0.00  0.00    +0.024 C 
ATOM     42  H   UNL     1       4.138  -8.733  19.958  0.00  0.00    +0.125 HD
ENDROOT
BRANCH   1  43
ATOM     43  N   UNL     1       1.062  -4.806  19.299  0.00  0.00    -0.322 NA
ATOM     44  H   UNL     1       1.475  -5.223  18.465  0.00  0.00    +0.119 HD
ATOM     45  H   UNL     1       0.319  -4.163  19.025  0.00  0.00    +0.119 HD
ENDBRANCH   1  43
BRANCH  38  46
ATOM     46  C   UNL     1       2.016  -6.577  25.512  0.00  0.00    +0.081 C 
ATOM     47  N   UNL     1       1.585  -5.489  25.588  0.00  0.00    -0.195 NA
ENDBRANCH  38  46
BRANCH  29  48
ATOM     48  C   UNL     1       4.342 -11.053  25.549  0.00  0.00    +0.231 C 
BRANCH  48  49
ATOM     49  O   UNL     1       3.624 -11.868  24.663  0.00  0.00    -0.366 OA
ATOM     50  H   UNL     1       3.206 -12.592  25.156  0.00  0.00    +0.212 HD
ENDBRANCH  48  49
ENDBRANCH  29  48
TORSDOF 4
