MODEL 1
REMARK VINA RESULT:   -13.268      0.000      0.000
REMARK INTER + INTRA:         -21.900
REMARK INTER:                 -20.636
REMARK INTRA:                  -1.264
REMARK UNBOUND:                -1.264
REMARK  Name = =
REMARK  10 active torsions:
REMARK  status: ('A' for Active; 'I' for Inactive)
REMARK    1  A    between atoms: C_1  and  C_7
REMARK    2  A    between atoms: C_4  and  O_22
REMARK    3  A    between atoms: C_7  and  O_9
REMARK    4  A    between atoms: O_9  and  C_10
REMARK    5  A    between atoms: C_11  and  S_16
REMARK    6  A    between atoms: S_16  and  N_19
REMARK    7  A    between atoms: O_22  and  C_23
REMARK    8  A    between atoms: C_29  and  N_33
REMARK    9  A    between atoms: N_33  and  C_34
REMARK   10  A    between atoms: C_37  and  O_40
REMARK                            x       y       z     vdW  Elec       q    Type
REMARK                         _______ _______ _______ _____ _____    ______ ____
ROOT
ATOM      1  C   UNL     1     -11.519 -44.540  28.838  0.00  0.00    +0.076 C 
ATOM      2  C   UNL     1     -12.523 -45.085  28.072  0.00  0.00    +0.010 C 
ATOM      3  C   UNL     1     -13.188 -44.355  27.117  0.00  0.00    +0.038 C 
ATOM      4  C   UNL     1     -12.882 -43.024  26.874  0.00  0.00    +0.147 C 
ATOM      5  C   UNL     1     -11.879 -42.476  27.634  0.00  0.00    +0.038 C 
ATOM      6  C   UNL     1     -11.207 -43.213  28.599  0.00  0.00    +0.010 C 
ENDROOT
BRANCH   1   7
ATOM      7  C   UNL     1     -10.812 -45.293  29.863  0.00  0.00    +0.346 C 
ATOM      8  O   UNL     1     -10.143 -46.297  29.517  0.00  0.00    -0.244 OA
BRANCH   7   9
ATOM      9  O   UNL     1     -10.832 -44.966  31.207  0.00  0.00    -0.420 OA
BRANCH   9  10
ATOM     10  C   UNL     1      -9.776 -44.295  31.818  0.00  0.00    +0.167 C 
ATOM     11  C   UNL     1     -10.065 -43.112  32.454  0.00  0.00    +0.160 C 
ATOM     12  C   UNL     1      -9.027 -42.412  33.076  0.00  0.00    +0.023 C 
ATOM     13  C   UNL     1      -7.730 -42.889  33.058  0.00  0.00    +0.002 C 
ATOM     14  C   UNL     1      -7.470 -44.084  32.411  0.00  0.00    +0.003 C 
ATOM     15  C   UNL     1      -8.473 -44.799  31.788  0.00  0.00    +0.039 C 
BRANCH  11  16
ATOM     16  S   UNL     1     -11.670 -42.508  32.502  0.00  0.00    +0.079 S 
ATOM     17  O   UNL     1     -11.924 -41.656  33.741  0.00  0.00    -0.150 OA
ATOM     18  O   UNL     1     -11.881 -41.543  31.337  0.00  0.00    -0.150 OA
BRANCH  16  19
ATOM     19  N   UNL     1     -12.909 -43.672  32.408  0.00  0.00    -0.178 N 
ATOM     20  C   UNL     1     -14.255 -43.154  32.386  0.00  0.00    +0.319 C 
ATOM     21  O   UNL     1     -14.482 -41.901  32.438  0.00  0.00    -0.264 OA
ATOM     22  H   UNL     1     -12.718 -44.638  32.370  0.00  0.00    +0.177 HD
ENDBRANCH  16  19
ENDBRANCH  11  16
ENDBRANCH   9  10
ENDBRANCH   7   9
ENDBRANCH   1   7
BRANCH   4  23
ATOM     23  O   UNL     1     -13.529 -42.267  25.930  0.00  0.00    -0.436 OA
BRANCH  23  24
ATOM     24  C   UNL     1     -14.870 -42.184  25.691  0.00  0.00    +0.231 C 
ATOM     25  N   UNL     1     -15.684 -42.045  26.749  0.00  0.00    -0.192 NA
ATOM     26  C   UNL     1     -17.010 -41.952  26.631  0.00  0.00    +0.167 C 
ATOM     27  N   UNL     1     -17.744 -41.813  27.752  0.00  0.00    -0.225 NA
ATOM     28  C   UNL     1     -19.071 -41.715  27.683  0.00  0.00    +0.102 C 
ATOM     29  C   UNL     1     -19.715 -41.754  26.449  0.00  0.00    +0.035 C 
ATOM     30  C   UNL     1     -18.992 -41.896  25.274  0.00  0.00    +0.053 C 
ATOM     31  C   UNL     1     -17.619 -41.995  25.379  0.00  0.00    +0.049 C 
ATOM     32  C   UNL     1     -16.787 -42.138  24.297  0.00  0.00    +0.009 C 
ATOM     33  C   UNL     1     -15.398 -42.235  24.424  0.00  0.00    +0.058 C 
BRANCH  30  34
ATOM     34  N   UNL     1     -19.632 -41.885  24.016  0.00  0.00    -0.312 N 
ATOM     35  H   UNL     1     -19.914 -42.743  23.625  0.00  0.00    +0.152 HD
BRANCH  34  36
ATOM     36  C   UNL     1     -19.886 -40.698  23.294  0.00  0.00    +0.049 C 
ATOM     37  C   UNL     1     -18.991 -40.337  22.312  0.00  0.00    +0.018 C 
ATOM     38  C   UNL     1     -19.169 -39.211  21.526  0.00  0.00    +0.038 C 
ATOM     39  C   UNL     1     -20.259 -38.413  21.710  0.00  0.00    +0.134 C 
ATOM     40  C   UNL     1     -21.154 -38.776  22.694  0.00  0.00    +0.038 C 
ATOM     41  C   UNL     1     -20.983 -39.914  23.493  0.00  0.00    +0.018 C 
BRANCH  39  42
ATOM     42  O   UNL     1     -20.478 -37.275  20.947  0.00  0.00    -0.506 OA
ATOM     43  H   UNL     1     -20.839 -36.506  21.344  0.00  0.00    +0.292 HD
ENDBRANCH  39  42
ENDBRANCH  34  36
ENDBRANCH  30  34
ENDBRANCH  23  24
ENDBRANCH   4  23
TORSDOF 10
ENDMDL
