REMARK  Name = =
REMARK  5 active torsions:
REMARK  status: ('A' for Active; 'I' for Inactive)
REMARK    1  A    between atoms: C_2  and  C_8
REMARK    2  A    between atoms: C_2  and  C_16
REMARK    3  A    between atoms: C_16  and  P_18
REMARK    4  A    between atoms: P_18  and  O_20
REMARK    5  A    between atoms: P_18  and  O_21
REMARK                            x       y       z     vdW  Elec       q    Type
REMARK                         _______ _______ _______ _____ _____    ______ ____
ROOT
ATOM      1  O   UNL     1     -15.070 -43.398  25.285  0.00  0.00    -0.443 OA
ATOM      2  C   UNL     1     -15.187 -42.667  26.491  0.00  0.00    +0.187 C 
ATOM      3  C   UNL     1     -14.520 -41.355  26.331  0.00  0.00    +0.075 C 
ATOM      4  C   UNL     1     -14.932 -40.673  25.056  0.00  0.00    -0.015 C 
ATOM      5  C   UNL     1     -15.366 -41.353  24.021  0.00  0.00    +0.077 C 
ATOM      6  C   UNL     1     -15.458 -42.803  24.094  0.00  0.00    +0.341 C 
ATOM      7  O   UNL     1     -15.875 -43.428  23.091  0.00  0.00    -0.245 OA
ENDROOT
BRANCH   2   8
ATOM      8  C   UNL     1     -14.508 -43.485  27.540  0.00  0.00    +0.060 C 
ATOM      9  C   UNL     1     -14.704 -43.240  28.819  0.00  0.00    +0.045 C 
ATOM     10  C   UNL     1     -14.051 -44.023  29.878  0.00  0.00    +0.196 C 
ATOM     11  O   UNL     1     -14.239 -43.789  31.086  0.00  0.00    -0.287 OA
ATOM     12  C   UNL     1     -13.165 -45.099  29.502  0.00  0.00    +0.045 C 
ATOM     13  C   UNL     1     -12.939 -45.382  28.237  0.00  0.00    +0.045 C 
ATOM     14  C   UNL     1     -13.602 -44.585  27.208  0.00  0.00    +0.195 C 
ATOM     15  O   UNL     1     -13.365 -44.884  26.002  0.00  0.00    -0.287 OA
ENDBRANCH   2   8
BRANCH   2  16
ATOM     16  C   UNL     1     -16.623 -42.564  26.833  0.00  0.00    +0.098 C 
ATOM     17  C   UNL     1     -17.501 -42.806  25.888  0.00  0.00    +0.007 C 
BRANCH  16  18
ATOM     18  P   UNL     1     -17.248 -42.140  28.441  0.00  0.00    +0.359 P 
ATOM     19  O   UNL     1     -16.880 -40.673  28.686  0.00  0.00    -0.254 OA
BRANCH  18  20
ATOM     20  O   UNL     1     -16.685 -43.112  29.663  0.00  0.00    -0.321 OA
ATOM     21  H   UNL     1     -15.716 -43.075  29.685  0.00  0.00    +0.220 HD
ENDBRANCH  18  20
BRANCH  18  22
ATOM     22  O   UNL     1     -18.940 -42.174  28.366  0.00  0.00    -0.321 OA
ATOM     23  H   UNL     1     -19.243 -41.599  27.646  0.00  0.00    +0.220 HD
ENDBRANCH  18  22
ENDBRANCH  16  18
ENDBRANCH   2  16
TORSDOF 5
