MODEL 1
REMARK VINA RESULT:    -6.345      0.000      0.000
REMARK INTER + INTRA:          -9.774
REMARK INTER:                  -8.941
REMARK INTRA:                  -0.833
REMARK UNBOUND:                -0.833
REMARK  Name = =
REMARK  9 active torsions:
REMARK  status: ('A' for Active; 'I' for Inactive)
REMARK    1  A    between atoms: C_1  and  C_22
REMARK    2  A    between atoms: C_2  and  C_26
REMARK    3  A    between atoms: C_4  and  N_7
REMARK    4  A    between atoms: C_5  and  C_12
REMARK    5  A    between atoms: N_7  and  O_11
REMARK    6  A    between atoms: C_14  and  C_17
REMARK    7  A    between atoms: C_17  and  O_19
REMARK    8  A    between atoms: C_21  and  C_23
REMARK    9  A    between atoms: C_23  and  O_25
REMARK                            x       y       z     vdW  Elec       q    Type
REMARK                         _______ _______ _______ _____ _____    ______ ____
ROOT
ATOM      1  C   UNL     1      53.680 164.494  41.179  0.00  0.00    +0.017 C 
ATOM      2  C   UNL     1      54.731 165.254  41.119  0.00  0.00    +0.068 C 
ATOM      3  C   UNL     1      54.471 166.606  40.772  0.00  0.00    +0.027 C 
ATOM      4  C   UNL     1      53.154 167.002  40.549  0.00  0.00    +0.080 C 
ATOM      5  C   UNL     1      52.033 166.113  40.679  0.00  0.00    +0.001 C 
ATOM      6  C   UNL     1      52.379 164.706  41.033  0.00  0.00    -0.004 C 
ENDROOT
BRANCH   4   7
ATOM      7  N   UNL     1      52.911 168.202  39.867  0.00  0.00    -0.134 N 
ATOM      8  C   UNL     1      52.754 169.472  40.431  0.00  0.00    +0.327 C 
ATOM      9  O   UNL     1      52.910 170.485  39.564  0.00  0.00    -0.250 OA
ATOM     10  N   UNL     1      52.477 169.813  41.739  0.00  0.00    -0.311 N 
ATOM     11  H   UNL     1      52.353 169.108  42.416  0.00  0.00    +0.147 HD
ATOM     12  H   UNL     1      52.402 170.761  41.996  0.00  0.00    +0.147 HD
BRANCH   7  13
ATOM     13  O   UNL     1      52.785 168.158  38.440  0.00  0.00    -0.287 OA
ATOM     14  H   UNL     1      52.450 169.009  38.118  0.00  0.00    +0.242 HD
ENDBRANCH   7  13
ENDBRANCH   4   7
BRANCH   5  15
ATOM     15  C   UNL     1      50.675 166.408  40.555  0.00  0.00    +0.068 C 
ATOM     16  C   UNL     1      49.756 165.261  40.261  0.00  0.00    -0.011 C 
ATOM     17  C   UNL     1      48.597 165.369  41.175  0.00  0.00    +0.072 C 
ATOM     18  C   UNL     1      48.935 166.472  41.896  0.00  0.00    +0.002 C 
ATOM     19  C   UNL     1      49.940 167.140  41.724  0.00  0.00    -0.017 C 
BRANCH  17  20
ATOM     20  C   UNL     1      47.519 164.420  41.029  0.00  0.00    +0.338 C 
ATOM     21  O   UNL     1      47.843 163.601  39.962  0.00  0.00    -0.245 OA
BRANCH  20  22
ATOM     22  O   UNL     1      46.386 164.148  41.599  0.00  0.00    -0.477 OA
ATOM     23  H   UNL     1      46.361 163.577  42.342  0.00  0.00    +0.295 HD
ENDBRANCH  20  22
ENDBRANCH  17  20
ENDBRANCH   5  15
BRANCH   1  26
ATOM     24  O   UNL     1      54.239 162.854  42.814  0.00  0.00    -0.338 OA
ATOM     25  C   UNL     1      53.387 162.094  42.222  0.00  0.00    +0.245 C 
ATOM     26  C   UNL     1      54.085 162.964  41.303  0.00  0.00    +0.177 C 
BRANCH  25  27
ATOM     27  C   UNL     1      53.505 160.618  41.918  0.00  0.00    +0.344 C 
ATOM     28  O   UNL     1      53.774 159.660  41.513  0.00  0.00    -0.247 OA
BRANCH  27  29
ATOM     29  O   UNL     1      52.347 160.190  43.034  0.00  0.00    -0.478 OA
ATOM     30  H   UNL     1      51.489 160.562  42.984  0.00  0.00    +0.295 HD
ENDBRANCH  27  29
ENDBRANCH  25  27
ENDBRANCH   1  26
BRANCH   2  31
ATOM     31  C   UNL     1      56.119 164.791  41.320  0.00  0.00    +0.100 C 
ATOM     32  N   UNL     1      57.227 164.431  41.476  0.00  0.00    -0.191 NA
ENDBRANCH   2  31
TORSDOF 9
ENDMDL
