MODEL 1
REMARK VINA RESULT:    -6.322      0.000      0.000
REMARK INTER + INTRA:         -10.888
REMARK INTER:                 -10.017
REMARK INTRA:                  -0.871
REMARK UNBOUND:                -0.871
REMARK  Name = =
REMARK  14 active torsions:
REMARK  status: ('A' for Active; 'I' for Inactive)
REMARK    1  A    between atoms: C_1  and  S_19
REMARK    2  A    between atoms: C_1  and  O_31
REMARK    3  A    between atoms: S_19  and  N_20
REMARK    4  A    between atoms: N_22  and  C_23
REMARK    5  A    between atoms: N_22  and  O_33
REMARK    6  A    between atoms: C_23  and  P_24
REMARK    7  A    between atoms: C_23  and  C_29
REMARK    8  A    between atoms: P_24  and  O_25
REMARK    9  A    between atoms: P_24  and  O_27
REMARK   10  A    between atoms: P_24  and  O_28
REMARK   11  A    between atoms: O_25  and  O_26
REMARK   12  A    between atoms: O_31  and  C_32
REMARK   13  A    between atoms: C_32  and  O_33
REMARK   14  A    between atoms: C_32  and  C_34
REMARK                            x       y       z     vdW  Elec       q    Type
REMARK                         _______ _______ _______ _____ _____    ______ ____
ROOT
ATOM      1  C   UNL     1      58.662 161.375  40.111  0.00  0.00    +0.154 C 
ATOM      2  C   UNL     1      59.786 161.287  41.250  0.00  0.00    +0.042 C 
ATOM      3  C   UNL     1      60.343 162.635  41.443  0.00  0.00    +0.004 C 
ATOM      4  C   UNL     1      59.631 163.838  41.008  0.00  0.00    +0.004 C 
ATOM      5  C   UNL     1      58.208 163.745  40.687  0.00  0.00    +0.021 C 
ATOM      6  C   UNL     1      57.229 164.687  41.124  0.00  0.00    +0.009 C 
ATOM      7  C   UNL     1      56.378 164.292  42.322  0.00  0.00    +0.026 C 
ATOM      8  C   UNL     1      55.805 162.948  42.011  0.00  0.00    -0.024 C 
ATOM      9  C   UNL     1      54.555 162.584  42.180  0.00  0.00    +0.033 C 
ATOM     10  C   UNL     1      54.101 161.233  41.833  0.00  0.00    +0.173 C 
ATOM     11  O   UNL     1      52.987 160.846  42.204  0.00  0.00    -0.291 OA
ATOM     12  C   UNL     1      54.990 160.325  41.033  0.00  0.00    +0.074 C 
ATOM     13  C   UNL     1      56.376 160.553  41.636  0.00  0.00    +0.034 C 
ATOM     14  C   UNL     1      56.726 161.934  41.436  0.00  0.00    -0.031 C 
ATOM     15  C   UNL     1      57.747 162.292  40.764  0.00  0.00    -0.015 C 
ATOM     16  C   UNL     1      59.901 164.931  42.002  0.00  0.00    +0.000 C 
ATOM     17  C   UNL     1      60.973 164.405  42.942  0.00  0.00    +0.000 C 
ATOM     18  C   UNL     1      60.888 162.876  42.833  0.00  0.00    +0.000 C 
ENDROOT
BRANCH   1  19
ATOM     19  S   UNL     1      58.446 159.943  39.474  0.00  0.00    -0.069 S 
ATOM     20  H   UNL     1      58.575 160.013  38.123  0.00  0.00    +0.114 HD
BRANCH  19  21
ATOM     21  N   UNL     1      59.718 158.833  40.163  0.00  0.00    +0.001 NA
ATOM     22  O   UNL     1      59.281 157.842  40.655  0.00  0.00    -0.089 OA
ENDBRANCH  19  21
ENDBRANCH   1  19
BRANCH   1  23
ATOM     23  O   UNL     1      59.428 162.231  39.214  0.00  0.00    -0.314 OA
BRANCH  23  24
ATOM     24  C   UNL     1      59.891 161.812  37.995  0.00  0.00    +0.320 C 
BRANCH  24  25
ATOM     25  C   UNL     1      61.223 161.168  37.918  0.00  0.00    +0.270 C 
ATOM     26  O   UNL     1      62.189 161.637  38.564  0.00  0.00    -0.283 OA
ENDBRANCH  24  25
BRANCH  24  27
ATOM     27  O   UNL     1      59.194 161.972  36.968  0.00  0.00    -0.249 OA
BRANCH  27  28
ATOM     28  N   UNL     1      60.121 163.506  37.210  0.00  0.00    -0.174 NA
ATOM     29  H   UNL     1      60.614 163.324  38.085  0.00  0.00    +0.156 HD
BRANCH  28  30
ATOM     30  C   UNL     1      61.089 164.286  36.470  0.00  0.00    +0.180 C 
BRANCH  30  31
ATOM     31  P   UNL     1      60.157 165.110  35.176  0.00  0.00    +0.200 P 
ATOM     32  H   UNL     1      59.440 163.931  35.137  0.00  0.00    +0.136 HD
BRANCH  31  33
ATOM     33  O   UNL     1      61.363 165.409  34.016  0.00  0.00    -0.341 OA
ATOM     34  H   UNL     1      60.957 165.478  33.138  0.00  0.00    +0.218 HD
ENDBRANCH  31  33
BRANCH  31  35
ATOM     35  O   UNL     1      59.212 163.857  34.625  0.00  0.00    -0.341 OA
ATOM     36  H   UNL     1      59.754 163.251  34.096  0.00  0.00    +0.218 HD
ENDBRANCH  31  35
BRANCH  31  37
ATOM     37  O   UNL     1      58.846 165.470  34.619  0.00  0.00    -0.176 OA
BRANCH  37  38
ATOM     38  O   UNL     1      59.985 166.448  34.153  0.00  0.00    -0.244 OA
ATOM     39  H   UNL     1      59.642 167.355  34.125  0.00  0.00    +0.254 HD
ENDBRANCH  37  38
ENDBRANCH  31  37
ENDBRANCH  30  31
BRANCH  30  40
ATOM     40  C   UNL     1      61.740 165.341  37.263  0.00  0.00    +0.002 C 
ATOM     41  C   UNL     1      61.983 165.200  38.549  0.00  0.00    -0.003 C 
ENDBRANCH  30  40
ENDBRANCH  28  30
ENDBRANCH  27  28
ENDBRANCH  24  27
ENDBRANCH  23  24
ENDBRANCH   1  23
TORSDOF 14
ENDMDL
