REMARK  Name = =
REMARK  2 active torsions:
REMARK  status: ('A' for Active; 'I' for Inactive)
REMARK    1  A    between atoms: C_2  and  O_8
REMARK    2  A    between atoms: C_5  and  O_7
REMARK                            x       y       z     vdW  Elec       q    Type
REMARK                         _______ _______ _______ _____ _____    ______ ____
ROOT
ATOM      1  C   UNL     1      -4.503  -3.750  32.700  0.00  0.00    +0.040 C 
ATOM      2  C   UNL     1      -4.333  -2.879  31.642  0.00  0.00    +0.134 C 
ATOM      3  C   UNL     1      -3.999  -3.447  30.429  0.00  0.00    +0.040 C 
ATOM      4  C   UNL     1      -3.842  -4.811  30.274  0.00  0.00    +0.040 C 
ATOM      5  C   UNL     1      -4.014  -5.669  31.338  0.00  0.00    +0.134 C 
ATOM      6  C   UNL     1      -4.348  -5.115  32.557  0.00  0.00    +0.040 C 
ENDROOT
BRANCH   5   7
ATOM      7  O   UNL     1      -3.852  -7.039  31.165  0.00  0.00    -0.506 OA
ATOM      8  H   UNL     1      -3.625  -7.381  30.323  0.00  0.00    +0.292 HD
ENDBRANCH   5   7
BRANCH   2   9
ATOM      9  O   UNL     1      -4.488  -1.503  31.780  0.00  0.00    -0.506 OA
ATOM     10  H   UNL     1      -4.715  -1.138  32.613  0.00  0.00    +0.292 HD
ENDBRANCH   2   9
TORSDOF 2
