REMARK  Name = =
REMARK  3 active torsions:
REMARK  status: ('A' for Active; 'I' for Inactive)
REMARK    1  A    between atoms: N_1  and  O_18
REMARK    2  A    between atoms: O_18  and  C_20
REMARK    3  A    between atoms: C_23  and  O_25
REMARK                            x       y       z     vdW  Elec       q    Type
REMARK                         _______ _______ _______ _____ _____    ______ ____
ROOT
ATOM      1  N   UNL     1      -5.690  -1.971  33.121  0.00  0.00    -0.195 N 
ATOM      2  C   UNL     1      -6.648  -1.002  32.715  0.00  0.00    +0.093 C 
ATOM      3  C   UNL     1      -6.174   0.332  32.441  0.00  0.00    +0.020 C 
ATOM      4  C   UNL     1      -7.137   1.144  31.663  0.00  0.00    +0.002 C 
ATOM      5  C   UNL     1      -8.409   0.705  31.368  0.00  0.00    +0.000 C 
ATOM      6  C   UNL     1      -8.881  -0.634  31.772  0.00  0.00    +0.001 C 
ATOM      7  C   UNL     1      -7.979  -1.446  32.466  0.00  0.00    +0.015 C 
ATOM      8  C   UNL     1      -8.398  -2.699  32.884  0.00  0.00    -0.019 C 
ATOM      9  C   UNL     1      -9.661  -3.113  32.615  0.00  0.00    -0.004 C 
ATOM     10  C   UNL     1     -10.556  -2.327  31.935  0.00  0.00    -0.000 C 
ATOM     11  C   UNL     1     -10.158  -1.075  31.510  0.00  0.00    +0.000 C 
ATOM     12  C   UNL     1      -7.485  -3.572  33.610  0.00  0.00    +0.054 C 
ATOM     13  C   UNL     1      -6.181  -2.985  34.003  0.00  0.00    +0.149 C 
ATOM     14  C   UNL     1      -9.261   1.524  30.659  0.00  0.00    +0.000 C 
ATOM     15  C   UNL     1      -8.892   2.799  30.216  0.00  0.00    +0.000 C 
ATOM     16  C   UNL     1      -7.611   3.194  30.533  0.00  0.00    +0.000 C 
ATOM     17  C   UNL     1      -6.739   2.412  31.234  0.00  0.00    +0.000 C 
ENDROOT
BRANCH   1  18
ATOM     18  O   UNL     1      -4.896  -2.411  32.124  0.00  0.00    -0.375 OA
BRANCH  18  20
ATOM     19  C   UNL     1      -4.016  -4.419  33.101  0.00  0.00    +0.043 C 
ATOM     20  C   UNL     1      -4.375  -3.678  31.991  0.00  0.00    +0.173 C 
ATOM     21  C   UNL     1      -4.185  -4.274  30.762  0.00  0.00    +0.043 C 
ATOM     22  C   UNL     1      -3.659  -5.551  30.660  0.00  0.00    +0.040 C 
ATOM     23  C   UNL     1      -3.313  -6.259  31.787  0.00  0.00    +0.134 C 
ATOM     24  C   UNL     1      -3.489  -5.697  33.012  0.00  0.00    +0.040 C 
BRANCH  23  25
ATOM     25  O   UNL     1      -2.781  -7.549  31.701  0.00  0.00    -0.506 OA
ATOM     26  H   UNL     1      -2.654  -7.949  30.863  0.00  0.00    +0.292 HD
ENDBRANCH  23  25
ENDBRANCH  18  20
ENDBRANCH   1  18
TORSDOF 3
