REMARK  Name = =
REMARK  4 active torsions:
REMARK  status: ('A' for Active; 'I' for Inactive)
REMARK    1  A    between atoms: N_1  and  O_18
REMARK    2  A    between atoms: O_18  and  C_20
REMARK    3  A    between atoms: C_19  and  N_25
REMARK    4  A    between atoms: C_23  and  O_30
REMARK                            x       y       z     vdW  Elec       q    Type
REMARK                         _______ _______ _______ _____ _____    ______ ____
ROOT
ATOM      1  N   UNL     1     -10.975  -5.857  20.505  0.00  0.00    -0.195 N 
ATOM      2  C   UNL     1     -11.176  -4.564  21.038  0.00  0.00    +0.093 C 
ATOM      3  C   UNL     1     -10.180  -4.155  22.026  0.00  0.00    +0.020 C 
ATOM      4  C   UNL     1     -10.645  -3.518  23.271  0.00  0.00    +0.002 C 
ATOM      5  C   UNL     1     -11.959  -3.268  23.529  0.00  0.00    +0.000 C 
ATOM      6  C   UNL     1     -12.967  -3.648  22.551  0.00  0.00    +0.001 C 
ATOM      7  C   UNL     1     -12.583  -4.268  21.352  0.00  0.00    +0.015 C 
ATOM      8  C   UNL     1     -13.502  -4.644  20.394  0.00  0.00    -0.019 C 
ATOM      9  C   UNL     1     -14.824  -4.391  20.649  0.00  0.00    -0.004 C 
ATOM     10  C   UNL     1     -15.244  -3.785  21.812  0.00  0.00    -0.000 C 
ATOM     11  C   UNL     1     -14.298  -3.413  22.769  0.00  0.00    +0.000 C 
ATOM     12  C   UNL     1     -12.989  -5.288  19.170  0.00  0.00    +0.054 C 
ATOM     13  C   UNL     1     -11.965  -6.312  19.611  0.00  0.00    +0.149 C 
ATOM     14  C   UNL     1     -12.349  -2.668  24.700  0.00  0.00    +0.000 C 
ATOM     15  C   UNL     1     -11.378  -2.307  25.645  0.00  0.00    +0.000 C 
ATOM     16  C   UNL     1     -10.044  -2.547  25.414  0.00  0.00    +0.000 C 
ATOM     17  C   UNL     1      -9.689  -3.145  24.237  0.00  0.00    +0.000 C 
ENDROOT
BRANCH   1  18
ATOM     18  O   UNL     1      -9.732  -6.320  20.399  0.00  0.00    -0.374 OA
BRANCH  18  20
ATOM     19  C   UNL     1      -8.538  -7.553  18.774  0.00  0.00    +0.089 C 
ATOM     20  C   UNL     1      -8.894  -6.332  19.305  0.00  0.00    +0.186 C 
ATOM     21  C   UNL     1      -8.463  -5.123  18.807  0.00  0.00    +0.045 C 
ATOM     22  C   UNL     1      -7.625  -5.148  17.711  0.00  0.00    +0.040 C 
ATOM     23  C   UNL     1      -7.234  -6.346  17.136  0.00  0.00    +0.135 C 
ATOM     24  C   UNL     1      -7.693  -7.532  17.672  0.00  0.00    +0.054 C 
BRANCH  19  25
ATOM     25  N   UNL     1      -8.994  -8.788  19.306  0.00  0.00    -0.290 N 
ATOM     26  C   UNL     1      -8.362  -9.578  20.345  0.00  0.00    +0.109 C 
ATOM     27  C   UNL     1      -9.262 -10.795  20.530  0.00  0.00    +0.092 C 
ATOM     28  N   UNL     1     -10.533 -10.263  20.112  0.00  0.00    -0.279 NA
ATOM     29  C   UNL     1     -10.180  -9.512  18.923  0.00  0.00    +0.165 C 
ATOM     30  H   UNL     1     -10.932  -9.655  20.827  0.00  0.00    +0.125 HD
ENDBRANCH  19  25
BRANCH  23  31
ATOM     31  O   UNL     1      -6.392  -6.278  16.038  0.00  0.00    -0.505 OA
ATOM     32  H   UNL     1      -6.104  -7.065  15.619  0.00  0.00    +0.292 HD
ENDBRANCH  23  31
ENDBRANCH  18  20
ENDBRANCH   1  18
TORSDOF 4
