REMARK  Name = =
REMARK  5 active torsions:
REMARK  status: ('A' for Active; 'I' for Inactive)
REMARK    1  A    between atoms: C_1  and  N_7
REMARK    2  A    between atoms: C_2  and  O_21
REMARK    3  A    between atoms: C_5  and  O_20
REMARK    4  A    between atoms: C_9  and  C_12
REMARK    5  A    between atoms: O_21  and  N_22
REMARK                            x       y       z     vdW  Elec       q    Type
REMARK                         _______ _______ _______ _____ _____    ______ ____
ROOT
ATOM      1  C   UNL     1     -13.258  -3.617  23.110  0.00  0.00    +0.089 C 
ATOM      2  C   UNL     1     -12.628  -4.683  22.454  0.00  0.00    +0.186 C 
ATOM      3  C   UNL     1     -12.822  -4.825  21.104  0.00  0.00    +0.045 C 
ATOM      4  C   UNL     1     -13.610  -3.958  20.384  0.00  0.00    +0.040 C 
ATOM      5  C   UNL     1     -14.226  -2.914  21.030  0.00  0.00    +0.135 C 
ATOM      6  C   UNL     1     -14.040  -2.762  22.378  0.00  0.00    +0.054 C 
ENDROOT
BRANCH   1   7
ATOM      7  N   UNL     1     -13.073  -3.454  24.517  0.00  0.00    -0.290 N 
ATOM      8  C   UNL     1     -13.531  -2.346  25.301  0.00  0.00    +0.117 C 
ATOM      9  C   UNL     1     -12.436  -2.245  26.365  0.00  0.00    +0.153 C 
ATOM     10  N   UNL     1     -12.289  -3.652  26.685  0.00  0.00    -0.273 NA
ATOM     11  C   UNL     1     -12.409  -4.356  25.422  0.00  0.00    +0.166 C 
ATOM     12  H   UNL     1     -13.022  -3.949  27.329  0.00  0.00    +0.125 HD
BRANCH   9  13
ATOM     13  C   UNL     1     -12.910  -1.465  27.531  0.00  0.00    +0.242 C 
ATOM     14  O   UNL     1     -13.427  -2.123  28.473  0.00  0.00    -0.273 OA
ATOM     15  N   UNL     1     -12.809  -0.069  27.630  0.00  0.00    -0.276 N 
ATOM     16  C   UNL     1     -13.340   0.604  28.797  0.00  0.00    +0.111 C 
ATOM     17  C   UNL     1     -14.366   1.605  28.241  0.00  0.00    +0.090 C 
ATOM     18  N   UNL     1     -13.819   2.403  27.183  0.00  0.00    -0.295 NA
ATOM     19  C   UNL     1     -13.297   1.653  26.068  0.00  0.00    +0.090 C 
ATOM     20  C   UNL     1     -12.188   0.759  26.629  0.00  0.00    +0.111 C 
ATOM     21  H   UNL     1     -13.061   2.966  27.569  0.00  0.00    +0.123 HD
ENDBRANCH   9  13
ENDBRANCH   1   7
BRANCH   5  22
ATOM     22  O   UNL     1     -15.024  -2.032  20.311  0.00  0.00    -0.505 OA
ATOM     23  H   UNL     1     -15.140  -2.151  19.389  0.00  0.00    +0.292 HD
ENDBRANCH   5  22
BRANCH   2  24
ATOM     24  O   UNL     1     -11.847  -5.542  23.171  0.00  0.00    -0.374 OA
BRANCH  24  25
ATOM     25  N   UNL     1     -11.093  -6.572  22.777  0.00  0.00    -0.195 N 
ATOM     26  C   UNL     1     -10.117  -6.356  21.781  0.00  0.00    +0.093 C 
ATOM     27  C   UNL     1      -9.115  -5.340  22.134  0.00  0.00    +0.020 C 
ATOM     28  C   UNL     1      -7.750  -5.622  21.664  0.00  0.00    +0.002 C 
ATOM     29  C   UNL     1      -7.328  -6.735  20.989  0.00  0.00    +0.000 C 
ATOM     30  C   UNL     1      -8.319  -7.764  20.678  0.00  0.00    +0.001 C 
ATOM     31  C   UNL     1      -9.624  -7.535  21.090  0.00  0.00    +0.015 C 
ATOM     32  C   UNL     1     -10.563  -8.521  20.803  0.00  0.00    -0.019 C 
ATOM     33  C   UNL     1     -10.250  -9.693  20.138  0.00  0.00    -0.004 C 
ATOM     34  C   UNL     1      -8.946  -9.893  19.739  0.00  0.00    -0.000 C 
ATOM     35  C   UNL     1      -8.005  -8.927  20.016  0.00  0.00    +0.000 C 
ATOM     36  C   UNL     1     -11.980  -8.279  21.254  0.00  0.00    +0.054 C 
ATOM     37  C   UNL     1     -11.864  -7.777  22.674  0.00  0.00    +0.149 C 
ATOM     38  C   UNL     1      -6.004  -6.895  20.599  0.00  0.00    +0.000 C 
ATOM     39  C   UNL     1      -5.100  -5.893  20.907  0.00  0.00    +0.000 C 
ATOM     40  C   UNL     1      -5.489  -4.767  21.581  0.00  0.00    +0.000 C 
ATOM     41  C   UNL     1      -6.804  -4.632  21.956  0.00  0.00    +0.000 C 
ENDBRANCH  24  25
ENDBRANCH   2  24
TORSDOF 5
