REMARK  Name = =
REMARK  5 active torsions:
REMARK  status: ('A' for Active; 'I' for Inactive)
REMARK    1  A    between atoms: C_1  and  N_12
REMARK    2  A    between atoms: C_1  and  N_26
REMARK    3  A    between atoms: C_2  and  C_22
REMARK    4  A    between atoms: C_16  and  C_19
REMARK    5  A    between atoms: N_24  and  N_25
REMARK                            x       y       z     vdW  Elec       q    Type
REMARK                         _______ _______ _______ _____ _____    ______ ____
ROOT
ATOM      1  C   UNL     1      -0.239  -4.232  29.324  0.00  0.00    +0.287 C 
ATOM      2  C   UNL     1      -0.169  -4.374  27.864  0.00  0.00    +0.293 C 
ATOM      3  O   UNL     1      -0.392  -3.222  27.102  0.00  0.00    -0.438 OA
ATOM      4  C   UNL     1       0.039  -2.241  26.381  0.00  0.00    +0.318 C 
ATOM      5  O   UNL     1      -0.397  -2.258  25.131  0.00  0.00    -0.250 OA
ATOM      6  C   UNL     1       0.900  -1.044  26.509  0.00  0.00    +0.113 C 
ATOM      7  C   UNL     1       1.678  -0.861  27.800  0.00  0.00    +0.059 C 
ATOM      8  C   UNL     1       1.328  -2.034  28.548  0.00  0.00    +0.209 C 
ATOM      9  O   UNL     1       1.665  -2.557  29.745  0.00  0.00    -0.446 OA
ATOM     10  C   UNL     1       0.948  -3.720  30.076  0.00  0.00    +0.360 C 
ATOM     11  O   UNL     1       1.394  -4.333  31.102  0.00  0.00    -0.246 OA
ENDROOT
BRANCH   1  12
ATOM     12  N   UNL     1      -0.630  -5.436  29.996  0.00  0.00    -0.201 N 
ATOM     13  C   UNL     1      -0.180  -6.787  29.843  0.00  0.00    +0.234 C 
ATOM     14  O   UNL     1       0.958  -7.246  29.608  0.00  0.00    -0.274 OA
ATOM     15  C   UNL     1      -1.380  -7.682  30.024  0.00  0.00    +0.104 C 
ATOM     16  C   UNL     1      -2.040  -7.009  31.180  0.00  0.00    +0.162 C 
ATOM     17  C   UNL     1      -1.651  -5.595  31.022  0.00  0.00    +0.242 C 
ATOM     18  O   UNL     1      -2.147  -4.650  31.697  0.00  0.00    -0.274 OA
BRANCH  16  19
ATOM     19  C   UNL     1      -3.516  -7.175  31.184  0.00  0.00    +0.228 C 
ATOM     20  O   UNL     1      -4.221  -6.253  31.665  0.00  0.00    -0.275 OA
ATOM     21  N   UNL     1      -4.040  -8.373  30.641  0.00  0.00    -0.328 N 
ATOM     22  H   UNL     1      -3.431  -9.057  30.279  0.00  0.00    +0.145 HD
ATOM     23  H   UNL     1      -5.013  -8.522  30.625  0.00  0.00    +0.145 HD
ENDBRANCH  16  19
ENDBRANCH   1  12
BRANCH   2  24
ATOM     24  C   UNL     1       0.770  -5.319  27.254  0.00  0.00    +0.280 C 
ATOM     25  O   UNL     1       0.375  -6.238  26.541  0.00  0.00    -0.270 OA
ATOM     26  N   UNL     1       2.206  -5.267  27.421  0.00  0.00    -0.250 N 
ATOM     27  H   UNL     1       2.598  -4.557  27.979  0.00  0.00    +0.169 HD
BRANCH  26  28
ATOM     28  N   UNL     1       3.053  -6.198  26.811  0.00  0.00    -0.254 NA
ATOM     29  H   UNL     1       2.497  -6.862  26.272  0.00  0.00    +0.140 HD
ATOM     30  H   UNL     1       3.580  -6.698  27.527  0.00  0.00    +0.140 HD
ENDBRANCH  26  28
ENDBRANCH   2  24
BRANCH   1  31
ATOM     31  N   UNL     1      -1.364  -3.313  29.575  0.00  0.00    -0.238 NA
ATOM     32  C   UNL     1      -2.221  -2.971  28.736  0.00  0.00    +0.116 C 
ENDBRANCH   1  31
TORSDOF 5
