REMARK  Name = =
REMARK  7 active torsions:
REMARK  status: ('A' for Active; 'I' for Inactive)
REMARK    1  A    between atoms: N_1  and  C_8
REMARK    2  A    between atoms: C_4  and  S_25
REMARK    3  A    between atoms: C_5  and  C_42
REMARK    4  A    between atoms: C_8  and  N_23
REMARK    5  A    between atoms: C_9  and  C_19
REMARK    6  A    between atoms: N_21  and  N_22
REMARK    7  A    between atoms: C_26  and  N_30
REMARK                            x       y       z     vdW  Elec       q    Type
REMARK                         _______ _______ _______ _____ _____    ______ ____
ROOT
ATOM      1  N   UNL     1       0.522  -5.208  29.242  0.00  0.00    -0.200 N 
ATOM      2  C   UNL     1      -0.584  -5.914  29.858  0.00  0.00    +0.242 C 
ATOM      3  O   UNL     1      -0.841  -7.126  29.680  0.00  0.00    -0.274 OA
ATOM      4  C   UNL     1      -1.285  -4.942  30.679  0.00  0.00    +0.126 C 
ATOM      5  C   UNL     1      -1.010  -3.646  30.015  0.00  0.00    +0.170 C 
ATOM      6  C   UNL     1       0.383  -3.832  29.481  0.00  0.00    +0.243 C 
ATOM      7  O   UNL     1       1.221  -2.935  29.298  0.00  0.00    -0.274 OA
ENDROOT
BRANCH   1   8
ATOM      8  C   UNL     1       1.552  -5.938  28.513  0.00  0.00    +0.287 C 
ATOM      9  C   UNL     1       2.475  -5.147  27.691  0.00  0.00    +0.293 C 
ATOM     10  O   UNL     1       2.827  -5.774  26.470  0.00  0.00    -0.438 OA
ATOM     11  C   UNL     1       2.945  -7.085  26.181  0.00  0.00    +0.318 C 
ATOM     12  O   UNL     1       2.389  -7.622  25.167  0.00  0.00    -0.250 OA
ATOM     13  C   UNL     1       3.734  -8.017  27.021  0.00  0.00    +0.113 C 
ATOM     14  C   UNL     1       2.943  -9.141  27.604  0.00  0.00    +0.059 C 
ATOM     15  C   UNL     1       1.492  -9.155  27.273  0.00  0.00    +0.209 C 
ATOM     16  O   UNL     1       0.724  -8.092  27.655  0.00  0.00    -0.446 OA
ATOM     17  C   UNL     1       0.757  -6.762  27.513  0.00  0.00    +0.360 C 
ATOM     18  O   UNL     1       0.202  -6.037  26.631  0.00  0.00    -0.246 OA
BRANCH   9  19
ATOM     19  C   UNL     1       3.725  -4.681  28.304  0.00  0.00    +0.280 C 
ATOM     20  O   UNL     1       3.747  -4.429  29.537  0.00  0.00    -0.270 OA
ATOM     21  N   UNL     1       4.939  -4.496  27.547  0.00  0.00    -0.250 N 
ATOM     22  H   UNL     1       4.969  -4.680  26.580  0.00  0.00    +0.169 HD
BRANCH  21  23
ATOM     23  N   UNL     1       6.054  -4.053  28.223  0.00  0.00    -0.254 NA
ATOM     24  H   UNL     1       5.824  -3.920  29.208  0.00  0.00    +0.140 HD
ATOM     25  H   UNL     1       6.364  -3.167  27.824  0.00  0.00    +0.140 HD
ENDBRANCH  21  23
ENDBRANCH   9  19
BRANCH   8  26
ATOM     26  N   UNL     1       2.187  -6.801  29.464  0.00  0.00    -0.238 NA
ATOM     27  C   UNL     1       2.113  -6.685  30.709  0.00  0.00    +0.116 C 
ENDBRANCH   8  26
ENDBRANCH   1   8
BRANCH   4  28
ATOM     28  S   UNL     1      -2.995  -5.227  30.872  0.00  0.00    -0.189 S 
ATOM     29  C   UNL     1      -3.665  -4.965  32.499  0.00  0.00    +0.107 C 
ATOM     30  C   UNL     1      -3.948  -6.360  33.005  0.00  0.00    +0.115 C 
ATOM     31  N   UNL     1      -3.130  -7.271  32.243  0.00  0.00    -0.206 NA
ATOM     32  C   UNL     1      -3.449  -7.044  30.848  0.00  0.00    +0.128 C 
ATOM     33  H   UNL     1      -3.445  -4.405  29.886  0.00  0.00    +0.087 HD
BRANCH  29  34
ATOM     34  N   UNL     1      -4.793  -4.108  32.512  0.00  0.00    -0.262 NA
ATOM     35  C   UNL     1      -5.067  -3.390  33.698  0.00  0.00    +0.095 C 
ATOM     36  C   UNL     1      -6.444  -2.772  33.627  0.00  0.00    +0.111 C 
ATOM     37  N   UNL     1      -6.780  -2.357  32.293  0.00  0.00    -0.275 N 
ATOM     38  C   UNL     1      -5.713  -2.151  31.349  0.00  0.00    +0.111 C 
ATOM     39  C   UNL     1      -4.868  -3.377  31.297  0.00  0.00    +0.095 C 
ATOM     40  C   UNL     1      -8.117  -2.152  31.909  0.00  0.00    +0.220 C 
ATOM     41  N   UNL     1      -8.413  -1.771  30.653  0.00  0.00    -0.212 NA
ATOM     42  C   UNL     1      -9.678  -1.574  30.276  0.00  0.00    +0.103 C 
ATOM     43  C   UNL     1     -10.729  -1.752  31.152  0.00  0.00    +0.041 C 
ATOM     44  C   UNL     1     -10.377  -2.146  32.438  0.00  0.00    +0.103 C 
ATOM     45  N   UNL     1      -9.100  -2.338  32.794  0.00  0.00    -0.212 NA
ENDBRANCH  29  34
ENDBRANCH   4  28
BRANCH   5  46
ATOM     46  C   UNL     1      -1.896  -3.292  28.906  0.00  0.00    +0.229 C 
ATOM     47  O   UNL     1      -2.915  -2.591  29.133  0.00  0.00    -0.275 OA
ATOM     48  N   UNL     1      -1.656  -3.707  27.576  0.00  0.00    -0.328 N 
ATOM     49  H   UNL     1      -0.866  -4.257  27.367  0.00  0.00    +0.145 HD
ATOM     50  H   UNL     1      -2.278  -3.446  26.859  0.00  0.00    +0.145 HD
ENDBRANCH   5  46
TORSDOF 7
