REMARK  Name = =
REMARK  7 active torsions:
REMARK  status: ('A' for Active; 'I' for Inactive)
REMARK    1  A    between atoms: C_3  and  S_20
REMARK    2  A    between atoms: N_8  and  C_9
REMARK    3  A    between atoms: C_9  and  C_14
REMARK    4  A    between atoms: C_14  and  C_15
REMARK    5  A    between atoms: N_18  and  N_19
REMARK    6  A    between atoms: S_20  and  N_22
REMARK    7  A    between atoms: C_23  and  C_25
REMARK                            x       y       z     vdW  Elec       q    Type
REMARK                         _______ _______ _______ _____ _____    ______ ____
ROOT
ATOM      1  N   UNL     1      52.041 156.591  28.183  0.00  0.00    -0.212 N 
ATOM      2  C   UNL     1      52.569 156.938  26.883  0.00  0.00    +0.123 C 
ATOM      3  C   UNL     1      53.503 155.781  27.053  0.00  0.00    +0.152 C 
ATOM      4  C   UNL     1      52.445 155.253  27.951  0.00  0.00    +0.245 C 
ATOM      5  O   UNL     1      52.053 154.138  28.351  0.00  0.00    -0.273 OA
ATOM      6  C   UNL     1      51.392 157.319  29.234  0.00  0.00    +0.311 C 
ATOM      7  O   UNL     1      51.061 156.667  30.254  0.00  0.00    -0.252 OA
ATOM      8  N   UNL     1      51.137 158.705  29.123  0.00  0.00    -0.271 N 
ATOM      9  H   UNL     1      51.412 159.171  28.301  0.00  0.00    +0.153 HD
ENDROOT
BRANCH   8  10
ATOM     10  C   UNL     1      50.494 159.459  30.159  0.00  0.00    +0.150 C 
ATOM     11  S   UNL     1      49.064 158.449  30.714  0.00  0.00    -0.107 S 
ATOM     12  C   UNL     1      47.760 159.625  30.162  0.00  0.00    +0.077 C 
ATOM     13  C   UNL     1      48.610 160.883  30.143  0.00  0.00    +0.082 C 
ATOM     14  N   UNL     1      49.853 160.582  29.555  0.00  0.00    -0.276 NA
ATOM     15  H   UNL     1      50.463 161.394  29.648  0.00  0.00    +0.125 HD
BRANCH  10  16
ATOM     16  C   UNL     1      51.444 159.781  31.245  0.00  0.00    +0.090 C 
BRANCH  16  17
ATOM     17  C   UNL     1      51.227 161.005  32.001  0.00  0.00    +0.066 C 
ATOM     18  N   UNL     1      52.034 162.001  31.774  0.00  0.00    -0.301 NA
ATOM     19  H   UNL     1      51.922 162.847  32.264  0.00  0.00    +0.186 HD
ENDBRANCH  16  17
ENDBRANCH  10  16
ENDBRANCH   8  10
BRANCH   3  20
ATOM     20  S   UNL     1      53.795 154.796  25.577  0.00  0.00    -0.095 S 
ATOM     21  C   UNL     1      52.946 155.396  24.333  0.00  0.00    +0.079 C 
BRANCH  20  22
ATOM     22  N   UNL     1      53.304 153.135  25.815  0.00  0.00    -0.259 N 
ATOM     23  C   UNL     1      53.953 152.050  25.188  0.00  0.00    +0.308 C 
ATOM     24  O   UNL     1      54.918 152.262  24.428  0.00  0.00    -0.264 OA
ATOM     25  H   UNL     1      52.543 152.949  26.411  0.00  0.00    +0.162 HD
BRANCH  23  26
ATOM     26  C   UNL     1      53.539 150.657  25.390  0.00  0.00    +0.297 C 
ATOM     27  O   UNL     1      52.703 150.401  26.299  0.00  0.00    -0.265 OA
ATOM     28  N   UNL     1      54.037 149.596  24.609  0.00  0.00    -0.322 N 
ATOM     29  H   UNL     1      54.690 149.775  23.895  0.00  0.00    +0.145 HD
ATOM     30  H   UNL     1      53.732 148.675  24.778  0.00  0.00    +0.145 HD
ENDBRANCH  23  26
ENDBRANCH  20  22
ENDBRANCH   3  20
TORSDOF 6
REMARK  Name = =
REMARK  7 active torsions:
REMARK  status: ('A' for Active; 'I' for Inactive)
REMARK    1  A    between atoms: C_3  and  S_20
REMARK    2  A    between atoms: N_8  and  C_9
REMARK    3  A    between atoms: C_9  and  C_14
REMARK    4  A    between atoms: C_14  and  C_15
REMARK    5  A    between atoms: N_18  and  N_19
REMARK    6  A    between atoms: S_20  and  N_22
REMARK    7  A    between atoms: C_23  and  C_25
REMARK                            x       y       z     vdW  Elec       q    Type
REMARK                         _______ _______ _______ _____ _____    ______ ____
ROOT
ATOM      1  I   UNL     1      49.728 161.311  33.426  0.00  0.00    -0.107 I 
ATOM      2  H   UNL     1      51.289 161.311  33.426  0.00  0.00    +0.107 HD
ENDROOT
TORSDOF 0
REMARK  Name = =
REMARK  7 active torsions:
REMARK  status: ('A' for Active; 'I' for Inactive)
REMARK    1  A    between atoms: C_3  and  S_20
REMARK    2  A    between atoms: N_8  and  C_9
REMARK    3  A    between atoms: C_9  and  C_14
REMARK    4  A    between atoms: C_14  and  C_15
REMARK    5  A    between atoms: N_18  and  N_19
REMARK    6  A    between atoms: S_20  and  N_22
REMARK    7  A    between atoms: C_23  and  C_25
REMARK                            x       y       z     vdW  Elec       q    Type
REMARK                         _______ _______ _______ _____ _____    ______ ____
ROOT
ATOM      1  N   UNL     1      47.593 162.855  32.166  0.00  0.00    -0.256 NA
ATOM      2  H   UNL     1      47.681 162.063  31.529  0.00  0.00    +0.138 HD
ATOM      3  H   UNL     1      47.347 163.691  31.636  0.00  0.00    +0.138 HD
ENDROOT
BRANCH   1   4
ATOM      4  N   UNL     1      48.791 163.058  32.815  0.00  0.00    -0.182 NA
ATOM      5  H   UNL     1      48.703 163.850  33.452  0.00  0.00    +0.161 HD
ENDBRANCH   1   4
TORSDOF 1
