MODEL 1
REMARK VINA RESULT:    -7.645      0.000      0.000
REMARK INTER + INTRA:         -10.009
REMARK INTER:                  -9.433
REMARK INTRA:                  -0.577
REMARK UNBOUND:                -0.577
REMARK  Name = =
REMARK  5 active torsions:
REMARK  status: ('A' for Active; 'I' for Inactive)
REMARK    1  A    between atoms: C_1  and  C_15
REMARK    2  A    between atoms: C_10  and  S_16
REMARK    3  A    between atoms: S_16  and  P_17
REMARK    4  A    between atoms: P_17  and  O_19
REMARK    5  A    between atoms: P_17  and  O_20
REMARK                            x       y       z     vdW  Elec       q    Type
REMARK                         _______ _______ _______ _____ _____    ______ ____
ROOT
ATOM      1  C   UNL     1      50.518 161.019  42.044  0.00  0.00    +0.005 C 
ATOM      2  C   UNL     1      50.610 162.381  41.955  0.00  0.00    -0.001 C 
ATOM      3  C   UNL     1      49.646 163.141  41.280  0.00  0.00    +0.006 C 
ATOM      4  C   UNL     1      48.572 162.548  40.683  0.00  0.00    +0.000 C 
ATOM      5  C   UNL     1      48.461 161.167  40.762  0.00  0.00    -0.000 C 
ATOM      6  C   UNL     1      49.412 160.434  41.426  0.00  0.00    -0.002 C 
ATOM      7  C   UNL     1      47.503 163.261  39.948  0.00  0.00    +0.000 C 
ATOM      8  C   UNL     1      47.658 164.735  39.885  0.00  0.00    +0.001 C 
ATOM      9  C   UNL     1      48.838 165.287  40.553  0.00  0.00    +0.007 C 
ATOM     10  C   UNL     1      49.757 164.589  41.193  0.00  0.00    +0.033 C 
ENDROOT
BRANCH   1  15
ATOM     11  O   UNL     1      51.482 158.876  42.399  0.00  0.00    -0.352 OA
ATOM     12  C   UNL     1      52.687 158.434  42.968  0.00  0.00    +0.143 C 
ATOM     13  C   UNL     1      53.647 159.488  42.498  0.00  0.00    +0.035 C 
ATOM     14  C   UNL     1      52.905 160.611  42.365  0.00  0.00    +0.037 C 
ATOM     15  C   UNL     1      51.531 160.227  42.749  0.00  0.00    +0.137 C 
ENDBRANCH   1  15
BRANCH  10  16
ATOM     16  S   UNL     1      51.159 165.371  41.972  0.00  0.00    -0.037 S 
BRANCH  16  17
ATOM     17  P   UNL     1      52.389 166.166  40.448  0.00  0.00    +0.229 P 
ATOM     18  S   UNL     1      53.787 166.936  41.160  0.00  0.00    +0.003 S 
BRANCH  17  19
ATOM     19  O   UNL     1      52.930 164.942  39.439  0.00  0.00    -0.339 OA
ATOM     20  H   UNL     1      52.258 164.760  38.764  0.00  0.00    +0.218 HD
ENDBRANCH  17  19
BRANCH  17  21
ATOM     21  O   UNL     1      51.571 167.386  39.595  0.00  0.00    -0.339 OA
ATOM     22  H   UNL     1      50.626 167.354  39.812  0.00  0.00    +0.218 HD
ENDBRANCH  17  21
ENDBRANCH  16  17
ENDBRANCH  10  16
TORSDOF 5
ENDMDL
