REMARK  Name = =
REMARK  5 active torsions:
REMARK  status: ('A' for Active; 'I' for Inactive)
REMARK    1  A    between atoms: C_1  and  C_15
REMARK    2  A    between atoms: C_10  and  S_16
REMARK    3  A    between atoms: S_16  and  P_17
REMARK    4  A    between atoms: P_17  and  O_19
REMARK    5  A    between atoms: P_17  and  O_20
REMARK                            x       y       z     vdW  Elec       q    Type
REMARK                         _______ _______ _______ _____ _____    ______ ____
ROOT
ATOM      1  C   UNL     1      52.721 154.261  26.472  0.00  0.00    +0.005 C 
ATOM      2  C   UNL     1      52.104 153.599  27.497  0.00  0.00    -0.001 C 
ATOM      3  C   UNL     1      51.661 154.269  28.645  0.00  0.00    +0.006 C 
ATOM      4  C   UNL     1      51.830 155.616  28.785  0.00  0.00    +0.000 C 
ATOM      5  C   UNL     1      52.455 156.306  27.755  0.00  0.00    -0.000 C 
ATOM      6  C   UNL     1      52.884 155.637  26.636  0.00  0.00    -0.002 C 
ATOM      7  C   UNL     1      51.399 156.413  29.955  0.00  0.00    +0.000 C 
ATOM      8  C   UNL     1      50.736 155.640  31.034  0.00  0.00    +0.001 C 
ATOM      9  C   UNL     1      50.596 154.201  30.801  0.00  0.00    +0.007 C 
ATOM     10  C   UNL     1      51.006 153.552  29.728  0.00  0.00    +0.033 C 
ENDROOT
BRANCH   1  15
ATOM     11  O   UNL     1      54.430 154.017  24.839  0.00  0.00    -0.352 OA
ATOM     12  C   UNL     1      54.747 153.018  23.904  0.00  0.00    +0.143 C 
ATOM     13  C   UNL     1      54.429 151.771  24.677  0.00  0.00    +0.035 C 
ATOM     14  C   UNL     1      53.445 152.125  25.535  0.00  0.00    +0.037 C 
ATOM     15  C   UNL     1      53.186 153.555  25.274  0.00  0.00    +0.137 C 
ENDBRANCH   1  15
BRANCH  10  16
ATOM     16  S   UNL     1      50.781 151.790  29.552  0.00  0.00    -0.037 S 
BRANCH  16  17
ATOM     17  P   UNL     1      49.401 151.161  31.024  0.00  0.00    +0.229 P 
ATOM     18  S   UNL     1      50.035 151.508  32.615  0.00  0.00    +0.003 S 
BRANCH  17  19
ATOM     19  O   UNL     1      47.952 151.985  30.853  0.00  0.00    -0.339 OA
ATOM     20  H   UNL     1      48.117 152.940  30.892  0.00  0.00    +0.218 HD
ENDBRANCH  17  19
BRANCH  17  21
ATOM     21  O   UNL     1      49.191 149.476  30.965  0.00  0.00    -0.339 OA
ATOM     22  H   UNL     1      50.051 149.039  31.067  0.00  0.00    +0.218 HD
ENDBRANCH  17  21
ENDBRANCH  16  17
ENDBRANCH  10  16
TORSDOF 5
