REMARK  Name = =
REMARK  0 active torsions:
REMARK  status: ('A' for Active; 'I' for Inactive)
REMARK                            x       y       z     vdW  Elec       q    Type
REMARK                         _______ _______ _______ _____ _____    ______ ____
ROOT
ATOM      1  C   UNL     1     -12.387  -8.996  20.579  0.00  0.00    +0.003 C 
ATOM      2  C   UNL     1     -12.952 -10.038  19.870  0.00  0.00    +0.000 C 
ATOM      3  C   UNL     1     -14.252 -10.376  20.187  0.00  0.00    +0.000 C 
ATOM      4  C   UNL     1     -14.951  -9.699  21.168  0.00  0.00    +0.003 C 
ATOM      5  C   UNL     1     -14.369  -8.658  21.869  0.00  0.00    +0.042 C 
ATOM      6  C   UNL     1     -13.064  -8.303  21.567  0.00  0.00    +0.042 C 
ATOM      7  C   UNL     1     -12.450  -7.205  22.305  0.00  0.00    +0.196 C 
ATOM      8  O   UNL     1     -11.266  -6.883  22.032  0.00  0.00    -0.287 OA
ATOM      9  C   UNL     1     -13.238  -6.515  23.343  0.00  0.00    +0.042 C 
ATOM     10  C   UNL     1     -12.630  -5.487  24.018  0.00  0.00    +0.003 C 
ATOM     11  C   UNL     1     -13.363  -4.839  24.990  0.00  0.00    +0.000 C 
ATOM     12  C   UNL     1     -14.661  -5.171  25.310  0.00  0.00    +0.000 C 
ATOM     13  C   UNL     1     -15.231  -6.210  24.607  0.00  0.00    +0.003 C 
ATOM     14  C   UNL     1     -14.530  -6.883  23.627  0.00  0.00    +0.042 C 
ATOM     15  C   UNL     1     -15.156  -7.984  22.891  0.00  0.00    +0.196 C 
ATOM     16  O   UNL     1     -16.357  -8.333  23.148  0.00  0.00    -0.287 OA
ENDROOT
TORSDOF 0
