REMARK  Name = =
REMARK  1 active torsions:
REMARK  status: ('A' for Active; 'I' for Inactive)
REMARK    1  A    between atoms: C_10  and  C_17
REMARK                            x       y       z     vdW  Elec       q    Type
REMARK                         _______ _______ _______ _____ _____    ______ ____
ROOT
ATOM      1  C   UNL     1     -12.553  -8.741  20.425  0.00  0.00    +0.003 C 
ATOM      2  C   UNL     1     -12.985  -9.837  19.708  0.00  0.00    +0.000 C 
ATOM      3  C   UNL     1     -14.213 -10.369  20.046  0.00  0.00    +0.000 C 
ATOM      4  C   UNL     1     -14.971  -9.819  21.060  0.00  0.00    +0.003 C 
ATOM      5  C   UNL     1     -14.518  -8.708  21.776  0.00  0.00    +0.042 C 
ATOM      6  C   UNL     1     -13.294  -8.177  21.442  0.00  0.00    +0.042 C 
ATOM      7  C   UNL     1     -12.826  -7.006  22.200  0.00  0.00    +0.196 C 
ATOM      8  O   UNL     1     -11.691  -6.594  21.837  0.00  0.00    -0.287 OA
ATOM      9  C   UNL     1     -13.595  -6.388  23.278  0.00  0.00    +0.045 C 
ATOM     10  C   UNL     1     -13.092  -5.338  23.977  0.00  0.00    +0.038 C 
ATOM     11  C   UNL     1     -13.887  -4.868  25.047  0.00  0.00    +0.003 C 
ATOM     12  C   UNL     1     -15.086  -5.397  25.385  0.00  0.00    +0.000 C 
ATOM     13  C   UNL     1     -15.565  -6.447  24.655  0.00  0.00    +0.003 C 
ATOM     14  C   UNL     1     -14.828  -6.958  23.592  0.00  0.00    +0.042 C 
ATOM     15  C   UNL     1     -15.299  -8.117  22.846  0.00  0.00    +0.196 C 
ATOM     16  O   UNL     1     -16.410  -8.598  23.156  0.00  0.00    -0.287 OA
ENDROOT
BRANCH  10  17
ATOM     17  C   UNL     1     -11.949  -4.549  23.603  0.00  0.00    +0.149 C 
ATOM     18  C   UNL     1     -11.988  -3.477  22.780  0.00  0.00    +0.080 C 
ATOM     19  C   UNL     1     -10.813  -2.794  22.510  0.00  0.00    +0.202 C 
ATOM     20  O   UNL     1     -10.786  -1.793  21.753  0.00  0.00    -0.286 OA
ATOM     21  C   UNL     1      -9.626  -3.196  23.069  0.00  0.00    +0.083 C 
ATOM     22  C   UNL     1      -9.669  -4.300  23.902  0.00  0.00    +0.183 C 
ATOM     23  O   UNL     1     -10.787  -4.921  24.135  0.00  0.00    -0.450 OA
ENDBRANCH  10  17
TORSDOF 1
