REMARK  Name = =
REMARK  2 active torsions:
REMARK  status: ('A' for Active; 'I' for Inactive)
REMARK    1  A    between atoms: C_1  and  C_18
REMARK    2  A    between atoms: C_10  and  C_32
REMARK                            x       y       z     vdW  Elec       q    Type
REMARK                         _______ _______ _______ _____ _____    ______ ____
ROOT
ATOM      1  C   UNL     1     -13.374  -8.950  20.083  0.00  0.00    +0.004 C 
ATOM      2  C   UNL     1     -13.877  -9.945  19.246  0.00  0.00    +0.000 C 
ATOM      3  C   UNL     1     -13.042 -10.872  18.673  0.00  0.00    +0.000 C 
ATOM      4  C   UNL     1     -11.691 -10.824  18.925  0.00  0.00    +0.003 C 
ATOM      5  C   UNL     1     -11.154  -9.842  19.760  0.00  0.00    +0.042 C 
ATOM      6  C   UNL     1     -12.029  -8.926  20.320  0.00  0.00    +0.042 C 
ATOM      7  C   UNL     1     -11.448  -7.924  21.230  0.00  0.00    +0.196 C 
ATOM      8  O   UNL     1     -12.271  -7.114  21.722  0.00  0.00    -0.287 OA
ATOM      9  C   UNL     1     -10.031  -7.874  21.539  0.00  0.00    +0.045 C 
ATOM     10  C   UNL     1      -9.542  -6.903  22.368  0.00  0.00    +0.038 C 
ATOM     11  C   UNL     1      -8.130  -6.876  22.600  0.00  0.00    +0.003 C 
ATOM     12  C   UNL     1      -7.332  -7.809  22.000  0.00  0.00    +0.000 C 
ATOM     13  C   UNL     1      -7.832  -8.780  21.175  0.00  0.00    +0.003 C 
ATOM     14  C   UNL     1      -9.203  -8.818  20.938  0.00  0.00    +0.042 C 
ATOM     15  C   UNL     1      -9.740  -9.817  20.043  0.00  0.00    +0.196 C 
ATOM     16  O   UNL     1      -8.971 -10.658  19.517  0.00  0.00    -0.287 OA
ENDROOT
BRANCH   1  18
ATOM     17  C   UNL     1     -14.466  -6.689  19.944  0.00  0.00    +0.000 C 
ATOM     18  C   UNL     1     -14.275  -7.917  20.568  0.00  0.00    +0.006 C 
ATOM     19  C   UNL     1     -15.044  -8.241  21.688  0.00  0.00    +0.025 C 
ATOM     20  C   UNL     1     -15.975  -7.336  22.148  0.00  0.00    -0.016 C 
ATOM     21  C   UNL     1     -16.151  -6.123  21.518  0.00  0.00    -0.004 C 
ATOM     22  C   UNL     1     -15.391  -5.796  20.406  0.00  0.00    -0.000 C 
ATOM     23  C   UNL     1     -16.869  -7.515  23.318  0.00  0.00    +0.032 C 
ATOM     24  C   UNL     1     -17.800  -8.666  23.015  0.00  0.00    +0.032 C 
ATOM     25  C   UNL     1     -17.232  -9.971  23.428  0.00  0.00    -0.016 C 
ATOM     26  C   UNL     1     -15.998 -10.536  23.201  0.00  0.00    +0.025 C 
ATOM     27  C   UNL     1     -15.723 -11.786  23.709  0.00  0.00    +0.006 C 
ATOM     28  C   UNL     1     -16.645 -12.506  24.448  0.00  0.00    +0.000 C 
ATOM     29  C   UNL     1     -17.870 -11.943  24.673  0.00  0.00    -0.000 C 
ATOM     30  C   UNL     1     -18.159 -10.675  24.163  0.00  0.00    -0.004 C 
ATOM     31  S   UNL     1     -14.612  -9.859  22.293  0.00  0.00    -0.088 S 
ENDBRANCH   1  18
BRANCH  10  32
ATOM     32  C   UNL     1     -10.330  -5.986  23.144  0.00  0.00    +0.149 C 
ATOM     33  C   UNL     1     -10.244  -4.595  22.900  0.00  0.00    +0.080 C 
ATOM     34  C   UNL     1     -10.975  -3.673  23.614  0.00  0.00    +0.202 C 
ATOM     35  O   UNL     1     -10.932  -2.447  23.437  0.00  0.00    -0.286 OA
ATOM     36  C   UNL     1     -11.834  -4.124  24.616  0.00  0.00    +0.083 C 
ATOM     37  C   UNL     1     -11.876  -5.470  24.803  0.00  0.00    +0.183 C 
ATOM     38  O   UNL     1     -11.145  -6.291  24.079  0.00  0.00    -0.450 OA
ENDBRANCH  10  32
TORSDOF 2
