REMARK  Name = =
REMARK  3 active torsions:
REMARK  status: ('A' for Active; 'I' for Inactive)
REMARK    1  A    between atoms: C_1  and  C_18
REMARK    2  A    between atoms: C_10  and  C_38
REMARK    3  A    between atoms: C_29  and  C_32
REMARK                            x       y       z     vdW  Elec       q    Type
REMARK                         _______ _______ _______ _____ _____    ______ ____
ROOT
ATOM      1  C   UNL     1     -12.840  -6.804  20.305  0.00  0.00    +0.004 C 
ATOM      2  C   UNL     1     -11.869  -5.942  19.771  0.00  0.00    +0.000 C 
ATOM      3  C   UNL     1     -11.507  -4.794  20.436  0.00  0.00    +0.000 C 
ATOM      4  C   UNL     1     -12.101  -4.487  21.637  0.00  0.00    +0.003 C 
ATOM      5  C   UNL     1     -13.052  -5.320  22.178  0.00  0.00    +0.042 C 
ATOM      6  C   UNL     1     -13.412  -6.476  21.503  0.00  0.00    +0.042 C 
ATOM      7  C   UNL     1     -14.399  -7.400  22.086  0.00  0.00    +0.196 C 
ATOM      8  O   UNL     1     -14.691  -8.425  21.457  0.00  0.00    -0.287 OA
ATOM      9  C   UNL     1     -15.020  -7.131  23.365  0.00  0.00    +0.045 C 
ATOM     10  C   UNL     1     -15.952  -7.975  23.900  0.00  0.00    +0.038 C 
ATOM     11  C   UNL     1     -16.521  -7.605  25.135  0.00  0.00    +0.003 C 
ATOM     12  C   UNL     1     -16.166  -6.457  25.788  0.00  0.00    +0.000 C 
ATOM     13  C   UNL     1     -15.227  -5.649  25.215  0.00  0.00    +0.003 C 
ATOM     14  C   UNL     1     -14.632  -5.950  24.009  0.00  0.00    +0.042 C 
ATOM     15  C   UNL     1     -13.655  -5.019  23.455  0.00  0.00    +0.196 C 
ATOM     16  O   UNL     1     -13.365  -3.977  24.109  0.00  0.00    -0.287 OA
ENDROOT
BRANCH   1  18
ATOM     17  C   UNL     1     -14.633  -8.125  19.224  0.00  0.00    +0.000 C 
ATOM     18  C   UNL     1     -13.279  -7.926  19.508  0.00  0.00    +0.006 C 
ATOM     19  C   UNL     1     -12.385  -8.802  18.914  0.00  0.00    +0.025 C 
ATOM     20  C   UNL     1     -12.809  -9.813  18.090  0.00  0.00    -0.016 C 
ATOM     21  C   UNL     1     -14.173  -9.965  17.843  0.00  0.00    -0.004 C 
ATOM     22  C   UNL     1     -15.089  -9.111  18.416  0.00  0.00    -0.000 C 
ATOM     23  C   UNL     1     -12.054 -10.858  17.363  0.00  0.00    +0.032 C 
ATOM     24  C   UNL     1     -10.929 -10.200  16.576  0.00  0.00    +0.032 C 
ATOM     25  C   UNL     1      -9.737 -10.186  17.482  0.00  0.00    -0.016 C 
ATOM     26  C   UNL     1      -9.589  -9.463  18.643  0.00  0.00    +0.025 C 
ATOM     27  C   UNL     1      -8.407  -9.606  19.322  0.00  0.00    +0.006 C 
ATOM     28  C   UNL     1      -7.404 -10.455  18.843  0.00  0.00    +0.000 C 
ATOM     29  C   UNL     1      -7.555 -11.178  17.681  0.00  0.00    -0.003 C 
ATOM     30  C   UNL     1      -8.749 -11.022  17.010  0.00  0.00    -0.004 C 
ATOM     31  S   UNL     1     -10.731  -8.325  19.443  0.00  0.00    -0.088 S 
BRANCH  29  32
ATOM     32  C   UNL     1      -6.494 -12.067  17.195  0.00  0.00    -0.009 C 
ATOM     33  C   UNL     1      -6.635 -12.788  16.093  0.00  0.00    -0.028 C 
ATOM     34  C   UNL     1      -5.514 -13.677  15.651  0.00  0.00    +0.045 C 
ATOM     35  C   UNL     1      -4.804 -14.319  16.810  0.00  0.00    +0.094 C 
ATOM     36  N   UNL     1      -5.028 -13.686  18.072  0.00  0.00    -0.213 NA
ATOM     37  C   UNL     1      -5.186 -12.236  17.883  0.00  0.00    +0.115 C 
ENDBRANCH  29  32
ENDBRANCH   1  18
BRANCH  10  38
ATOM     38  C   UNL     1     -16.299  -9.268  23.353  0.00  0.00    +0.149 C 
ATOM     39  C   UNL     1     -17.577  -9.782  23.686  0.00  0.00    +0.080 C 
ATOM     40  C   UNL     1     -18.020 -11.003  23.225  0.00  0.00    +0.202 C 
ATOM     41  O   UNL     1     -19.148 -11.473  23.513  0.00  0.00    -0.286 OA
ATOM     42  C   UNL     1     -17.206 -11.758  22.412  0.00  0.00    +0.083 C 
ATOM     43  C   UNL     1     -15.980 -11.216  22.118  0.00  0.00    +0.183 C 
ATOM     44  O   UNL     1     -15.626 -10.059  22.588  0.00  0.00    -0.450 OA
ENDBRANCH  10  38
TORSDOF 3
