REMARK  Name = =
REMARK  2 active torsions:
REMARK  status: ('A' for Active; 'I' for Inactive)
REMARK    1  A    between atoms: C_7  and  S_23
REMARK    2  A    between atoms: C_10  and  O_22
REMARK                            x       y       z     vdW  Elec       q    Type
REMARK                         _______ _______ _______ _____ _____    ______ ____
ROOT
ATOM      1  C   UNL     1      -3.306  -3.394  30.446  0.00  0.00    +0.017 C 
ATOM      2  C   UNL     1      -3.190  -4.301  31.480  0.00  0.00    +0.081 C 
ATOM      3  N   UNL     1      -2.223  -5.240  31.466  0.00  0.00    -0.248 NA
ATOM      4  C   UNL     1      -1.331  -5.334  30.442  0.00  0.00    +0.073 C 
ATOM      5  C   UNL     1      -1.387  -4.474  29.389  0.00  0.00    +0.003 C 
ATOM      6  C   UNL     1      -2.401  -3.498  29.419  0.00  0.00    -0.001 C 
ATOM      7  C   UNL     1      -0.246  -5.066  28.685  0.00  0.00    +0.076 C 
ATOM      8  C   UNL     1      -0.155  -6.001  29.821  0.00  0.00    +0.110 C 
ATOM      9  N   UNL     1       1.044  -5.908  30.637  0.00  0.00    -0.243 N 
ATOM     10  C   UNL     1       1.505  -4.781  31.304  0.00  0.00    +0.402 C 
ATOM     11  O   UNL     1       2.562  -4.818  31.973  0.00  0.00    -0.226 OA
ATOM     12  C   UNL     1       1.690  -7.222  30.656  0.00  0.00    +0.097 C 
ATOM     13  C   UNL     1       0.497  -8.168  30.502  0.00  0.00    +0.024 C 
ATOM     14  C   UNL     1      -0.404  -7.426  29.499  0.00  0.00    +0.025 C 
ATOM     15  C   UNL     1      -0.724  -5.695  27.390  0.00  0.00    +0.016 C 
ATOM     16  C   UNL     1       0.159  -6.864  27.100  0.00  0.00    +0.001 C 
ATOM     17  C   UNL     1       0.010  -7.898  28.153  0.00  0.00    +0.002 C 
ATOM     18  C   UNL     1      -4.077  -4.244  32.544  0.00  0.00    +0.019 C 
ATOM     19  C   UNL     1      -5.083  -3.303  32.608  0.00  0.00    +0.002 C 
ATOM     20  C   UNL     1      -5.202  -2.395  31.577  0.00  0.00    +0.000 C 
ATOM     21  C   UNL     1      -4.310  -2.458  30.512  0.00  0.00    +0.001 C 
ENDROOT
BRANCH  10  22
ATOM     22  O   UNL     1       0.807  -3.589  31.248  0.00  0.00    -0.466 OA
ATOM     23  H   UNL     1       0.013  -3.534  30.754  0.00  0.00    +0.297 HD
ENDBRANCH  10  22
BRANCH   7  24
ATOM     24  S   UNL     1       1.201  -3.996  28.488  0.00  0.00    -0.163 S 
ATOM     25  H   UNL     1       1.552  -3.482  29.697  0.00  0.00    +0.103 HD
ENDBRANCH   7  24
TORSDOF 2
