REMARK  Name = =
REMARK  0 active torsions:
REMARK  status: ('A' for Active; 'I' for Inactive)
REMARK                            x       y       z     vdW  Elec       q    Type
REMARK                         _______ _______ _______ _____ _____    ______ ____
ROOT
ATOM      1  C   UNL     1     -12.732 -42.719  26.914  0.00  0.00    +0.116 C 
ATOM      2  C   UNL     1     -14.062 -42.087  26.634  0.00  0.00    +0.133 C 
ATOM      3  S   UNL     1     -14.192 -41.335  24.961  0.00  0.00    -0.119 S 
ATOM      4  C   UNL     1     -15.513 -42.438  24.313  0.00  0.00    +0.081 C 
ATOM      5  C   UNL     1     -15.866 -43.210  25.564  0.00  0.00    +0.106 C 
ATOM      6  N   UNL     1     -14.648 -43.398  26.311  0.00  0.00    -0.271 N 
ATOM      7  C   UNL     1     -13.525 -43.965  27.011  0.00  0.00    +0.229 C 
ATOM      8  O   UNL     1     -13.314 -45.099  27.513  0.00  0.00    -0.275 OA
ENDROOT
TORSDOF 0
