REMARK  Name = =
REMARK  7 active torsions:
REMARK  status: ('A' for Active; 'I' for Inactive)
REMARK    1  A    between atoms: C_1  and  C_7
REMARK    2  A    between atoms: C_1  and  C_22
REMARK    3  A    between atoms: C_2  and  C_33
REMARK    4  A    between atoms: C_6  and  C_30
REMARK    5  A    between atoms: C_8  and  C_17
REMARK    6  A    between atoms: C_30  and  O_32
REMARK    7  A    between atoms: C_33  and  O_35
REMARK                            x       y       z     vdW  Elec       q    Type
REMARK                         _______ _______ _______ _____ _____    ______ ____
ROOT
ATOM      1  C   UNL     1     -11.485 -43.682  29.761  0.00  0.00    +0.077 C 
ATOM      2  C   UNL     1     -10.207 -43.155  30.234  0.00  0.00    +0.075 C 
ATOM      3  C   UNL     1      -9.075 -43.661  29.690  0.00  0.00    +0.065 C 
ATOM      4  N   UNL     1      -8.992 -44.652  28.700  0.00  0.00    -0.311 N 
ATOM      5  C   UNL     1     -10.244 -45.140  28.260  0.00  0.00    +0.065 C 
ATOM      6  C   UNL     1     -11.375 -44.730  28.715  0.00  0.00    +0.075 C 
ATOM      7  H   UNL     1      -8.135 -44.980  28.342  0.00  0.00    +0.152 HD
ENDROOT
BRANCH   1   8
ATOM      8  C   UNL     1     -12.492 -44.154  30.717  0.00  0.00    -0.015 C 
ATOM      9  C   UNL     1     -13.232 -43.473  31.598  0.00  0.00    +0.020 C 
ATOM     10  C   UNL     1     -13.954 -44.201  32.567  0.00  0.00    +0.079 C 
ATOM     11  N   UNL     1     -14.694 -43.534  33.462  0.00  0.00    -0.244 NA
ATOM     12  C   UNL     1     -15.389 -44.162  34.395  0.00  0.00    +0.099 C 
ATOM     13  C   UNL     1     -15.419 -45.544  34.535  0.00  0.00    +0.021 C 
ATOM     14  C   UNL     1     -14.660 -46.241  33.617  0.00  0.00    +0.003 C 
ATOM     15  C   UNL     1     -13.941 -45.575  32.651  0.00  0.00    +0.017 C 
ATOM     16  C   UNL     1     -13.192 -46.262  31.755  0.00  0.00    +0.001 C 
ATOM     17  C   UNL     1     -12.480 -45.604  30.809  0.00  0.00    -0.004 C 
BRANCH   9  18
ATOM     18  C   UNL     1     -13.430 -42.035  31.578  0.00  0.00    +0.169 C 
ATOM     19  N   UNL     1     -13.206 -41.367  32.840  0.00  0.00    -0.241 NA
ATOM     20  C   UNL     1     -14.259 -40.904  33.347  0.00  0.00    +0.195 C 
ATOM     21  N   UNL     1     -15.343 -41.196  32.508  0.00  0.00    -0.225 NA
ATOM     22  C   UNL     1     -14.951 -41.829  31.505  0.00  0.00    +0.103 C 
ENDBRANCH   9  18
ENDBRANCH   1   8
BRANCH   1  23
ATOM     23  C   UNL     1     -12.040 -42.491  28.874  0.00  0.00    +0.083 C 
ATOM     24  C   UNL     1     -12.970 -42.909  27.891  0.00  0.00    +0.131 C 
ATOM     25  S   UNL     1     -14.380 -41.781  27.494  0.00  0.00    -0.122 S 
ATOM     26  C   UNL     1     -14.149 -41.810  25.696  0.00  0.00    +0.076 C 
ATOM     27  C   UNL     1     -12.988 -42.792  25.587  0.00  0.00    +0.087 C 
ATOM     28  N   UNL     1     -12.158 -42.563  26.743  0.00  0.00    -0.240 NA
ATOM     29  C   UNL     1     -11.138 -42.255  27.664  0.00  0.00    +0.198 C 
ATOM     30  O   UNL     1      -9.946 -41.918  27.540  0.00  0.00    -0.207 OA
ENDBRANCH   1  23
BRANCH   6  31
ATOM     31  C   UNL     1     -12.584 -45.388  28.169  0.00  0.00    +0.336 C 
ATOM     32  O   UNL     1     -12.426 -46.222  27.253  0.00  0.00    -0.245 OA
BRANCH  31  33
ATOM     33  O   UNL     1     -13.876 -45.182  28.576  0.00  0.00    -0.477 OA
ATOM     34  H   UNL     1     -14.060 -44.568  29.260  0.00  0.00    +0.295 HD
ENDBRANCH  31  33
ENDBRANCH   6  31
BRANCH   2  35
ATOM     35  C   UNL     1      -9.935 -42.104  31.198  0.00  0.00    +0.336 C 
ATOM     36  O   UNL     1     -10.567 -41.134  31.549  0.00  0.00    -0.245 OA
BRANCH  35  37
ATOM     37  O   UNL     1      -8.684 -42.176  31.907  0.00  0.00    -0.477 OA
ATOM     38  H   UNL     1      -8.089 -42.879  31.736  0.00  0.00    +0.295 HD
ENDBRANCH  35  37
ENDBRANCH   2  35
TORSDOF 7
