REMARK  Name = =
REMARK  1 active torsions:
REMARK  status: ('A' for Active; 'I' for Inactive)
REMARK    1  A    between atoms: C_1  and  N_9
REMARK                            x       y       z     vdW  Elec       q    Type
REMARK                         _______ _______ _______ _____ _____    ______ ____
ROOT
ATOM      1  C   UNL     1      51.357 156.851  29.371  0.00  0.00    +0.193 C 
ATOM      2  N   UNL     1      50.047 156.705  29.910  0.00  0.00    -0.270 NA
ATOM      3  C   UNL     1      49.525 157.827  30.604  0.00  0.00    +0.072 C 
ATOM      4  C   UNL     1      50.046 159.154  30.225  0.00  0.00    +0.034 C 
ATOM      5  C   UNL     1      51.351 159.153  29.499  0.00  0.00    +0.072 C 
ATOM      6  N   UNL     1      52.085 157.980  29.943  0.00  0.00    -0.270 NA
ATOM      7  H   UNL     1      50.064 155.918  30.559  0.00  0.00    +0.126 HD
ATOM      8  H   UNL     1      53.044 158.003  29.596  0.00  0.00    +0.126 HD
ENDROOT
BRANCH   1  11
ATOM      9  C   UNL     1      51.975 154.572  28.612  0.00  0.00    +0.301 C 
ATOM     10  O   UNL     1      51.246 154.673  27.575  0.00  0.00    -0.265 OA
ATOM     11  N   UNL     1      52.087 155.618  29.564  0.00  0.00    -0.273 N 
ATOM     12  H   UNL     1      52.661 155.504  30.355  0.00  0.00    +0.152 HD
ENDBRANCH   1  11
TORSDOF 1
