REMARK  Name = =
REMARK  3 active torsions:
REMARK  status: ('A' for Active; 'I' for Inactive)
REMARK    1  A    between atoms: C_1  and  N_11
REMARK    2  A    between atoms: C_7  and  O_12
REMARK    3  A    between atoms: O_12  and  O_13
REMARK                            x       y       z     vdW  Elec       q    Type
REMARK                         _______ _______ _______ _____ _____    ______ ____
ROOT
ATOM      1  C   UNL     1      50.917 157.313  28.913  0.00  0.00    +0.218 C 
ATOM      2  N   UNL     1      51.259 158.565  29.443  0.00  0.00    -0.266 NA
ATOM      3  C   UNL     1      52.582 158.971  29.531  0.00  0.00    +0.073 C 
ATOM      4  C   UNL     1      53.656 158.019  29.195  0.00  0.00    +0.039 C 
ATOM      5  C   UNL     1      53.263 157.016  28.138  0.00  0.00    +0.101 C 
ATOM      6  N   UNL     1      51.961 156.499  28.399  0.00  0.00    -0.216 N 
ATOM      7  C   UNL     1      51.722 155.124  28.126  0.00  0.00    +0.437 C 
ATOM      8  O   UNL     1      50.589 154.624  28.340  0.00  0.00    -0.223 OA
ATOM      9  H   UNL     1      50.886 158.589  30.392  0.00  0.00    +0.126 HD
ENDROOT
BRANCH   1  12
ATOM     10  C   UNL     1      48.871 156.957  30.374  0.00  0.00    +0.302 C 
ATOM     11  O   UNL     1      48.368 158.031  29.949  0.00  0.00    -0.265 OA
ATOM     12  N   UNL     1      50.141 156.547  29.893  0.00  0.00    -0.270 N 
ATOM     13  H   UNL     1      50.521 155.705  30.235  0.00  0.00    +0.153 HD
ENDBRANCH   1  12
BRANCH   7  14
ATOM     14  O   UNL     1      52.695 154.269  27.622  0.00  0.00    -0.279 OA
BRANCH  14  15
ATOM     15  O   UNL     1      52.486 152.952  27.471  0.00  0.00    -0.197 OA
ATOM     16  H   UNL     1      53.284 152.538  27.107  0.00  0.00    +0.268 HD
ENDBRANCH  14  15
ENDBRANCH   7  14
TORSDOF 3
