REMARK  Name = =
REMARK  4 active torsions:
REMARK  status: ('A' for Active; 'I' for Inactive)
REMARK    1  A    between atoms: C_1  and  N_11
REMARK    2  A    between atoms: C_7  and  O_19
REMARK    3  A    between atoms: C_9  and  C_18
REMARK    4  A    between atoms: O_19  and  O_20
REMARK                            x       y       z     vdW  Elec       q    Type
REMARK                         _______ _______ _______ _____ _____    ______ ____
ROOT
ATOM      1  C   UNL     1      52.465 157.961  28.413  0.00  0.00    +0.218 C 
ATOM      2  N   UNL     1      53.833 157.714  27.987  0.00  0.00    -0.266 NA
ATOM      3  C   UNL     1      53.861 157.095  26.700  0.00  0.00    +0.073 C 
ATOM      4  C   UNL     1      53.186 155.723  26.720  0.00  0.00    +0.039 C 
ATOM      5  C   UNL     1      51.758 155.958  27.124  0.00  0.00    +0.101 C 
ATOM      6  N   UNL     1      51.734 156.717  28.355  0.00  0.00    -0.216 N 
ATOM      7  C   UNL     1      51.005 156.227  29.447  0.00  0.00    +0.437 C 
ATOM      8  O   UNL     1      50.937 156.830  30.541  0.00  0.00    -0.223 OA
ATOM      9  H   UNL     1      54.288 157.100  28.663  0.00  0.00    +0.126 HD
ENDROOT
BRANCH   1  12
ATOM     10  C   UNL     1      51.484 159.665  29.904  0.00  0.00    +0.247 C 
ATOM     11  O   UNL     1      50.718 160.002  28.955  0.00  0.00    -0.270 OA
ATOM     12  N   UNL     1      52.429 158.596  29.687  0.00  0.00    -0.274 N 
ATOM     13  H   UNL     1      53.038 158.311  30.407  0.00  0.00    +0.152 HD
BRANCH  10  20
ATOM     14  C   UNL     1      49.140 160.925  30.886  0.00  0.00    +0.022 C 
ATOM     15  C   UNL     1      48.006 161.634  31.572  0.00  0.00    +0.004 C 
ATOM     16  C   UNL     1      47.936 161.466  33.042  0.00  0.00    +0.001 C 
ATOM     17  C   UNL     1      49.186 161.016  33.709  0.00  0.00    +0.004 C 
ATOM     18  C   UNL     1      50.435 161.522  33.010  0.00  0.00    +0.022 C 
ATOM     19  C   UNL     1      50.375 160.882  31.649  0.00  0.00    -0.040 C 
ATOM     20  C   UNL     1      51.458 160.305  31.206  0.00  0.00    +0.049 C 
ENDBRANCH  10  20
ENDBRANCH   1  12
BRANCH   7  21
ATOM     21  O   UNL     1      50.306 155.014  29.364  0.00  0.00    -0.279 OA
BRANCH  21  22
ATOM     22  O   UNL     1      49.411 154.716  30.305  0.00  0.00    -0.197 OA
ATOM     23  H   UNL     1      49.014 153.852  30.112  0.00  0.00    +0.268 HD
ENDBRANCH  21  22
ENDBRANCH   7  21
TORSDOF 4
