REMARK  Name = =
REMARK  6 active torsions:
REMARK  status: ('A' for Active; 'I' for Inactive)
REMARK    1  A    between atoms: C_1  and  N_10
REMARK    2  A    between atoms: C_7  and  C_14
REMARK    3  A    between atoms: C_8  and  C_12
REMARK    4  A    between atoms: N_16  and  C_17
REMARK    5  A    between atoms: C_23  and  O_25
REMARK    6  A    between atoms: O_25  and  O_26
REMARK                            x       y       z     vdW  Elec       q    Type
REMARK                         _______ _______ _______ _____ _____    ______ ____
ROOT
ATOM      1  C   UNL     1      52.766 157.048  28.149  0.00  0.00    +0.091 C 
ATOM      2  C   UNL     1      52.804 155.804  28.994  0.00  0.00    +0.024 C 
ATOM      3  C   UNL     1      51.527 155.050  28.947  0.00  0.00    +0.002 C 
ATOM      4  C   UNL     1      50.295 155.843  29.141  0.00  0.00    +0.004 C 
ATOM      5  C   UNL     1      50.342 157.261  28.587  0.00  0.00    +0.024 C 
ATOM      6  C   UNL     1      51.636 157.894  28.760  0.00  0.00    -0.022 C 
ATOM      7  C   UNL     1      51.943 158.990  29.308  0.00  0.00    +0.051 C 
ENDROOT
BRANCH   1  10
ATOM      8  C   UNL     1      54.608 157.970  26.842  0.00  0.00    +0.299 C 
ATOM      9  O   UNL     1      54.057 157.486  25.790  0.00  0.00    -0.265 OA
ATOM     10  N   UNL     1      53.980 157.772  28.102  0.00  0.00    -0.295 N 
ATOM     11  H   UNL     1      54.382 158.132  28.925  0.00  0.00    +0.150 HD
BRANCH   8  13
ATOM     12  N   UNL     1      56.676 158.506  25.546  0.00  0.00    -0.322 N 
ATOM     13  C   UNL     1      55.851 158.697  26.682  0.00  0.00    +0.296 C 
ATOM     14  O   UNL     1      56.217 159.514  27.555  0.00  0.00    -0.265 OA
ATOM     15  H   UNL     1      56.409 157.868  24.845  0.00  0.00    +0.145 HD
ATOM     16  H   UNL     1      57.516 159.011  25.457  0.00  0.00    +0.145 HD
ENDBRANCH   8  13
ENDBRANCH   1  10
BRANCH   7  17
ATOM     17  C   UNL     1      51.256 160.043  29.970  0.00  0.00    +0.247 C 
ATOM     18  O   UNL     1      51.990 161.034  30.419  0.00  0.00    -0.270 OA
ATOM     19  N   UNL     1      49.901 160.246  30.252  0.00  0.00    -0.274 N 
ATOM     20  H   UNL     1      49.254 159.563  29.962  0.00  0.00    +0.152 HD
BRANCH  19  21
ATOM     21  C   UNL     1      49.403 161.415  30.952  0.00  0.00    +0.218 C 
ATOM     22  N   UNL     1      48.091 161.797  30.523  0.00  0.00    -0.266 NA
ATOM     23  C   UNL     1      47.794 163.098  31.011  0.00  0.00    +0.073 C 
ATOM     24  C   UNL     1      47.957 163.289  32.475  0.00  0.00    +0.039 C 
ATOM     25  C   UNL     1      48.935 162.410  33.146  0.00  0.00    +0.101 C 
ATOM     26  N   UNL     1      49.348 161.244  32.392  0.00  0.00    -0.216 N 
ATOM     27  C   UNL     1      49.662 160.040  33.063  0.00  0.00    +0.437 C 
ATOM     28  O   UNL     1      50.029 159.020  32.435  0.00  0.00    -0.223 OA
ATOM     29  H   UNL     1      47.407 161.133  30.887  0.00  0.00    +0.126 HD
BRANCH  27  30
ATOM     30  O   UNL     1      49.560 159.996  34.442  0.00  0.00    -0.279 OA
BRANCH  30  31
ATOM     31  O   UNL     1      50.066 158.983  35.138  0.00  0.00    -0.197 OA
ATOM     32  H   UNL     1      49.899 159.125  36.083  0.00  0.00    +0.268 HD
ENDBRANCH  30  31
ENDBRANCH  27  30
ENDBRANCH  19  21
ENDBRANCH   7  17
TORSDOF 6
