MODEL 1
REMARK VINA RESULT:    -8.839      0.000      0.000
REMARK INTER + INTRA:         -12.114
REMARK INTER:                 -12.198
REMARK INTRA:                   0.084
REMARK UNBOUND:                 0.084
REMARK  Name = =
REMARK  7 active torsions:
REMARK  status: ('A' for Active; 'I' for Inactive)
REMARK    1  A    between atoms: C_1  and  C_19
REMARK    2  A    between atoms: C_1  and  C_35
REMARK    3  A    between atoms: C_6  and  C_30
REMARK    4  A    between atoms: C_11  and  O_38
REMARK    5  A    between atoms: C_15  and  C_28
REMARK    6  A    between atoms: O_38  and  C_39
REMARK    7  A    between atoms: C_39  and  N_41
REMARK                            x       y       z     vdW  Elec       q    Type
REMARK                         _______ _______ _______ _____ _____    ______ ____
ROOT
ATOM      1  C   UNL     1      -0.371  -6.655  30.756  0.00  0.00    +0.020 C 
ATOM      2  C   UNL     1      -0.864  -8.018  30.176  0.00  0.00    +0.004 C 
ATOM      3  C   UNL     1      -1.039  -8.023  28.713  0.00  0.00    +0.000 C 
ATOM      4  C   UNL     1      -0.311  -9.152  28.001  0.00  0.00    +0.000 C 
ATOM      5  C   UNL     1      -0.274  -8.971  26.497  0.00  0.00    +0.001 C 
ATOM      6  C   UNL     1       1.023  -9.332  25.875  0.00  0.00    +0.017 C 
ATOM      7  C   UNL     1       1.773  -8.139  25.251  0.00  0.00    +0.004 C 
ATOM      8  C   UNL     1       1.967  -7.216  26.430  0.00  0.00    +0.032 C 
ATOM      9  C   UNL     1       2.918  -6.109  26.325  0.00  0.00    +0.146 C 
ATOM     10  O   UNL     1       3.793  -5.973  27.391  0.00  0.00    -0.321 OA
ATOM     11  C   UNL     1       3.276  -5.211  28.469  0.00  0.00    +0.289 C 
ATOM     12  C   UNL     1       2.487  -6.117  29.282  0.00  0.00    +0.076 C 
ATOM     13  C   UNL     1       2.095  -5.797  30.683  0.00  0.00    +0.007 C 
ATOM     14  C   UNL     1       1.019  -6.743  31.071  0.00  0.00    +0.004 C 
ENDROOT
BRANCH   1  19
ATOM     15  C   UNL     1      -2.933  -4.091  30.090  0.00  0.00    +0.073 C 
ATOM     16  C   UNL     1      -2.702  -3.687  28.794  0.00  0.00    +0.103 C 
ATOM     17  N   UNL     1      -1.684  -4.272  28.158  0.00  0.00    -0.242 NA
ATOM     18  C   UNL     1      -0.909  -5.210  28.734  0.00  0.00    +0.095 C 
ATOM     19  C   UNL     1      -1.065  -5.666  29.999  0.00  0.00    -0.003 C 
ATOM     20  C   UNL     1      -2.144  -5.049  30.681  0.00  0.00    +0.003 C 
BRANCH  15  28
ATOM     21  C   UNL     1      -5.152  -1.334  31.457  0.00  0.00    +0.154 C 
ATOM     22  N   UNL     1      -6.118  -2.037  32.081  0.00  0.00    -0.226 NA
ATOM     23  C   UNL     1      -7.131  -1.388  32.683  0.00  0.00    +0.121 C 
ATOM     24  C   UNL     1      -7.201  -0.016  32.676  0.00  0.00    +0.120 C 
ATOM     25  N   UNL     1      -6.248   0.690  32.062  0.00  0.00    -0.238 NA
ATOM     26  C   UNL     1      -5.237   0.023  31.460  0.00  0.00    +0.133 C 
ATOM     27  N   UNL     1      -4.091  -2.032  30.807  0.00  0.00    -0.265 N 
ATOM     28  C   UNL     1      -4.046  -3.452  30.804  0.00  0.00    +0.252 C 
ATOM     29  O   UNL     1      -4.950  -4.079  31.396  0.00  0.00    -0.270 OA
ATOM     30  H   UNL     1      -3.380  -1.522  30.354  0.00  0.00    +0.157 HD
ENDBRANCH  15  28
ENDBRANCH   1  19
BRANCH   6  31
ATOM     31  C   UNL     1       1.037 -10.436  24.900  0.00  0.00    +0.086 C 
ATOM     32  N   UNL     1       0.083 -11.498  25.167  0.00  0.00    -0.271 NA
ATOM     33  C   UNL     1       0.092 -12.228  23.908  0.00  0.00    +0.216 C 
ATOM     34  O   UNL     1       0.516 -11.375  22.921  0.00  0.00    -0.336 OA
ATOM     35  C   UNL     1       0.714 -10.100  23.486  0.00  0.00    +0.160 C 
ATOM     36  H   UNL     1      -0.843 -11.123  25.372  0.00  0.00    +0.126 HD
ENDBRANCH   6  31
BRANCH   1  37
ATOM     37  C   UNL     1      -1.040  -6.614  32.147  0.00  0.00    +0.004 C 
ATOM     38  C   UNL     1      -1.467  -7.980  32.725  0.00  0.00    +0.000 C 
ATOM     39  C   UNL     1      -0.442  -7.103  33.367  0.00  0.00    +0.000 C 
ENDBRANCH   1  37
BRANCH  11  40
ATOM     40  O   UNL     1       2.632  -4.052  27.997  0.00  0.00    -0.434 OA
BRANCH  40  41
ATOM     41  C   UNL     1       3.359  -2.902  27.729  0.00  0.00    +0.228 C 
ATOM     42  S   UNL     1       2.708  -1.405  27.730  0.00  0.00    +0.006 S 
BRANCH  41  43
ATOM     43  N   UNL     1       4.764  -2.997  27.433  0.00  0.00    -0.323 N 
ATOM     44  H   UNL     1       5.267  -2.194  27.167  0.00  0.00    +0.146 HD
ATOM     45  H   UNL     1       5.222  -3.866  27.498  0.00  0.00    +0.146 HD
ENDBRANCH  41  43
ENDBRANCH  40  41
ENDBRANCH  11  40
TORSDOF 7
ENDMDL
