REMARK  Name = =
REMARK  4 active torsions:
REMARK  status: ('A' for Active; 'I' for Inactive)
REMARK    1  A    between atoms: C_1  and  C_20
REMARK    2  A    between atoms: C_2  and  C_24
REMARK    3  A    between atoms: C_7  and  O_29
REMARK    4  A    between atoms: C_10  and  C_12
REMARK                            x       y       z     vdW  Elec       q    Type
REMARK                         _______ _______ _______ _____ _____    ______ ____
ROOT
ATOM      1  C   UNL     1     -21.914 -41.574  22.604  0.00  0.00    +0.024 A 
ATOM      2  C   UNL     1     -21.287 -41.422  23.852  0.00  0.00    +0.082 A 
ATOM      3  N   UNL     1     -22.268 -41.175  24.749  0.00  0.00    -0.274 N 
ATOM      4  C   UNL     1     -23.496 -41.175  24.116  0.00  0.00    +0.067 A 
ATOM      5  C   UNL     1     -23.256 -41.424  22.797  0.00  0.00    +0.019 A 
ATOM      6  C   UNL     1     -24.314 -41.478  21.889  0.00  0.00    +0.038 C 
ATOM      7  C   UNL     1     -25.618 -41.273  22.341  0.00  0.00    +0.134 C 
ATOM      8  C   UNL     1     -25.845 -41.023  23.664  0.00  0.00    +0.038 C 
ATOM      9  C   UNL     1     -24.781 -40.970  24.572  0.00  0.00    +0.021 C 
ATOM     10  C   UNL     1     -22.104 -40.782  26.102  0.00  0.00    +0.265 C 
ATOM     11  O   UNL     1     -21.016 -40.329  26.565  0.00  0.00    -0.267 OA
ENDROOT
BRANCH  10  12
ATOM     12  C   UNL     1     -23.145 -40.859  27.114  0.00  0.00    +0.057 C 
ATOM     13  C   UNL     1     -23.650 -39.655  27.631  0.00  0.00    +0.006 C 
ATOM     14  C   UNL     1     -24.651 -39.748  28.573  0.00  0.00    +0.012 C 
ATOM     15  C   UNL     1     -25.177 -40.937  29.031  0.00  0.00    +0.058 C 
ATOM     16  C   UNL     1     -24.665 -42.108  28.509  0.00  0.00    +0.012 C 
ATOM     17  C   UNL     1     -23.657 -42.058  27.558  0.00  0.00    +0.006 C 
ATOM     18 CL   UNL     1     -26.451 -40.964  30.234  0.00  0.00    -0.082 Cl
ENDBRANCH  10  12
BRANCH   1  20
ATOM     19  O   UNL     1     -20.252 -40.655  21.235  0.00  0.00    -0.352 OA
ATOM     20  C   UNL     1     -21.210 -41.750  21.310  0.00  0.00    +0.139 C 
ATOM     21  C   UNL     1     -21.987 -41.339  20.109  0.00  0.00    +0.037 C 
ATOM     22  C   UNL     1     -21.952 -40.021  19.956  0.00  0.00    +0.035 C 
ATOM     23  C   UNL     1     -21.111 -39.545  21.102  0.00  0.00    +0.143 C 
ENDBRANCH   1  20
BRANCH   2  24
ATOM     24  C   UNL     1     -19.850 -41.653  24.094  0.00  0.00    +0.117 C 
ATOM     25  N   UNL     1     -19.425 -42.798  24.546  0.00  0.00    -0.086 NA
ATOM     26  O   UNL     1     -18.101 -42.863  24.715  0.00  0.00    -0.377 OA
ATOM     27  C   UNL     1     -17.652 -41.546  24.908  0.00  0.00    +0.245 C 
ATOM     28  C   UNL     1     -18.661 -40.799  24.001  0.00  0.00    +0.101 C 
ENDBRANCH   2  24
BRANCH   7  29
ATOM     29  O   UNL     1     -26.664 -41.328  21.431  0.00  0.00    -0.506 OA
ATOM     30  H   UNL     1     -26.490 -41.501  20.527  0.00  0.00    +0.292 HD
ENDBRANCH   7  29
TORSDOF 4
