MODEL 1
REMARK VINA RESULT:    -9.283      0.000      0.000
REMARK INTER + INTRA:         -14.867
REMARK INTER:                 -13.895
REMARK INTRA:                  -0.971
REMARK UNBOUND:                -0.971
REMARK  Name = =
REMARK  10 active torsions:
REMARK  status: ('A' for Active; 'I' for Inactive)
REMARK    1  A    between atoms: N_1  and  N_15
REMARK    2  A    between atoms: N_1  and  O_33
REMARK    3  A    between atoms: C_2  and  C_8
REMARK    4  A    between atoms: N_3  and  N_4
REMARK    5  A    between atoms: N_10  and  S_11
REMARK    6  A    between atoms: S_11  and  N_14
REMARK    7  A    between atoms: N_15  and  C_19
REMARK    8  A    between atoms: C_16  and  C_30
REMARK    9  A    between atoms: C_26  and  C_27
REMARK   10  A    between atoms: C_27  and  O_29
REMARK                            x       y       z     vdW  Elec       q    Type
REMARK                         _______ _______ _______ _____ _____    ______ ____
ROOT
ATOM      1  N   UNL     1     -11.454 -44.615  31.492  0.00  0.00    -0.136 N 
ATOM      2  C   UNL     1     -11.160 -43.582  32.341  0.00  0.00    +0.255 C 
ATOM      3  N   UNL     1     -12.067 -43.002  33.037  0.00  0.00    -0.152 NA
ENDROOT
BRANCH   3   4
ATOM      4  N   UNL     1     -11.931 -41.964  33.923  0.00  0.00    -0.189 N 
ATOM      5  C   UNL     1     -13.119 -41.375  34.435  0.00  0.00    +0.317 C 
ATOM      6  O   UNL     1     -14.255 -41.825  34.058  0.00  0.00    -0.251 OA
ATOM      7  N   UNL     1     -13.148 -40.304  35.347  0.00  0.00    -0.312 N 
ATOM      8  H   UNL     1     -11.043 -41.639  34.194  0.00  0.00    +0.179 HD
ATOM      9  H   UNL     1     -12.306 -39.913  35.675  0.00  0.00    +0.147 HD
ATOM     10  H   UNL     1     -14.011 -39.944  35.657  0.00  0.00    +0.147 HD
ENDBRANCH   3   4
BRANCH   2  11
ATOM     11  C   UNL     1      -9.810 -43.062  32.505  0.00  0.00    +0.304 C 
ATOM     12  O   UNL     1      -9.637 -41.801  32.648  0.00  0.00    -0.265 OA
ATOM     13  N   UNL     1      -8.631 -43.824  32.522  0.00  0.00    -0.169 N 
ATOM     14  H   UNL     1      -8.691 -44.802  32.425  0.00  0.00    +0.178 HD
BRANCH  13  15
ATOM     15  S   UNL     1      -7.067 -43.084  32.708  0.00  0.00    +0.109 S 
ATOM     16  O   UNL     1      -6.013 -44.136  32.917  0.00  0.00    -0.138 OA
ATOM     17  O   UNL     1      -6.712 -42.336  31.457  0.00  0.00    -0.138 OA
BRANCH  15  18
ATOM     18  N   UNL     1      -7.023 -41.961  34.007  0.00  0.00    -0.191 NA
ATOM     19  H   UNL     1      -7.891 -41.426  34.024  0.00  0.00    +0.146 HD
ATOM     20  H   UNL     1      -6.234 -41.326  33.880  0.00  0.00    +0.146 HD
ENDBRANCH  15  18
ENDBRANCH  13  15
ENDBRANCH   2  11
BRANCH   1  21
ATOM     21  N   UNL     1     -12.507 -44.436  30.570  0.00  0.00    -0.144 N 
ATOM     22  C   UNL     1     -13.830 -44.780  30.896  0.00  0.00    +0.323 C 
ATOM     23  O   UNL     1     -14.733 -44.599  30.006  0.00  0.00    -0.263 OA
BRANCH  21  25
ATOM     24  N   UNL     1     -10.774 -43.315  29.197  0.00  0.00    -0.230 N 
ATOM     25  C   UNL     1     -12.082 -43.922  29.285  0.00  0.00    +0.197 C 
ATOM     26  C   UNL     1     -12.626 -42.622  28.866  0.00  0.00    +0.136 C 
ATOM     27  C   UNL     1     -11.387 -42.084  29.418  0.00  0.00    +0.236 C 
ATOM     28  O   UNL     1     -11.117 -40.917  29.880  0.00  0.00    -0.274 OA
ATOM     29  S   UNL     1     -12.013 -45.293  28.094  0.00  0.00    -0.097 S 
ATOM     30  C   UNL     1     -10.570 -46.196  28.780  0.00  0.00    +0.088 C 
ATOM     31  C   UNL     1      -9.426 -45.269  28.742  0.00  0.00    +0.007 C 
ATOM     32  C   UNL     1      -9.539 -43.976  28.933  0.00  0.00    +0.128 C 
BRANCH  32  33
ATOM     33  C   UNL     1      -8.298 -43.166  28.833  0.00  0.00    +0.352 C 
ATOM     34  O   UNL     1      -8.260 -42.099  28.190  0.00  0.00    -0.244 OA
BRANCH  33  35
ATOM     35  O   UNL     1      -7.165 -43.617  29.472  0.00  0.00    -0.476 OA
ATOM     36  H   UNL     1      -7.147 -43.678  30.406  0.00  0.00    +0.295 HD
ENDBRANCH  33  35
ENDBRANCH  32  33
ENDBRANCH  21  25
BRANCH  22  37
ATOM     37  C   UNL     1     -14.315 -45.322  32.141  0.00  0.00    +0.298 C 
ATOM     38  O   UNL     1     -14.494 -46.554  32.296  0.00  0.00    -0.265 OA
ATOM     39  N   UNL     1     -14.622 -44.504  33.258  0.00  0.00    -0.322 N 
ATOM     40  H   UNL     1     -14.503 -43.528  33.201  0.00  0.00    +0.145 HD
ATOM     41  H   UNL     1     -14.954 -44.911  34.091  0.00  0.00    +0.145 HD
ENDBRANCH  22  37
ENDBRANCH   1  21
BRANCH   1  42
ATOM     42  O   UNL     1     -11.031 -45.819  31.711  0.00  0.00    -0.267 OA
ATOM     43  H   UNL     1     -11.494 -46.436  31.124  0.00  0.00    +0.246 HD
ENDBRANCH   1  42
TORSDOF 10
ENDMDL
