REMARK  Name = =
REMARK  0 active torsions:
REMARK  status: ('A' for Active; 'I' for Inactive)
REMARK                            x       y       z     vdW  Elec       q    Type
REMARK                         _______ _______ _______ _____ _____    ______ ____
ROOT
ATOM      1  N   UNL     1      50.751 155.088  28.448  0.00  0.00    -0.278 N 
ATOM      2  C   UNL     1      51.814 155.513  27.606  0.00  0.00    +0.083 C 
ATOM      3  C   UNL     1      52.600 156.637  27.750  0.00  0.00    +0.155 C 
ATOM      4  N   UNL     1      53.572 156.928  26.892  0.00  0.00    -0.227 NA
ATOM      5  C   UNL     1      53.783 156.094  25.861  0.00  0.00    +0.100 C 
ATOM      6  C   UNL     1      53.032 154.954  25.660  0.00  0.00    +0.022 C 
ATOM      7  C   UNL     1      52.019 154.639  26.543  0.00  0.00    +0.019 C 
ATOM      8  N   UNL     1      52.514 157.635  28.796  0.00  0.00    -0.214 N 
ATOM      9  C   UNL     1      51.339 157.998  29.517  0.00  0.00    +0.064 C 
ATOM     10  C   UNL     1      50.281 157.179  29.847  0.00  0.00    +0.068 C 
ATOM     11  C   UNL     1      49.192 157.663  30.572  0.00  0.00    +0.006 C 
ATOM     12  C   UNL     1      49.211 158.989  30.945  0.00  0.00    +0.000 C 
ATOM     13  C   UNL     1      50.274 159.832  30.617  0.00  0.00    +0.001 C 
ATOM     14  C   UNL     1      51.348 159.328  29.894  0.00  0.00    +0.015 C 
ATOM     15  C   UNL     1      50.091 155.759  29.517  0.00  0.00    +0.251 C 
ATOM     16  O   UNL     1      49.294 155.098  30.222  0.00  0.00    -0.270 OA
ATOM     17  C   UNL     1      53.700 158.315  29.124  0.00  0.00    +0.312 C 
ATOM     18  O   UNL     1      54.746 158.057  28.478  0.00  0.00    -0.264 OA
ATOM     19  H   UNL     1      50.416 154.181  28.262  0.00  0.00    +0.155 HD
ENDROOT
TORSDOF 0
