REMARK  Name = =
REMARK  1 active torsions:
REMARK  status: ('A' for Active; 'I' for Inactive)
REMARK    1  A    between atoms: N_1  and  C_22
REMARK                            x       y       z     vdW  Elec       q    Type
REMARK                         _______ _______ _______ _____ _____    ______ ____
ROOT
ATOM      1  N   UNL     1      51.713 154.827  27.979  0.00  0.00    -0.254 N 
ATOM      2  C   UNL     1      52.669 155.664  27.344  0.00  0.00    +0.087 C 
ATOM      3  C   UNL     1      53.139 156.953  27.646  0.00  0.00    +0.155 C 
ATOM      4  N   UNL     1      54.062 157.563  26.891  0.00  0.00    -0.227 NA
ATOM      5  C   UNL     1      54.583 156.966  25.805  0.00  0.00    +0.100 C 
ATOM      6  C   UNL     1      54.173 155.708  25.448  0.00  0.00    +0.022 C 
ATOM      7  C   UNL     1      53.202 155.059  26.238  0.00  0.00    +0.019 C 
ATOM      8  N   UNL     1      52.761 157.806  28.751  0.00  0.00    -0.214 N 
ATOM      9  C   UNL     1      51.529 157.755  29.456  0.00  0.00    +0.064 C 
ATOM     10  C   UNL     1      50.724 156.654  29.655  0.00  0.00    +0.068 C 
ATOM     11  C   UNL     1      49.550 156.745  30.380  0.00  0.00    +0.006 C 
ATOM     12  C   UNL     1      49.173 157.955  30.916  0.00  0.00    +0.000 C 
ATOM     13  C   UNL     1      49.973 159.088  30.726  0.00  0.00    +0.001 C 
ATOM     14  C   UNL     1      51.143 158.952  29.992  0.00  0.00    +0.015 C 
ATOM     15  C   UNL     1      50.960 155.322  29.140  0.00  0.00    +0.254 C 
ATOM     16  O   UNL     1      50.423 154.408  29.806  0.00  0.00    -0.270 OA
ATOM     17  C   UNL     1      53.686 158.783  29.174  0.00  0.00    +0.312 C 
ATOM     18  O   UNL     1      54.797 158.956  28.589  0.00  0.00    -0.264 OA
ENDROOT
BRANCH   1  22
ATOM     19  C   UNL     1      51.763 153.012  26.149  0.00  0.00    +0.020 C 
ATOM     20  C   UNL     1      51.601 151.616  26.785  0.00  0.00    +0.003 C 
ATOM     21  C   UNL     1      51.634 152.244  28.200  0.00  0.00    +0.020 C 
ATOM     22  C   UNL     1      51.498 153.533  27.516  0.00  0.00    +0.080 C 
ENDBRANCH   1  22
TORSDOF 1
