MODEL 1
REMARK VINA RESULT:    -7.734      0.000      0.000
REMARK INTER + INTRA:         -13.154
REMARK INTER:                 -10.899
REMARK INTRA:                  -2.254
REMARK UNBOUND:                -2.254
REMARK  Name = =
REMARK  8 active torsions:
REMARK  status: ('A' for Active; 'I' for Inactive)
REMARK    1  A    between atoms: C_1  and  C_20
REMARK    2  A    between atoms: C_2  and  O_39
REMARK    3  A    between atoms: C_20  and  C_23
REMARK    4  A    between atoms: C_27  and  N_33
REMARK    5  A    between atoms: O_39  and  C_40
REMARK    6  A    between atoms: C_42  and  O_49
REMARK    7  A    between atoms: C_44  and  O_48
REMARK    8  A    between atoms: C_45  and  C_46
REMARK                            x       y       z     vdW  Elec       q    Type
REMARK                         _______ _______ _______ _____ _____    ______ ____
ROOT
ATOM      1  C   UNL     1       4.091  -5.836  26.912  0.00  0.00    +0.013 C 
ATOM      2  C   UNL     1       4.049  -7.221  27.125  0.00  0.00    +0.147 C 
ATOM      3  C   UNL     1       5.143  -8.007  27.371  0.00  0.00    +0.101 C 
ATOM      4  C   UNL     1       6.397  -7.399  27.412  0.00  0.00    +0.064 C 
ATOM      5  N   UNL     1       7.639  -8.063  27.653  0.00  0.00    -0.249 N 
ATOM      6  C   UNL     1       8.682  -7.424  28.162  0.00  0.00    +0.172 C 
ATOM      7  N   UNL     1       9.668  -8.333  28.256  0.00  0.00    -0.225 NA
ATOM      8  C   UNL     1       9.208  -9.535  27.797  0.00  0.00    +0.113 C 
ATOM      9  C   UNL     1       7.896  -9.369  27.405  0.00  0.00    +0.073 C 
ATOM     10  C   UNL     1       7.082 -10.465  26.854  0.00  0.00    +0.134 C 
ATOM     11  N   UNL     1       5.717 -10.501  27.319  0.00  0.00    -0.296 N 
ATOM     12  C   UNL     1       4.839  -9.441  27.589  0.00  0.00    +0.250 C 
ATOM     13  O   UNL     1       3.687  -9.635  28.056  0.00  0.00    -0.270 OA
ATOM     14  C   UNL     1       6.517  -6.054  27.210  0.00  0.00    +0.015 C 
ATOM     15  C   UNL     1       5.377  -5.293  26.967  0.00  0.00    +0.000 C 
ATOM     16  H   UNL     1       5.347 -11.401  27.469  0.00  0.00    +0.150 HD
ENDROOT
BRANCH   1  21
ATOM     17  N   UNL     1       3.569  -3.384  24.402  0.00  0.00    -0.304 N 
ATOM     18  C   UNL     1       2.735  -4.506  24.314  0.00  0.00    +0.223 C 
ATOM     19  O   UNL     1       2.523  -5.068  23.215  0.00  0.00    -0.275 OA
ATOM     20  C   UNL     1       2.109  -5.016  25.530  0.00  0.00    +0.090 C 
ATOM     21  C   UNL     1       2.900  -5.031  26.785  0.00  0.00    +0.036 C 
ATOM     22  C   UNL     1       3.394  -3.539  26.818  0.00  0.00    +0.026 C 
ATOM     23  C   UNL     1       4.268  -3.193  25.662  0.00  0.00    +0.090 C 
ATOM     24  H   UNL     1       3.676  -2.757  23.649  0.00  0.00    +0.149 HD
BRANCH  21  25
ATOM     25  C   UNL     1       1.963  -5.056  27.961  0.00  0.00    +0.026 C 
ATOM     26  C   UNL     1       2.065  -3.937  28.935  0.00  0.00    +0.005 C 
ATOM     27  C   UNL     1       1.271  -4.320  30.172  0.00  0.00    +0.006 C 
ATOM     28  C   UNL     1      -0.114  -4.758  29.906  0.00  0.00    +0.036 C 
ATOM     29  C   UNL     1      -0.508  -5.881  30.824  0.00  0.00    +0.062 C 
ATOM     30  C   UNL     1       0.478  -7.010  30.637  0.00  0.00    +0.016 C 
ATOM     31  C   UNL     1       1.804  -6.570  31.168  0.00  0.00    +0.001 C 
ATOM     32  C   UNL     1       2.033  -5.098  31.171  0.00  0.00    +0.000 C 
ATOM     33  C   UNL     1      -0.409  -5.132  28.497  0.00  0.00    -0.030 C 
ATOM     34  C   UNL     1       0.536  -5.277  27.576  0.00  0.00    -0.031 C 
BRANCH  29  35
ATOM     35  N   UNL     1      -1.830  -6.356  30.469  0.00  0.00    -0.271 NA
ATOM     36  C   UNL     1      -1.864  -7.782  30.720  0.00  0.00    +0.089 C 
ATOM     37  C   UNL     1      -3.251  -8.249  31.103  0.00  0.00    +0.086 C 
ATOM     38  N   UNL     1      -3.682  -7.670  32.361  0.00  0.00    -0.295 NA
ATOM     39  C   UNL     1      -3.075  -6.376  32.592  0.00  0.00    +0.086 C 
ATOM     40  C   UNL     1      -2.853  -5.721  31.244  0.00  0.00    +0.089 C 
ATOM     41  H   UNL     1      -3.420  -8.298  33.121  0.00  0.00    +0.123 HD
ENDBRANCH  29  35
ENDBRANCH  21  25
ENDBRANCH   1  21
BRANCH   2  42
ATOM     42  O   UNL     1       2.841  -7.922  27.088  0.00  0.00    -0.453 OA
BRANCH  42  43
ATOM     43  C   UNL     1       2.374  -8.346  25.813  0.00  0.00    +0.154 C 
ATOM     44  C   UNL     1       3.156  -8.236  24.718  0.00  0.00    +0.074 C 
ATOM     45  C   UNL     1       2.672  -8.656  23.504  0.00  0.00    +0.140 C 
ATOM     46  C   UNL     1       1.401  -9.176  23.438  0.00  0.00    +0.073 C 
ATOM     47  C   UNL     1       0.609  -9.278  24.593  0.00  0.00    +0.143 C 
ATOM     48  C   UNL     1       1.071  -8.867  25.813  0.00  0.00    +0.110 C 
BRANCH  48  49
ATOM     49  C   UNL     1       0.317  -8.938  27.053  0.00  0.00    +0.240 C 
ATOM     50  O   UNL     1      -0.827  -8.498  27.234  0.00  0.00    -0.283 OA
ENDBRANCH  48  49
BRANCH  47  51
ATOM     51  O   UNL     1      -0.640  -9.808  24.428  0.00  0.00    -0.505 OA
ATOM     52  H   UNL     1      -0.839 -10.312  23.663  0.00  0.00    +0.292 HD
ENDBRANCH  47  51
BRANCH  45  53
ATOM     53  O   UNL     1       3.497  -8.534  22.387  0.00  0.00    -0.505 OA
ATOM     54  H   UNL     1       3.744  -9.297  21.903  0.00  0.00    +0.292 HD
ENDBRANCH  45  53
ENDBRANCH  42  43
ENDBRANCH   2  42
TORSDOF 8
ENDMDL
