MODEL 1
REMARK VINA RESULT:   -10.335      0.000      0.000
REMARK INTER + INTRA:         -16.515
REMARK INTER:                 -15.169
REMARK INTRA:                  -1.346
REMARK UNBOUND:                -1.346
REMARK  Name = =
REMARK  8 active torsions:
REMARK  status: ('A' for Active; 'I' for Inactive)
REMARK    1  A    between atoms: C_1  and  O_23
REMARK    2  A    between atoms: C_2  and  N_7
REMARK    3  A    between atoms: C_3  and  N_21
REMARK    4  A    between atoms: C_13  and  N_16
REMARK    5  A    between atoms: O_23  and  N_24
REMARK    6  A    between atoms: N_24  and  C_27
REMARK    7  A    between atoms: N_24  and  C_31
REMARK    8  A    between atoms: C_32  and  N_33
REMARK                            x       y       z     vdW  Elec       q    Type
REMARK                         _______ _______ _______ _____ _____    ______ ____
ROOT
ATOM      1  C   UNL     1      -0.921  -4.164  29.679  0.00  0.00    +0.192 C 
ATOM      2  C   UNL     1       0.089  -5.092  29.626  0.00  0.00    +0.137 C 
ATOM      3  C   UNL     1       0.692  -5.401  28.420  0.00  0.00    +0.209 C 
ATOM      4  N   UNL     1       0.291  -4.792  27.272  0.00  0.00    -0.222 NA
ATOM      5  C   UNL     1      -0.695  -3.881  27.305  0.00  0.00    +0.104 C 
ATOM      6  C   UNL     1      -1.307  -3.562  28.505  0.00  0.00    +0.062 C 
ENDROOT
BRANCH   2   7
ATOM      7  N   UNL     1       0.514  -5.731  30.815  0.00  0.00    -0.184 N 
ATOM      8  C   UNL     1      -0.091  -6.954  31.193  0.00  0.00    +0.320 C 
ATOM      9  O   UNL     1      -0.988  -7.470  30.486  0.00  0.00    -0.251 OA
ATOM     10  N   UNL     1       0.325  -7.619  32.408  0.00  0.00    -0.237 N 
ATOM     11  C   UNL     1       1.339  -7.023  33.197  0.00  0.00    +0.258 C 
ATOM     12  O   UNL     1       1.423  -7.355  34.422  0.00  0.00    -0.272 OA
ATOM     13  C   UNL     1       2.253  -6.045  32.571  0.00  0.00    +0.249 C 
ATOM     14  C   UNL     1       1.520  -5.185  31.643  0.00  0.00    +0.266 C 
ATOM     15  O   UNL     1       1.817  -3.962  31.611  0.00  0.00    -0.272 OA
ATOM     16  H   UNL     1      -0.089  -8.469  32.682  0.00  0.00    +0.159 HD
BRANCH  13  17
ATOM     17  N   UNL     1       2.986  -5.277  33.563  0.00  0.00    -0.194 N 
ATOM     18  N   UNL     1       4.286  -5.109  33.608  0.00  0.00    -0.175 NA
ATOM     19  C   UNL     1       4.657  -4.342  34.645  0.00  0.00    +0.119 C 
ATOM     20  C   UNL     1       3.493  -3.984  35.329  0.00  0.00    +0.040 C 
ATOM     21  C   UNL     1       2.476  -4.591  34.612  0.00  0.00    +0.087 C 
ENDBRANCH  13  17
ENDBRANCH   2   7
BRANCH   3  22
ATOM     22  N   UNL     1       1.733  -6.344  28.310  0.00  0.00    -0.075 NA
ATOM     23  O   UNL     1       2.749  -6.088  27.634  0.00  0.00    -0.059 OA
ENDBRANCH   3  22
BRANCH   1  24
ATOM     24  O   UNL     1      -1.519  -3.858  30.885  0.00  0.00    -0.370 OA
BRANCH  24  25
ATOM     25  N   UNL     1      -2.864  -3.965  31.116  0.00  0.00    -0.171 N 
BRANCH  25  28
ATOM     26  C   UNL     1      -4.329  -7.333  31.478  0.00  0.00    +0.002 C 
ATOM     27  C   UNL     1      -3.824  -6.215  30.881  0.00  0.00    +0.021 C 
ATOM     28  C   UNL     1      -3.405  -5.171  31.660  0.00  0.00    +0.098 C 
ATOM     29  C   UNL     1      -3.507  -5.285  33.034  0.00  0.00    +0.021 C 
ATOM     30  C   UNL     1      -4.012  -6.404  33.652  0.00  0.00    +0.002 C 
ATOM     31  C   UNL     1      -4.426  -7.439  32.843  0.00  0.00    +0.000 C 
ENDBRANCH  25  28
BRANCH  25  32
ATOM     32  C   UNL     1      -3.772  -2.905  30.835  0.00  0.00    +0.134 C 
ATOM     33  C   UNL     1      -4.481  -2.310  31.780  0.00  0.00    +0.097 C 
BRANCH  33  34
ATOM     34  N   UNL     1      -5.388  -1.252  31.517  0.00  0.00    -0.197 N 
ATOM     35  C   UNL     1      -6.802  -1.407  31.696  0.00  0.00    +0.233 C 
ATOM     36  N   UNL     1      -7.645  -0.384  31.489  0.00  0.00    -0.191 NA
ATOM     37  C   UNL     1      -8.978  -0.460  31.638  0.00  0.00    +0.203 C 
ATOM     38  N   UNL     1      -9.487  -1.656  32.022  0.00  0.00    -0.202 NA
ATOM     39  C   UNL     1      -8.665  -2.700  32.236  0.00  0.00    +0.203 C 
ATOM     40  N   UNL     1      -7.336  -2.582  32.076  0.00  0.00    -0.191 NA
ATOM     41  C   UNL     1      -4.877  -0.012  31.069  0.00  0.00    +0.313 C 
ATOM     42  O   UNL     1      -5.690   0.936  30.837  0.00  0.00    -0.264 OA
ENDBRANCH  33  34
ENDBRANCH  25  32
ENDBRANCH  24  25
ENDBRANCH   1  24
TORSDOF 8
ENDMDL
