MODEL 1
REMARK VINA RESULT:    -6.485      0.000      0.000
REMARK INTER + INTRA:         -12.346
REMARK INTER:                  -9.897
REMARK INTRA:                  -2.449
REMARK UNBOUND:                -2.449
REMARK  Name = =
REMARK  11 active torsions:
REMARK  status: ('A' for Active; 'I' for Inactive)
REMARK    1  A    between atoms: C_1  and  O_25
REMARK    2  A    between atoms: C_3  and  S_13
REMARK    3  A    between atoms: S_13  and  P_14
REMARK    4  A    between atoms: S_13  and  N_18
REMARK    5  A    between atoms: P_14  and  O_16
REMARK    6  A    between atoms: P_14  and  O_17
REMARK    7  A    between atoms: N_18  and  C_19
REMARK    8  A    between atoms: N_18  and  N_24
REMARK    9  A    between atoms: O_25  and  C_27
REMARK   10  A    between atoms: C_26  and  O_32
REMARK   11  A    between atoms: C_29  and  C_33
REMARK                            x       y       z     vdW  Elec       q    Type
REMARK                         _______ _______ _______ _____ _____    ______ ____
ROOT
ATOM      1  C   UNL     1      61.611 162.590  38.286  0.00  0.00    +0.228 C 
ATOM      2  N   UNL     1      61.615 163.622  37.536  0.00  0.00    -0.219 NA
ATOM      3  C   UNL     1      60.665 164.117  36.611  0.00  0.00    +0.231 C 
ATOM      4  C   UNL     1      59.771 163.110  35.993  0.00  0.00    +0.259 C 
ATOM      5  O   UNL     1      59.553 163.204  34.734  0.00  0.00    -0.272 OA
ATOM      6  N   UNL     1      59.085 162.016  36.577  0.00  0.00    -0.281 N 
ATOM      7  C   UNL     1      59.515 161.274  37.712  0.00  0.00    +0.055 C 
ATOM      8  C   UNL     1      60.648 161.512  38.497  0.00  0.00    +0.067 C 
ATOM      9  C   UNL     1      60.884 160.676  39.543  0.00  0.00    +0.006 C 
ATOM     10  C   UNL     1      60.079 159.611  39.879  0.00  0.00    +0.000 C 
ATOM     11  C   UNL     1      58.961 159.376  39.103  0.00  0.00    +0.001 C 
ATOM     12  C   UNL     1      58.700 160.214  38.034  0.00  0.00    +0.015 C 
ATOM     13  H   UNL     1      58.235 161.745  36.159  0.00  0.00    +0.155 HD
ENDROOT
BRANCH   3  14
ATOM     14  S   UNL     1      61.338 165.064  35.344  0.00  0.00    -0.070 S 
ATOM     15  H   UNL     1      61.139 164.385  34.183  0.00  0.00    +0.110 HD
BRANCH  14  16
ATOM     16  P   UNL     1      60.447 166.583  35.046  0.00  0.00    +0.221 P 
ATOM     17  S   UNL     1      60.283 167.537  36.491  0.00  0.00    +0.002 S 
BRANCH  16  18
ATOM     18  O   UNL     1      58.851 166.239  34.546  0.00  0.00    -0.340 OA
ATOM     19  H   UNL     1      58.338 167.061  34.514  0.00  0.00    +0.218 HD
ENDBRANCH  16  18
BRANCH  16  20
ATOM     20  O   UNL     1      61.208 167.546  33.889  0.00  0.00    -0.340 OA
ATOM     21  H   UNL     1      61.352 168.434  34.251  0.00  0.00    +0.218 HD
ENDBRANCH  16  20
ENDBRANCH  14  16
BRANCH  14  22
ATOM     22  N   UNL     1      62.920 165.163  35.424  0.00  0.00    -0.138 NA
BRANCH  22  23
ATOM     23  C   UNL     1      63.645 165.592  34.229  0.00  0.00    +0.330 C 
ATOM     24  O   UNL     1      64.780 164.806  34.055  0.00  0.00    -0.313 OA
ATOM     25  C   UNL     1      65.815 165.641  33.709  0.00  0.00    +0.178 C 
ATOM     26  C   UNL     1      65.277 167.031  33.793  0.00  0.00    +0.178 C 
ATOM     27  O   UNL     1      64.094 166.883  34.484  0.00  0.00    -0.313 OA
ENDBRANCH  22  23
BRANCH  22  28
ATOM     28  N   UNL     1      63.496 165.817  36.502  0.00  0.00    -0.255 NA
ATOM     29  H   UNL     1      63.874 166.713  36.194  0.00  0.00    +0.138 HD
ATOM     30  H   UNL     1      64.248 165.244  36.886  0.00  0.00    +0.138 HD
ENDBRANCH  22  28
ENDBRANCH  14  22
ENDBRANCH   3  14
BRANCH   1  31
ATOM     31  O   UNL     1      62.763 162.492  39.041  0.00  0.00    -0.433 OA
BRANCH  31  33
ATOM     32  C   UNL     1      64.951 163.064  38.364  0.00  0.00    +0.168 C 
ATOM     33  C   UNL     1      63.969 162.077  38.512  0.00  0.00    +0.181 C 
ATOM     34  C   UNL     1      64.303 160.812  38.121  0.00  0.00    +0.044 C 
ATOM     35  C   UNL     1      65.569 160.504  37.596  0.00  0.00    +0.045 C 
ATOM     36  C   UNL     1      66.525 161.490  37.455  0.00  0.00    +0.007 C 
ATOM     37  C   UNL     1      66.211 162.760  37.840  0.00  0.00    +0.040 C 
BRANCH  32  38
ATOM     38  O   UNL     1      64.674 164.360  38.739  0.00  0.00    -0.503 OA
ATOM     39  H   UNL     1      63.981 164.831  38.321  0.00  0.00    +0.292 HD
ENDBRANCH  32  38
BRANCH  35  40
ATOM     40  C   UNL     1      65.872 159.144  37.190  0.00  0.00    +0.234 C 
ATOM     41  O   UNL     1      65.489 158.748  36.069  0.00  0.00    -0.283 OA
ENDBRANCH  35  40
ENDBRANCH  31  33
ENDBRANCH   1  31
TORSDOF 11
ENDMDL
