REMARK  Name = =
REMARK  0 active torsions:
REMARK  status: ('A' for Active; 'I' for Inactive)
REMARK                            x       y       z     vdW  Elec       q    Type
REMARK                         _______ _______ _______ _____ _____    ______ ____
ROOT
ATOM      1  C   UNL     1      -4.398  -3.902  30.821  0.00  0.00    +0.076 C 
ATOM      2  S   UNL     1      -3.691  -5.432  31.560  0.00  0.00    -0.121 S 
ATOM      3  C   UNL     1      -2.169  -5.444  30.526  0.00  0.00    +0.128 C 
ATOM      4  N   UNL     1      -2.386  -4.357  29.640  0.00  0.00    -0.288 NA
ATOM      5  C   UNL     1      -3.077  -3.310  30.306  0.00  0.00    +0.081 C 
ATOM      6  H   UNL     1      -1.487  -4.009  29.308  0.00  0.00    +0.124 HD
ENDROOT
TORSDOF 0
