MODEL 1
REMARK VINA RESULT:    -9.631      0.000      0.000
REMARK INTER + INTRA:         -12.880
REMARK INTER:                 -11.883
REMARK INTRA:                  -0.997
REMARK UNBOUND:                -0.997
REMARK  Name = =
REMARK  4 active torsions:
REMARK  status: ('A' for Active; 'I' for Inactive)
REMARK    1  A    between atoms: C_1  and  N_21
REMARK    2  A    between atoms: C_2  and  C_7
REMARK    3  A    between atoms: C_7  and  C_13
REMARK    4  A    between atoms: N_21  and  C_22
REMARK                            x       y       z     vdW  Elec       q    Type
REMARK                         _______ _______ _______ _____ _____    ______ ____
ROOT
ATOM      1  C   UNL     1       3.101  -4.148  26.813  0.00  0.00    +0.076 C 
ATOM      2  C   UNL     1       4.525  -4.519  27.103  0.00  0.00    +0.045 C 
ATOM      3  C   UNL     1       5.315  -3.379  27.649  0.00  0.00    +0.004 C 
ATOM      4  C   UNL     1       5.290  -2.171  26.724  0.00  0.00    +0.000 C 
ATOM      5  C   UNL     1       3.818  -1.806  26.573  0.00  0.00    +0.001 C 
ATOM      6  C   UNL     1       3.066  -2.913  25.877  0.00  0.00    +0.017 C 
ENDROOT
BRANCH   2   7
ATOM      7  C   UNL     1       5.248  -5.233  25.984  0.00  0.00    +0.113 C 
ATOM      8  C   UNL     1       4.319  -5.519  24.857  0.00  0.00    +0.032 C 
ATOM      9  C   UNL     1       4.998  -6.457  23.882  0.00  0.00    +0.005 C 
ATOM     10  C   UNL     1       6.385  -5.991  23.583  0.00  0.00    +0.032 C 
ATOM     11  C   UNL     1       6.574  -4.609  24.185  0.00  0.00    +0.142 C 
ATOM     12  O   UNL     1       6.373  -4.590  25.551  0.00  0.00    -0.354 OA
BRANCH   7  13
ATOM     13  C   UNL     1       5.667  -6.540  26.593  0.00  0.00    +0.003 C 
ATOM     14  C   UNL     1       4.718  -7.515  26.731  0.00  0.00    +0.010 C 
ATOM     15  C   UNL     1       5.095  -8.724  27.336  0.00  0.00    +0.068 C 
ATOM     16  C   UNL     1       6.396  -8.937  27.786  0.00  0.00    +0.068 C 
ATOM     17  C   UNL     1       7.339  -7.941  27.637  0.00  0.00    +0.012 C 
ATOM     18  C   UNL     1       6.954  -6.757  27.040  0.00  0.00    -0.001 C 
ATOM     19 CL   UNL     1       6.849 -10.442  28.554  0.00  0.00    -0.081 Cl
ATOM     20 CL   UNL     1       3.927 -10.001  27.549  0.00  0.00    -0.081 Cl
ENDBRANCH   7  13
ENDBRANCH   2   7
BRANCH   1  21
ATOM     21  N   UNL     1       2.567  -3.652  28.054  0.00  0.00    -0.216 NA
BRANCH  21  22
ATOM     22  C   UNL     1       1.192  -3.829  28.308  0.00  0.00    +0.094 C 
ATOM     23  C   UNL     1       0.742  -3.484  29.720  0.00  0.00    +0.022 C 
ATOM     24  C   UNL     1      -0.767  -3.735  29.809  0.00  0.00    +0.006 C 
ATOM     25  C   UNL     1      -1.197  -5.025  29.235  0.00  0.00    +0.018 C 
ATOM     26  C   UNL     1      -2.217  -5.812  29.934  0.00  0.00    +0.004 C 
ATOM     27  C   UNL     1      -3.299  -5.063  30.626  0.00  0.00    +0.000 C 
ATOM     28  C   UNL     1      -4.011  -6.056  31.560  0.00  0.00    +0.000 C 
ATOM     29  C   UNL     1      -3.008  -6.341  32.685  0.00  0.00    +0.000 C 
ATOM     30  C   UNL     1      -1.719  -6.903  32.123  0.00  0.00    +0.000 C 
ATOM     31  C   UNL     1      -1.536  -8.258  32.757  0.00  0.00    +0.000 C 
ATOM     32  C   UNL     1      -2.902  -8.670  33.277  0.00  0.00    +0.000 C 
ATOM     33  C   UNL     1      -3.571  -7.378  33.632  0.00  0.00    +0.000 C 
ATOM     34  C   UNL     1      -1.792  -7.062  30.623  0.00  0.00    +0.001 C 
ATOM     35  C   UNL     1      -0.580  -7.716  30.090  0.00  0.00    +0.004 C 
ATOM     36  C   UNL     1      -0.461  -7.348  28.596  0.00  0.00    +0.022 C 
ATOM     37  C   UNL     1      -0.157  -5.868  28.649  0.00  0.00    -0.047 C 
ATOM     38  C   UNL     1       0.962  -5.332  28.214  0.00  0.00    -0.018 C 
ENDBRANCH  21  22
ENDBRANCH   1  21
TORSDOF 4
ENDMDL
