REMARK  Name = =
REMARK  4 active torsions:
REMARK  status: ('A' for Active; 'I' for Inactive)
REMARK    1  A    between atoms: C_1  and  N_21
REMARK    2  A    between atoms: C_2  and  C_7
REMARK    3  A    between atoms: C_7  and  C_13
REMARK    4  A    between atoms: N_21  and  C_22
REMARK                            x       y       z     vdW  Elec       q    Type
REMARK                         _______ _______ _______ _____ _____    ______ ____
ROOT
ATOM      1  C   UNL     1       2.168  -5.947  27.160  0.00  0.00    +0.076 C 
ATOM      2  C   UNL     1       1.954  -6.248  28.614  0.00  0.00    +0.045 C 
ATOM      3  C   UNL     1       1.995  -7.708  28.909  0.00  0.00    +0.004 C 
ATOM      4  C   UNL     1       0.984  -8.488  28.081  0.00  0.00    +0.000 C 
ATOM      5  C   UNL     1       1.344  -8.204  26.628  0.00  0.00    +0.001 C 
ATOM      6  C   UNL     1       1.147  -6.743  26.308  0.00  0.00    +0.017 C 
ENDROOT
BRANCH   2   7
ATOM      7  C   UNL     1       0.760  -5.569  29.245  0.00  0.00    +0.113 C 
ATOM      8  C   UNL     1       0.801  -4.101  29.003  0.00  0.00    +0.032 C 
ATOM      9  C   UNL     1      -0.248  -3.429  29.862  0.00  0.00    +0.005 C 
ATOM     10  C   UNL     1      -1.553  -4.148  29.760  0.00  0.00    +0.032 C 
ATOM     11  C   UNL     1      -1.451  -5.185  28.654  0.00  0.00    +0.142 C 
ATOM     12  O   UNL     1      -0.442  -6.102  28.874  0.00  0.00    -0.354 OA
BRANCH   7  13
ATOM     13  C   UNL     1       0.938  -5.809  30.717  0.00  0.00    +0.003 C 
ATOM     14  C   UNL     1       1.968  -5.170  31.350  0.00  0.00    +0.010 C 
ATOM     15  C   UNL     1       2.163  -5.421  32.716  0.00  0.00    +0.068 C 
ATOM     16  C   UNL     1       1.336  -6.295  33.420  0.00  0.00    +0.068 C 
ATOM     17  C   UNL     1       0.302  -6.929  32.764  0.00  0.00    +0.012 C 
ATOM     18  C   UNL     1       0.122  -6.672  31.419  0.00  0.00    -0.001 C 
ATOM     19 CL   UNL     1       1.600  -6.613  35.120  0.00  0.00    -0.081 Cl
ATOM     20 CL   UNL     1       3.466  -4.644  33.576  0.00  0.00    -0.081 Cl
ENDBRANCH   7  13
ENDBRANCH   2   7
BRANCH   1  21
ATOM     21  N   UNL     1       3.434  -6.542  26.821  0.00  0.00    -0.216 NA
BRANCH  21  22
ATOM     22  C   UNL     1       4.310  -5.819  25.987  0.00  0.00    +0.094 C 
ATOM     23  C   UNL     1       3.642  -5.032  24.869  0.00  0.00    +0.022 C 
ATOM     24  C   UNL     1       4.739  -4.316  24.074  0.00  0.00    +0.006 C 
ATOM     25  C   UNL     1       5.890  -5.174  23.732  0.00  0.00    +0.018 C 
ATOM     26  C   UNL     1       6.492  -5.062  22.400  0.00  0.00    +0.004 C 
ATOM     27  C   UNL     1       6.537  -3.709  21.785  0.00  0.00    +0.000 C 
ATOM     28  C   UNL     1       6.864  -3.900  20.294  0.00  0.00    +0.000 C 
ATOM     29  C   UNL     1       5.603  -4.522  19.682  0.00  0.00    +0.000 C 
ATOM     30  C   UNL     1       5.262  -5.828  20.368  0.00  0.00    +0.000 C 
ATOM     31  C   UNL     1       5.288  -6.889  19.297  0.00  0.00    +0.000 C 
ATOM     32  C   UNL     1       6.090  -6.308  18.146  0.00  0.00    +0.000 C 
ATOM     33  C   UNL     1       5.836  -4.834  18.220  0.00  0.00    +0.000 C 
ATOM     34  C   UNL     1       6.275  -6.174  21.433  0.00  0.00    +0.001 C 
ATOM     35  C   UNL     1       6.007  -7.501  22.023  0.00  0.00    +0.004 C 
ATOM     36  C   UNL     1       6.674  -7.547  23.413  0.00  0.00    +0.022 C 
ATOM     37  C   UNL     1       5.848  -6.557  24.203  0.00  0.00    -0.047 C 
ATOM     38  C   UNL     1       5.118  -6.878  25.248  0.00  0.00    -0.018 C 
ENDBRANCH  21  22
ENDBRANCH   1  21
TORSDOF 4
