REMARK  Name = =
REMARK  0 active torsions:
REMARK  status: ('A' for Active; 'I' for Inactive)
REMARK                            x       y       z     vdW  Elec       q    Type
REMARK                         _______ _______ _______ _____ _____    ______ ____
ROOT
ATOM      1  C   UNL     1      -3.827  -4.107  31.589  0.00  0.00    +0.000 C 
ATOM      2  C   UNL     1      -4.560  -4.396  32.724  0.00  0.00    +0.000 C 
ATOM      3  C   UNL     1      -5.418  -3.472  33.288  0.00  0.00    +0.000 C 
ATOM      4  C   UNL     1      -5.577  -2.221  32.736  0.00  0.00    +0.000 C 
ATOM      5  C   UNL     1      -4.856  -1.915  31.606  0.00  0.00    +0.000 C 
ATOM      6  C   UNL     1      -4.000  -2.837  31.044  0.00  0.00    +0.000 C 
ATOM      7  C   UNL     1      -5.013  -0.652  31.047  0.00  0.00    +0.000 C 
ATOM      8  C   UNL     1      -5.867   0.278  31.602  0.00  0.00    +0.000 C 
ATOM      9  C   UNL     1      -6.597  -0.027  32.744  0.00  0.00    +0.000 C 
ATOM     10  C   UNL     1      -6.438  -1.282  33.295  0.00  0.00    +0.000 C 
ATOM     11  C   UNL     1      -4.393  -5.656  33.269  0.00  0.00    +0.000 C 
ATOM     12  C   UNL     1      -3.551  -6.605  32.741  0.00  0.00    +0.000 C 
ATOM     13  C   UNL     1      -2.840  -6.269  31.604  0.00  0.00    +0.000 C 
ATOM     14  C   UNL     1      -2.965  -5.020  31.011  0.00  0.00    +0.000 C 
ATOM     15  C   UNL     1      -1.987  -7.238  31.073  0.00  0.00    +0.000 C 
ATOM     16  C   UNL     1      -1.859  -8.474  31.657  0.00  0.00    +0.000 C 
ATOM     17  C   UNL     1      -2.571  -8.797  32.786  0.00  0.00    +0.000 C 
ATOM     18  C   UNL     1      -3.419  -7.849  33.324  0.00  0.00    +0.000 C 
ENDROOT
TORSDOF 0
