REMARK  Name = =
REMARK  1 active torsions:
REMARK  status: ('A' for Active; 'I' for Inactive)
REMARK    1  A    between atoms: C_3  and  N_8
REMARK                            x       y       z     vdW  Elec       q    Type
REMARK                         _______ _______ _______ _____ _____    ______ ____
ROOT
ATOM      1  C   UNL     1     -14.043  -2.503  22.766  0.00  0.00    +0.028 C 
ATOM      2  C   UNL     1     -15.150  -1.726  22.122  0.00  0.00    +0.034 C 
ATOM      3  C   UNL     1     -15.233  -0.300  22.549  0.00  0.00    +0.160 C 
ATOM      4  C   UNL     1     -14.490   0.004  23.774  0.00  0.00    +0.193 C 
ATOM      5  O   UNL     1     -14.151   1.210  24.026  0.00  0.00    -0.290 OA
ATOM      6  C   UNL     1     -14.149  -1.079  24.688  0.00  0.00    +0.035 C 
ATOM      7  C   UNL     1     -13.931  -2.294  24.212  0.00  0.00    -0.023 C 
ENDROOT
BRANCH   3   8
ATOM      8  N   UNL     1     -16.635   0.109  22.706  0.00  0.00    -0.185 N 
ATOM      9  N   UNL     1     -17.602  -0.516  23.351  0.00  0.00    -0.153 NA
ATOM     10  C   UNL     1     -18.734   0.207  23.245  0.00  0.00    +0.218 C 
ATOM     11  N   UNL     1     -18.454   1.308  22.514  0.00  0.00    -0.203 NA
ATOM     12  C   UNL     1     -17.155   1.233  22.188  0.00  0.00    +0.186 C 
ENDBRANCH   3   8
TORSDOF 1
