REMARK  Name = =
REMARK  1 active torsions:
REMARK  status: ('A' for Active; 'I' for Inactive)
REMARK    1  A    between atoms: C_3  and  C_19
REMARK                            x       y       z     vdW  Elec       q    Type
REMARK                         _______ _______ _______ _____ _____    ______ ____
ROOT
ATOM      1  C   UNL     1      -2.873  -3.687  30.575  0.00  0.00    +0.000 C 
ATOM      2  C   UNL     1      -3.929  -3.742  31.459  0.00  0.00    +0.004 C 
ATOM      3  C   UNL     1      -4.738  -2.590  31.721  0.00  0.00    +0.050 C 
ATOM      4  C   UNL     1      -4.363  -1.423  31.004  0.00  0.00    +0.004 C 
ATOM      5  C   UNL     1      -3.300  -1.413  30.130  0.00  0.00    +0.000 C 
ATOM      6  C   UNL     1      -2.551  -2.537  29.909  0.00  0.00    +0.000 C 
ATOM      7  C   UNL     1      -2.986  -0.238  29.462  0.00  0.00    +0.000 C 
ATOM      8  C   UNL     1      -3.684   0.932  29.625  0.00  0.00    +0.000 C 
ATOM      9  C   UNL     1      -4.734   0.882  30.503  0.00  0.00    +0.000 C 
ATOM     10  C   UNL     1      -5.084  -0.265  31.190  0.00  0.00    +0.000 C 
ATOM     11  C   UNL     1      -4.227  -4.917  32.114  0.00  0.00    +0.000 C 
ATOM     12  C   UNL     1      -3.462  -6.060  31.887  0.00  0.00    +0.000 C 
ATOM     13  C   UNL     1      -2.410  -6.012  31.009  0.00  0.00    +0.000 C 
ATOM     14  C   UNL     1      -2.119  -4.837  30.359  0.00  0.00    +0.000 C 
ATOM     15  C   UNL     1      -1.688  -7.175  30.823  0.00  0.00    +0.000 C 
ATOM     16  C   UNL     1      -2.004  -8.340  31.489  0.00  0.00    +0.000 C 
ATOM     17  C   UNL     1      -3.067  -8.358  32.367  0.00  0.00    +0.000 C 
ATOM     18  C   UNL     1      -3.819  -7.199  32.577  0.00  0.00    +0.000 C 
ENDROOT
BRANCH   3  19
ATOM     19  C   UNL     1      -5.825  -2.656  32.633  0.00  0.00    +0.254 C 
ATOM     20  O   UNL     1      -5.689  -2.780  33.862  0.00  0.00    -0.274 OA
ATOM     21 CL   UNL     1      -7.509  -2.584  32.281  0.00  0.00    -0.038 Cl
ENDBRANCH   3  19
TORSDOF 1
