REMARK  Name = =
REMARK  3 active torsions:
REMARK  status: ('A' for Active; 'I' for Inactive)
REMARK    1  A    between atoms: C_3  and  C_19
REMARK    2  A    between atoms: C_10  and  C_22
REMARK    3  A    between atoms: C_22  and  C_24
REMARK                            x       y       z     vdW  Elec       q    Type
REMARK                         _______ _______ _______ _____ _____    ______ ____
ROOT
ATOM      1  C   UNL     1      -3.278  -3.769  30.496  0.00  0.00    +0.000 C 
ATOM      2  C   UNL     1      -3.582  -4.587  31.552  0.00  0.00    +0.004 C 
ATOM      3  C   UNL     1      -2.972  -5.858  31.680  0.00  0.00    +0.050 C 
ATOM      4  C   UNL     1      -2.074  -6.274  30.753  0.00  0.00    +0.007 C 
ATOM      5  C   UNL     1      -1.758  -5.420  29.655  0.00  0.00    +0.000 C 
ATOM      6  C   UNL     1      -2.374  -4.192  29.563  0.00  0.00    +0.000 C 
ATOM      7  C   UNL     1      -0.833  -5.794  28.712  0.00  0.00    +0.000 C 
ATOM      8  C   UNL     1      -0.202  -7.001  28.826  0.00  0.00    +0.000 C 
ATOM      9  C   UNL     1      -0.453  -7.860  29.844  0.00  0.00    +0.003 C 
ATOM     10  C   UNL     1      -1.408  -7.472  30.813  0.00  0.00    +0.042 C 
ATOM     11  C   UNL     1      -4.498  -4.170  32.505  0.00  0.00    +0.000 C 
ATOM     12  C   UNL     1      -5.119  -2.945  32.426  0.00  0.00    +0.000 C 
ATOM     13  C   UNL     1      -4.809  -2.127  31.362  0.00  0.00    +0.000 C 
ATOM     14  C   UNL     1      -3.902  -2.519  30.401  0.00  0.00    +0.000 C 
ATOM     15  C   UNL     1      -5.446  -0.893  31.299  0.00  0.00    +0.000 C 
ATOM     16  C   UNL     1      -6.351  -0.513  32.267  0.00  0.00    +0.000 C 
ATOM     17  C   UNL     1      -6.646  -1.341  33.316  0.00  0.00    +0.000 C 
ATOM     18  C   UNL     1      -6.037  -2.558  33.406  0.00  0.00    +0.000 C 
ENDROOT
BRANCH   3  19
ATOM     19  C   UNL     1      -3.366  -6.583  32.854  0.00  0.00    +0.254 C 
ATOM     20  O   UNL     1      -2.757  -6.371  33.933  0.00  0.00    -0.274 OA
ATOM     21 CL   UNL     1      -4.692  -7.759  32.899  0.00  0.00    -0.038 Cl
ENDBRANCH   3  19
BRANCH  10  22
ATOM     22  C   UNL     1      -1.644  -8.441  31.864  0.00  0.00    +0.238 C 
ATOM     23  O   UNL     1      -2.552  -9.280  31.732  0.00  0.00    -0.283 OA
BRANCH  22  24
ATOM     24  C   UNL     1      -0.852  -8.486  33.085  0.00  0.00    +0.276 C 
ATOM     25  O   UNL     1       0.116  -7.714  33.207  0.00  0.00    -0.280 OA
ENDBRANCH  22  24
ENDBRANCH  10  22
TORSDOF 3
