REMARK  Name = =
REMARK  2 active torsions:
REMARK  status: ('A' for Active; 'I' for Inactive)
REMARK    1  A    between atoms: C_2  and  C_8
REMARK    2  A    between atoms: C_3  and  N_16
REMARK                            x       y       z     vdW  Elec       q    Type
REMARK                         _______ _______ _______ _____ _____    ______ ____
ROOT
ATOM      1  C   UNL     1     -13.891  -2.924  24.796  0.00  0.00    +0.033 C 
ATOM      2  C   UNL     1     -12.617  -2.863  25.561  0.00  0.00    +0.057 C 
ATOM      3  C   UNL     1     -12.625  -3.198  26.977  0.00  0.00    +0.164 C 
ATOM      4  C   UNL     1     -13.974  -2.882  27.575  0.00  0.00    +0.193 C 
ATOM      5  O   UNL     1     -14.095  -2.376  28.736  0.00  0.00    -0.290 OA
ATOM      6  C   UNL     1     -15.188  -3.142  26.843  0.00  0.00    +0.035 C 
ATOM      7  C   UNL     1     -15.121  -3.157  25.541  0.00  0.00    -0.023 C 
ENDROOT
BRANCH   2   8
ATOM      8  C   UNL     1     -11.556  -3.435  24.700  0.00  0.00    +0.010 C 
ATOM      9  C   UNL     1     -11.587  -4.720  24.265  0.00  0.00    +0.163 C 
ATOM     10  C   UNL     1     -10.502  -5.200  23.519  0.00  0.00    +0.167 C 
ATOM     11  C   UNL     1      -9.432  -4.383  23.236  0.00  0.00    +0.032 C 
ATOM     12  C   UNL     1      -9.405  -3.075  23.679  0.00  0.00    +0.002 C 
ATOM     13  C   UNL     1     -10.469  -2.590  24.416  0.00  0.00    -0.002 C 
ATOM     14  F   UNL     1     -10.572  -6.484  23.104  0.00  0.00    -0.202 F 
ATOM     15  F   UNL     1     -12.648  -5.501  24.522  0.00  0.00    -0.202 F 
ENDBRANCH   2   8
BRANCH   3  16
ATOM     16  N   UNL     1     -11.729  -2.381  27.787  0.00  0.00    -0.185 N 
ATOM     17  N   UNL     1     -11.173  -2.868  28.903  0.00  0.00    -0.153 NA
ATOM     18  C   UNL     1     -10.413  -1.902  29.457  0.00  0.00    +0.218 C 
ATOM     19  N   UNL     1     -10.484  -0.807  28.702  0.00  0.00    -0.203 NA
ATOM     20  C   UNL     1     -11.315  -1.145  27.671  0.00  0.00    +0.186 C 
ENDBRANCH   3  16
TORSDOF 2
