REMARK  Name = =
REMARK  4 active torsions:
REMARK  status: ('A' for Active; 'I' for Inactive)
REMARK    1  A    between atoms: C_3  and  C_19
REMARK    2  A    between atoms: C_10  and  C_25
REMARK    3  A    between atoms: C_11  and  C_22
REMARK    4  A    between atoms: C_25  and  C_27
REMARK                            x       y       z     vdW  Elec       q    Type
REMARK                         _______ _______ _______ _____ _____    ______ ____
ROOT
ATOM      1  C   UNL     1      -1.279  -7.050  30.394  0.00  0.00    +0.000 C 
ATOM      2  C   UNL     1      -2.054  -5.879  30.426  0.00  0.00    +0.004 C 
ATOM      3  C   UNL     1      -1.781  -4.846  29.536  0.00  0.00    +0.050 C 
ATOM      4  C   UNL     1      -0.735  -5.019  28.620  0.00  0.00    +0.007 C 
ATOM      5  C   UNL     1       0.003  -6.185  28.621  0.00  0.00    +0.000 C 
ATOM      6  C   UNL     1      -0.256  -7.193  29.491  0.00  0.00    +0.000 C 
ATOM      7  C   UNL     1       1.051  -6.376  27.736  0.00  0.00    +0.000 C 
ATOM      8  C   UNL     1       1.343  -5.378  26.849  0.00  0.00    +0.000 C 
ATOM      9  C   UNL     1       0.627  -4.224  26.826  0.00  0.00    +0.003 C 
ATOM     10  C   UNL     1      -0.451  -4.018  27.728  0.00  0.00    +0.042 C 
ATOM     11  C   UNL     1      -3.049  -5.744  31.372  0.00  0.00    +0.001 C 
ATOM     12  C   UNL     1      -3.254  -6.799  32.295  0.00  0.00    +0.000 C 
ATOM     13  C   UNL     1      -2.472  -7.931  32.238  0.00  0.00    +0.000 C 
ATOM     14  C   UNL     1      -1.487  -8.058  31.290  0.00  0.00    +0.000 C 
ATOM     15  C   UNL     1      -2.687  -8.981  33.132  0.00  0.00    +0.000 C 
ATOM     16  C   UNL     1      -3.680  -8.888  34.068  0.00  0.00    +0.000 C 
ATOM     17  C   UNL     1      -4.466  -7.761  34.126  0.00  0.00    +0.000 C 
ATOM     18  C   UNL     1      -4.262  -6.699  33.237  0.00  0.00    +0.000 C 
ENDROOT
BRANCH   3  19
ATOM     19  C   UNL     1      -2.441  -3.566  29.698  0.00  0.00    +0.254 C 
ATOM     20  O   UNL     1      -3.508  -3.114  29.295  0.00  0.00    -0.274 OA
ATOM     21 CL   UNL     1      -1.447  -2.431  30.731  0.00  0.00    -0.038 Cl
ENDBRANCH   3  19
BRANCH  11  22
ATOM     22  C   UNL     1      -3.995  -4.682  31.310  0.00  0.00    +0.006 C 
ATOM     23  C   UNL     1      -4.504  -3.920  32.241  0.00  0.00    +0.035 C 
ATOM     24  I   UNL     1      -5.911  -2.410  31.857  0.00  0.00    -0.042 I 
ENDBRANCH  11  22
BRANCH  10  25
ATOM     25  C   UNL     1      -1.216  -2.822  27.476  0.00  0.00    +0.238 C 
ATOM     26  O   UNL     1      -2.172  -2.868  26.701  0.00  0.00    -0.283 OA
BRANCH  25  27
ATOM     27  C   UNL     1      -0.868  -1.596  28.108  0.00  0.00    +0.276 C 
ATOM     28  O   UNL     1       0.126  -1.447  28.887  0.00  0.00    -0.280 OA
ENDBRANCH  25  27
ENDBRANCH  10  25
TORSDOF 4
