REMARK  Name = =
REMARK  3 active torsions:
REMARK  status: ('A' for Active; 'I' for Inactive)
REMARK    1  A    between atoms: C_2  and  C_8
REMARK    2  A    between atoms: C_3  and  N_18
REMARK    3  A    between atoms: C_12  and  N_16
REMARK                            x       y       z     vdW  Elec       q    Type
REMARK                         _______ _______ _______ _____ _____    ______ ____
ROOT
ATOM      1  C   UNL     1     -12.397   0.505  25.497  0.00  0.00    -0.024 C 
ATOM      2  C   UNL     1     -11.854   0.487  26.907  0.00  0.00    +0.074 C 
ATOM      3  C   UNL     1     -10.770  -0.551  27.011  0.00  0.00    +0.163 C 
ATOM      4  C   UNL     1     -10.995  -1.776  26.201  0.00  0.00    +0.175 C 
ATOM      5  O   UNL     1     -10.941  -2.960  26.630  0.00  0.00    -0.294 OA
ATOM      6  C   UNL     1     -11.310  -1.573  24.763  0.00  0.00    +0.092 C 
ATOM      7  C   UNL     1     -11.986  -0.449  24.515  0.00  0.00    -0.022 C 
ENDROOT
BRANCH   2   8
ATOM      8  C   UNL     1     -13.003   0.226  27.797  0.00  0.00    +0.015 C 
ATOM      9  C   UNL     1     -13.087   0.992  28.983  0.00  0.00    +0.164 C 
ATOM     10  C   UNL     1     -14.063   0.784  29.927  0.00  0.00    +0.169 C 
ATOM     11  C   UNL     1     -14.990  -0.230  29.692  0.00  0.00    +0.054 C 
ATOM     12  C   UNL     1     -14.922  -1.013  28.526  0.00  0.00    +0.126 C 
ATOM     13  C   UNL     1     -13.933  -0.761  27.602  0.00  0.00    +0.021 C 
ATOM     14  F   UNL     1     -14.170   1.515  31.079  0.00  0.00    -0.202 F 
ATOM     15  F   UNL     1     -12.208   2.024  29.219  0.00  0.00    -0.202 F 
BRANCH  12  16
ATOM     16  N   UNL     1     -15.873  -2.083  28.326  0.00  0.00    -0.029 NA
ATOM     17  O   UNL     1     -17.039  -1.839  28.655  0.00  0.00    -0.143 OA
ENDBRANCH  12  16
ENDBRANCH   2   8
BRANCH   3  18
ATOM     18  N   UNL     1     -10.312  -0.804  28.336  0.00  0.00    -0.185 N 
ATOM     19  N   UNL     1      -9.370  -0.090  28.991  0.00  0.00    -0.153 NA
ATOM     20  C   UNL     1      -9.110  -0.606  30.194  0.00  0.00    +0.218 C 
ATOM     21  N   UNL     1      -9.916  -1.689  30.301  0.00  0.00    -0.203 NA
ATOM     22  C   UNL     1     -10.639  -1.806  29.181  0.00  0.00    +0.186 C 
ENDBRANCH   3  18
TORSDOF 3
