REMARK  Name = =
REMARK  4 active torsions:
REMARK  status: ('A' for Active; 'I' for Inactive)
REMARK    1  A    between atoms: C_1  and  C_17
REMARK    2  A    between atoms: C_5  and  N_28
REMARK    3  A    between atoms: C_6  and  C_9
REMARK    4  A    between atoms: C_18  and  N_23
REMARK                            x       y       z     vdW  Elec       q    Type
REMARK                         _______ _______ _______ _____ _____    ______ ____
ROOT
ATOM      1  C   UNL     1     -11.946  -0.375  27.016  0.00  0.00    +0.008 C 
ATOM      2  C   UNL     1     -10.749   0.340  27.319  0.00  0.00    +0.163 C 
ATOM      3  C   UNL     1      -9.517   0.071  26.796  0.00  0.00    +0.169 C 
ATOM      4  C   UNL     1      -9.379  -0.959  25.907  0.00  0.00    +0.053 C 
ATOM      5  C   UNL     1     -10.510  -1.675  25.588  0.00  0.00    +0.110 C 
ATOM      6  C   UNL     1     -11.775  -1.388  26.134  0.00  0.00    +0.015 C 
ATOM      7  F   UNL     1      -8.426   0.833  27.159  0.00  0.00    -0.202 F 
ATOM      8  F   UNL     1     -10.802   1.406  28.199  0.00  0.00    -0.202 F 
ENDROOT
BRANCH   6   9
ATOM      9  C   UNL     1     -12.909  -2.214  25.766  0.00  0.00    +0.156 C 
ATOM     10  S   UNL     1     -12.446  -3.989  25.778  0.00  0.00    -0.044 S 
ATOM     11  C   UNL     1     -13.054  -4.401  24.149  0.00  0.00    +0.279 C 
ATOM     12  O   UNL     1     -13.023  -5.539  23.585  0.00  0.00    -0.263 OA
ATOM     13  N   UNL     1     -13.572  -3.183  23.649  0.00  0.00    -0.246 N 
ATOM     14  C   UNL     1     -13.178  -2.034  24.309  0.00  0.00    +0.243 C 
ATOM     15  O   UNL     1     -13.038  -0.868  23.787  0.00  0.00    -0.273 OA
ATOM     16  H   UNL     1     -14.179  -3.155  22.874  0.00  0.00    +0.158 HD
ENDBRANCH   6   9
BRANCH   1  18
ATOM     17  C   UNL     1     -14.024   1.071  27.250  0.00  0.00    +0.033 C 
ATOM     18  C   UNL     1     -13.096  -0.029  27.771  0.00  0.00    +0.056 C 
ATOM     19  C   UNL     1     -14.070  -1.090  28.201  0.00  0.00    +0.164 C 
ATOM     20  C   UNL     1     -14.447  -0.638  29.617  0.00  0.00    +0.193 C 
ATOM     21  O   UNL     1     -14.411  -1.395  30.568  0.00  0.00    -0.290 OA
ATOM     22  C   UNL     1     -14.830   0.789  29.610  0.00  0.00    +0.035 C 
ATOM     23  C   UNL     1     -14.649   1.598  28.547  0.00  0.00    -0.023 C 
BRANCH  19  24
ATOM     24  N   UNL     1     -15.432  -1.010  27.637  0.00  0.00    -0.185 N 
ATOM     25  N   UNL     1     -15.844  -0.639  26.445  0.00  0.00    -0.153 NA
ATOM     26  C   UNL     1     -17.163  -0.672  26.299  0.00  0.00    +0.218 C 
ATOM     27  N   UNL     1     -17.638  -1.094  27.477  0.00  0.00    -0.203 NA
ATOM     28  C   UNL     1     -16.558  -1.301  28.306  0.00  0.00    +0.186 C 
ENDBRANCH  19  24
ENDBRANCH   1  18
BRANCH   5  29
ATOM     29  N   UNL     1     -10.415  -2.811  24.704  0.00  0.00    -0.097 NA
ATOM     30  O   UNL     1      -9.311  -2.858  24.063  0.00  0.00    -0.061 OA
ENDBRANCH   5  29
TORSDOF 4
