REMARK  Name = =
REMARK  1 active torsions:
REMARK  status: ('A' for Active; 'I' for Inactive)
REMARK    1  A    between atoms: C_9  and  O_11
REMARK                            x       y       z     vdW  Elec       q    Type
REMARK                         _______ _______ _______ _____ _____    ______ ____
ROOT
ATOM      1  O   UNL     1      58.651 161.180  40.197  0.00  0.00    -0.476 OA
ATOM      2  C   UNL     1      58.067 160.209  39.350  0.00  0.00    +0.206 C 
ATOM      3  C   UNL     1      58.938 159.740  38.239  0.00  0.00    +0.052 C 
ATOM      4  C   UNL     1      60.122 160.647  37.983  0.00  0.00    +0.033 C 
ATOM      5  C   UNL     1      60.840 160.915  39.264  0.00  0.00    +0.015 C 
ATOM      6  C   UNL     1      60.026 161.179  40.352  0.00  0.00    +0.135 C 
ATOM      7  C   UNL     1      60.677 161.429  41.547  0.00  0.00    +0.040 C 
ATOM      8  C   UNL     1      62.063 161.415  41.647  0.00  0.00    +0.040 C 
ATOM      9  C   UNL     1      62.811 161.144  40.519  0.00  0.00    +0.134 C 
ATOM     10  C   UNL     1      62.210 160.889  39.304  0.00  0.00    +0.035 C 
ENDROOT
BRANCH   9  11
ATOM     11  O   UNL     1      64.203 161.118  40.565  0.00  0.00    -0.506 OA
ATOM     12  H   UNL     1      64.648 161.286  41.372  0.00  0.00    +0.292 HD
ENDBRANCH   9  11
TORSDOF 1
