REMARK  Name = =
REMARK  2 active torsions:
REMARK  status: ('A' for Active; 'I' for Inactive)
REMARK    1  A    between atoms: C_2  and  C_12
REMARK    2  A    between atoms: C_9  and  O_11
REMARK                            x       y       z     vdW  Elec       q    Type
REMARK                         _______ _______ _______ _____ _____    ______ ____
ROOT
ATOM      1  O   UNL     1      58.998 161.174  40.179  0.00  0.00    -0.475 OA
ATOM      2  C   UNL     1      59.353 159.806  40.150  0.00  0.00    +0.195 C 
ATOM      3  C   UNL     1      59.351 159.183  38.800  0.00  0.00    +0.054 C 
ATOM      4  C   UNL     1      58.642 160.040  37.766  0.00  0.00    +0.034 C 
ATOM      5  C   UNL     1      59.188 161.444  37.824  0.00  0.00    +0.015 C 
ATOM      6  C   UNL     1      59.343 161.959  39.097  0.00  0.00    +0.135 C 
ATOM      7  C   UNL     1      59.846 163.255  39.202  0.00  0.00    +0.040 C 
ATOM      8  C   UNL     1      60.172 163.985  38.072  0.00  0.00    +0.040 C 
ATOM      9  C   UNL     1      60.003 163.437  36.814  0.00  0.00    +0.134 C 
ATOM     10  C   UNL     1      59.504 162.148  36.683  0.00  0.00    +0.035 C 
ENDROOT
BRANCH   9  11
ATOM     11  O   UNL     1      60.334 164.183  35.705  0.00  0.00    -0.506 OA
ATOM     12  H   UNL     1      60.670 165.052  35.808  0.00  0.00    +0.292 HD
ENDBRANCH   9  11
BRANCH   2  13
ATOM     13  C   UNL     1      58.399 159.105  41.057  0.00  0.00    +0.059 C 
ATOM     14  S   UNL     1      58.469 159.457  42.446  0.00  0.00    -0.051 S 
ENDBRANCH   2  13
TORSDOF 2
