REMARK  Name = =
REMARK  4 active torsions:
REMARK  status: ('A' for Active; 'I' for Inactive)
REMARK    1  A    between atoms: C_2  and  C_12
REMARK    2  A    between atoms: C_9  and  O_11
REMARK    3  A    between atoms: C_12  and  N_14
REMARK    4  A    between atoms: N_14  and  O_15
REMARK                            x       y       z     vdW  Elec       q    Type
REMARK                         _______ _______ _______ _____ _____    ______ ____
ROOT
ATOM      1  O   UNL     1      59.023 161.563  40.274  0.00  0.00    -0.473 OA
ATOM      2  C   UNL     1      59.066 160.168  40.375  0.00  0.00    +0.210 C 
ATOM      3  C   UNL     1      59.532 159.541  39.086  0.00  0.00    +0.055 C 
ATOM      4  C   UNL     1      58.860 160.179  37.882  0.00  0.00    +0.034 C 
ATOM      5  C   UNL     1      59.209 161.604  37.871  0.00  0.00    +0.015 C 
ATOM      6  C   UNL     1      59.278 162.255  39.086  0.00  0.00    +0.135 C 
ATOM      7  C   UNL     1      59.598 163.592  39.178  0.00  0.00    +0.040 C 
ATOM      8  C   UNL     1      59.858 164.319  38.028  0.00  0.00    +0.040 C 
ATOM      9  C   UNL     1      59.794 163.687  36.806  0.00  0.00    +0.134 C 
ATOM     10  C   UNL     1      59.473 162.351  36.746  0.00  0.00    +0.035 C 
ENDROOT
BRANCH   9  11
ATOM     11  O   UNL     1      60.050 164.387  35.632  0.00  0.00    -0.506 OA
ATOM     12  H   UNL     1      60.269 165.297  35.668  0.00  0.00    +0.292 HD
ENDBRANCH   9  11
BRANCH   2  13
ATOM     13  C   UNL     1      59.888 159.771  41.530  0.00  0.00    +0.122 C 
ATOM     14  S   UNL     1      60.605 160.925  42.431  0.00  0.00    -0.034 S 
BRANCH  13  15
ATOM     15  N   UNL     1      60.084 158.430  41.893  0.00  0.00    -0.222 N 
ATOM     16  H   UNL     1      60.633 158.202  42.678  0.00  0.00    +0.180 HD
BRANCH  15  17
ATOM     17  O   UNL     1      59.515 157.462  41.160  0.00  0.00    -0.297 OA
ATOM     18  H   UNL     1      59.014 157.860  40.431  0.00  0.00    +0.241 HD
ENDBRANCH  15  17
ENDBRANCH  13  15
ENDBRANCH   2  13
TORSDOF 4
