REMARK  Name = =
REMARK  6 active torsions:
REMARK  status: ('A' for Active; 'I' for Inactive)
REMARK    1  A    between atoms: C_2  and  C_12
REMARK    2  A    between atoms: C_9  and  O_11
REMARK    3  A    between atoms: C_12  and  N_14
REMARK    4  A    between atoms: N_14  and  O_15
REMARK    5  A    between atoms: O_15  and  N_16
REMARK    6  A    between atoms: N_16  and  C_17
REMARK                            x       y       z     vdW  Elec       q    Type
REMARK                         _______ _______ _______ _____ _____    ______ ____
ROOT
ATOM      1  O   UNL     1      59.584 163.954  38.621  0.00  0.00    -0.473 OA
ATOM      2  C   UNL     1      59.294 164.863  39.633  0.00  0.00    +0.210 C 
ATOM      3  C   UNL     1      58.145 164.383  40.504  0.00  0.00    +0.055 C 
ATOM      4  C   UNL     1      58.428 163.056  41.121  0.00  0.00    +0.034 C 
ATOM      5  C   UNL     1      58.972 162.143  40.072  0.00  0.00    +0.015 C 
ATOM      6  C   UNL     1      59.520 162.582  38.888  0.00  0.00    +0.135 C 
ATOM      7  C   UNL     1      60.020 161.683  37.932  0.00  0.00    +0.040 C 
ATOM      8  C   UNL     1      59.972 160.329  38.165  0.00  0.00    +0.040 C 
ATOM      9  C   UNL     1      59.425 159.886  39.347  0.00  0.00    +0.134 C 
ATOM     10  C   UNL     1      58.932 160.758  40.288  0.00  0.00    +0.035 C 
ENDROOT
BRANCH   9  11
ATOM     11  O   UNL     1      59.380 158.519  39.574  0.00  0.00    -0.506 OA
ATOM     12  H   UNL     1      59.717 157.926  38.931  0.00  0.00    +0.292 HD
ENDBRANCH   9  11
BRANCH   2  13
ATOM     13  C   UNL     1      60.427 165.187  40.501  0.00  0.00    +0.124 C 
ATOM     14  S   UNL     1      61.940 164.718  40.132  0.00  0.00    -0.034 S 
BRANCH  13  15
ATOM     15  N   UNL     1      60.223 165.923  41.693  0.00  0.00    -0.196 N 
ATOM     16  H   UNL     1      59.725 165.501  42.430  0.00  0.00    +0.182 HD
BRANCH  15  17
ATOM     17  O   UNL     1      60.681 167.171  41.857  0.00  0.00    -0.172 OA
BRANCH  17  18
ATOM     18  N   UNL     1      60.069 168.071  41.078  0.00  0.00    -0.194 N 
ATOM     19  H   UNL     1      60.080 167.935  40.103  0.00  0.00    +0.182 HD
BRANCH  18  20
ATOM     20  C   UNL     1      59.398 169.226  41.603  0.00  0.00    +0.128 C 
ATOM     21  S   UNL     1      60.227 170.381  42.423  0.00  0.00    -0.031 S 
ENDBRANCH  18  20
ENDBRANCH  17  18
ENDBRANCH  15  17
ENDBRANCH  13  15
ENDBRANCH   2  13
TORSDOF 6
