MODEL 1
REMARK VINA RESULT:    -6.113      0.000      0.000
REMARK INTER + INTRA:         -10.007
REMARK INTER:                  -8.971
REMARK INTRA:                  -1.036
REMARK UNBOUND:                -1.036
REMARK  Name = =
REMARK  9 active torsions:
REMARK  status: ('A' for Active; 'I' for Inactive)
REMARK    1  A    between atoms: C_1  and  N_18
REMARK    2  A    between atoms: C_1  and  S_27
REMARK    3  A    between atoms: S_27  and  C_28
REMARK    4  A    between atoms: S_27  and  C_32
REMARK    5  A    between atoms: C_28  and  N_30
REMARK    6  A    between atoms: N_30  and  O_31
REMARK    7  A    between atoms: C_32  and  N_33
REMARK    8  A    between atoms: N_33  and  C_34
REMARK    9  A    between atoms: C_36  and  S_40
REMARK                            x       y       z     vdW  Elec       q    Type
REMARK                         _______ _______ _______ _____ _____    ______ ____
ROOT
ATOM      1  C   UNL     1      60.304 162.762  40.209  0.00  0.00    +0.090 C 
ATOM      2  C   UNL     1      59.965 161.316  39.820  0.00  0.00    +0.028 C 
ATOM      3  C   UNL     1      58.516 161.083  39.584  0.00  0.00    +0.007 C 
ATOM      4  C   UNL     1      57.831 161.312  40.939  0.00  0.00    +0.018 C 
ATOM      5  C   UNL     1      56.417 160.872  40.978  0.00  0.00    +0.004 C 
ATOM      6  C   UNL     1      55.501 161.841  41.691  0.00  0.00    +0.005 C 
ATOM      7  C   UNL     1      54.066 161.431  41.329  0.00  0.00    +0.000 C 
ATOM      8  C   UNL     1      53.930 159.963  41.611  0.00  0.00    +0.000 C 
ATOM      9  C   UNL     1      52.600 159.723  42.245  0.00  0.00    +0.000 C 
ATOM     10  C   UNL     1      51.936 161.093  42.292  0.00  0.00    +0.000 C 
ATOM     11  C   UNL     1      53.076 162.074  42.258  0.00  0.00    +0.000 C 
ATOM     12  C   UNL     1      55.063 159.498  42.491  0.00  0.00    +0.000 C 
ATOM     13  C   UNL     1      56.358 159.559  41.730  0.00  0.00    +0.000 C 
ATOM     14  C   UNL     1      55.657 163.255  41.244  0.00  0.00    +0.025 C 
ATOM     15  C   UNL     1      57.079 163.647  41.374  0.00  0.00    -0.035 C 
ATOM     16  C   UNL     1      58.024 162.756  41.233  0.00  0.00    -0.046 C 
ATOM     17  C   UNL     1      59.442 163.208  41.370  0.00  0.00    +0.049 C 
ENDROOT
BRANCH   1  18
ATOM     18  N   UNL     1      61.697 162.751  40.557  0.00  0.00    -0.284 N 
ATOM     19  C   UNL     1      62.386 161.732  41.265  0.00  0.00    +0.305 C 
ATOM     20  O   UNL     1      61.725 160.724  41.609  0.00  0.00    -0.253 OA
ATOM     21  N   UNL     1      63.773 161.830  41.582  0.00  0.00    -0.259 N 
ATOM     22  C   UNL     1      64.610 162.932  41.235  0.00  0.00    +0.127 C 
ATOM     23  C   UNL     1      66.016 162.359  41.010  0.00  0.00    +0.164 C 
ATOM     24  O   UNL     1      66.541 161.803  42.149  0.00  0.00    -0.350 OA
ATOM     25  C   UNL     1      65.586 161.330  43.033  0.00  0.00    +0.164 C 
ATOM     26  C   UNL     1      64.384 160.733  42.310  0.00  0.00    +0.127 C 
ATOM     27  H   UNL     1      62.228 163.530  40.276  0.00  0.00    +0.152 HD
ENDBRANCH   1  18
BRANCH   1  28
ATOM     28  S   UNL     1      59.892 163.717  38.812  0.00  0.00    -0.156 S 
ATOM     29  H   UNL     1      58.536 163.789  38.741  0.00  0.00    +0.093 HD
BRANCH  28  30
ATOM     30  C   UNL     1      60.710 165.315  38.992  0.00  0.00    +0.114 C 
ATOM     31  S   UNL     1      59.774 166.551  39.558  0.00  0.00    -0.028 S 
BRANCH  30  32
ATOM     32  N   UNL     1      62.043 165.554  38.675  0.00  0.00    -0.217 N 
ATOM     33  H   UNL     1      62.274 166.494  38.497  0.00  0.00    +0.180 HD
BRANCH  32  34
ATOM     34  O   UNL     1      63.057 164.684  38.576  0.00  0.00    -0.297 OA
ATOM     35  H   UNL     1      63.026 164.250  37.710  0.00  0.00    +0.241 HD
ENDBRANCH  32  34
ENDBRANCH  30  32
ENDBRANCH  28  30
BRANCH  28  36
ATOM     36  C   UNL     1      60.489 163.056  37.389  0.00  0.00    +0.134 C 
BRANCH  36  37
ATOM     37  N   UNL     1      60.191 163.632  36.133  0.00  0.00    -0.310 N 
ATOM     38  H   UNL     1      59.491 163.191  35.599  0.00  0.00    +0.149 HD
BRANCH  37  39
ATOM     39  C   UNL     1      60.805 164.790  35.561  0.00  0.00    +0.130 C 
ATOM     40  C   UNL     1      60.103 165.810  35.001  0.00  0.00    +0.040 C 
ATOM     41  C   UNL     1      60.785 166.891  34.457  0.00  0.00    +0.026 C 
ATOM     42  C   UNL     1      62.159 166.947  34.473  0.00  0.00    +0.027 C 
ATOM     43  C   UNL     1      62.846 165.900  35.047  0.00  0.00    +0.101 C 
ATOM     44  N   UNL     1      62.151 164.879  35.560  0.00  0.00    -0.229 NA
BRANCH  41  45
ATOM     45  S   UNL     1      59.861 168.225  33.723  0.00  0.00    -0.141 S 
ATOM     46  H   UNL     1      59.411 167.845  32.497  0.00  0.00    +0.107 HD
ENDBRANCH  41  45
ENDBRANCH  37  39
ENDBRANCH  36  37
ENDBRANCH  28  36
ENDBRANCH   1  28
TORSDOF 9
ENDMDL
