REMARK  Name = =
REMARK  4 active torsions:
REMARK  status: ('A' for Active; 'I' for Inactive)
REMARK    1  A    between atoms: C_1  and  C_15
REMARK    2  A    between atoms: C_14  and  C_16
REMARK    3  A    between atoms: C_16  and  C_18
REMARK    4  A    between atoms: N_20  and  O_21
REMARK                            x       y       z     vdW  Elec       q    Type
REMARK                         _______ _______ _______ _____ _____    ______ ____
ROOT
ATOM      1  C   UNL     1     -14.306 -43.117  28.074  0.00  0.00    +0.052 C 
ATOM      2  C   UNL     1     -15.471 -43.509  28.931  0.00  0.00    +0.092 C 
ATOM      3  N   UNL     1     -16.501 -42.489  28.566  0.00  0.00    -0.335 N 
ATOM      4  C   UNL     1     -16.165 -42.049  27.272  0.00  0.00    +0.026 C 
ATOM      5  C   UNL     1     -15.049 -42.897  26.788  0.00  0.00    +0.065 C 
ATOM      6  C   UNL     1     -14.972 -43.211  25.538  0.00  0.00    +0.002 C 
ATOM      7  C   UNL     1     -15.983 -42.750  24.580  0.00  0.00    +0.078 C 
ATOM      8  N   UNL     1     -15.621 -43.231  23.435  0.00  0.00    -0.244 NA
ATOM      9  C   UNL     1     -14.428 -43.992  23.549  0.00  0.00    +0.099 C 
ATOM     10  C   UNL     1     -14.016 -43.995  24.807  0.00  0.00    +0.018 C 
ATOM     11  C   UNL     1     -17.082 -41.928  25.060  0.00  0.00    +0.020 C 
ATOM     12  C   UNL     1     -17.137 -41.617  26.336  0.00  0.00    +0.012 C 
ATOM     13  H   UNL     1     -17.259 -42.187  29.117  0.00  0.00    +0.147 HD
ENDROOT
BRANCH   1  16
ATOM     14 CL   UNL     1     -13.400 -44.704  30.517  0.00  0.00    -0.079 Cl
ATOM     15  C   UNL     1     -12.659 -44.695  28.932  0.00  0.00    +0.097 C 
ATOM     16  C   UNL     1     -13.172 -43.959  27.994  0.00  0.00    -0.009 C 
BRANCH  15  17
ATOM     17  C   UNL     1     -11.466 -45.531  28.705  0.00  0.00    +0.261 C 
ATOM     18  O   UNL     1     -11.260 -46.138  27.646  0.00  0.00    -0.281 OA
BRANCH  17  19
ATOM     19  C   UNL     1     -10.495 -45.641  29.773  0.00  0.00    +0.308 C 
ATOM     20  O   UNL     1     -10.630 -45.005  30.850  0.00  0.00    -0.265 OA
ATOM     21  N   UNL     1      -9.343 -46.474  29.654  0.00  0.00    -0.191 N 
ATOM     22  H   UNL     1      -9.221 -46.980  28.818  0.00  0.00    +0.183 HD
BRANCH  21  23
ATOM     23  O   UNL     1      -8.416 -46.609  30.614  0.00  0.00    -0.295 OA
ATOM     24  H   UNL     1      -8.658 -46.060  31.376  0.00  0.00    +0.241 HD
ENDBRANCH  21  23
ENDBRANCH  17  19
ENDBRANCH  15  17
ENDBRANCH   1  16
TORSDOF 4
