REMARK  Name = =
REMARK  1 active torsions:
REMARK  status: ('A' for Active; 'I' for Inactive)
REMARK    1  A    between atoms: N_1  and  N_10
REMARK                            x       y       z     vdW  Elec       q    Type
REMARK                         _______ _______ _______ _____ _____    ______ ____
ROOT
ATOM      1  N   UNL     1     -12.964 -42.586  28.134  0.00  0.00    -0.231 N 
ATOM      2  C   UNL     1     -12.164 -43.676  28.596  0.00  0.00    +0.317 C 
ATOM      3  O   UNL     1     -12.205 -44.747  27.939  0.00  0.00    -0.251 OA
ATOM      4  N   UNL     1     -11.336 -43.619  29.743  0.00  0.00    -0.258 N 
ATOM      5  C   UNL     1     -10.564 -44.773  30.123  0.00  0.00    +0.127 C 
ATOM      6  C   UNL     1     -10.345 -44.836  31.617  0.00  0.00    +0.164 C 
ATOM      7  O   UNL     1      -9.837 -43.599  32.004  0.00  0.00    -0.350 OA
ATOM      8  C   UNL     1     -10.880 -42.683  31.926  0.00  0.00    +0.164 C 
ATOM      9  C   UNL     1     -11.278 -42.411  30.507  0.00  0.00    +0.127 C 
ATOM     10  H   UNL     1     -12.946 -41.738  28.634  0.00  0.00    +0.171 HD
ENDROOT
BRANCH   1  11
ATOM     11  N   UNL     1     -13.745 -42.680  27.033  0.00  0.00    -0.202 NA
ATOM     12  C   UNL     1     -14.292 -41.515  26.483  0.00  0.00    +0.111 C 
ATOM     13  C   UNL     1     -15.712 -41.838  26.001  0.00  0.00    +0.108 C 
ATOM     14  N   UNL     1     -15.672 -42.907  25.057  0.00  0.00    -0.215 NA
ATOM     15  C   UNL     1     -14.381 -43.539  24.920  0.00  0.00    +0.108 C 
ATOM     16  C   UNL     1     -13.797 -43.866  26.304  0.00  0.00    +0.111 C 
ENDBRANCH   1  11
TORSDOF 1
