MODEL 1
REMARK VINA RESULT:    -7.851      0.000      0.000
REMARK INTER + INTRA:         -11.018
REMARK INTER:                 -10.375
REMARK INTRA:                  -0.643
REMARK UNBOUND:                -0.643
REMARK  Name = =
REMARK  6 active torsions:
REMARK  status: ('A' for Active; 'I' for Inactive)
REMARK    1  A    between atoms: C_1  and  C_21
REMARK    2  A    between atoms: C_10  and  N_11
REMARK    3  A    between atoms: C_17  and  O_22
REMARK    4  A    between atoms: O_22  and  N_25
REMARK    5  A    between atoms: C_23  and  C_26
REMARK    6  A    between atoms: C_26  and  N_27
REMARK                            x       y       z     vdW  Elec       q    Type
REMARK                         _______ _______ _______ _____ _____    ______ ____
ROOT
ATOM      1  C   UNL     1      52.730 160.516  42.279  0.00  0.00    -0.020 C 
ATOM      2  C   UNL     1      53.693 159.592  41.918  0.00  0.00    -0.004 C 
ATOM      3  C   UNL     1      54.979 159.979  41.558  0.00  0.00    +0.001 C 
ATOM      4  C   UNL     1      55.268 161.307  41.570  0.00  0.00    +0.016 C 
ATOM      5  C   UNL     1      54.294 162.244  41.935  0.00  0.00    +0.001 C 
ATOM      6  C   UNL     1      53.016 161.863  42.292  0.00  0.00    -0.004 C 
ATOM      7  C   UNL     1      54.609 163.593  41.940  0.00  0.00    +0.000 C 
ATOM      8  C   UNL     1      55.879 163.985  41.584  0.00  0.00    +0.001 C 
ATOM      9  C   UNL     1      56.841 163.033  41.221  0.00  0.00    +0.017 C 
ATOM     10  C   UNL     1      56.535 161.694  41.214  0.00  0.00    +0.078 C 
ENDROOT
BRANCH  10  11
ATOM     11  N   UNL     1      57.545 160.704  40.837  0.00  0.00    -0.149 N 
ATOM     12  N   UNL     1      57.904 160.417  39.625  0.00  0.00    -0.162 NA
ATOM     13  C   UNL     1      58.651 159.694  39.183  0.00  0.00    +0.158 C 
ATOM     14  S   UNL     1      59.331 158.918  40.778  0.00  0.00    -0.005 S 
ATOM     15  C   UNL     1      58.216 159.976  41.784  0.00  0.00    +0.305 C 
ATOM     16  O   UNL     1      58.149 159.968  43.031  0.00  0.00    -0.260 OA
ENDBRANCH  10  11
BRANCH   1  21
ATOM     17  C   UNL     1      50.270 160.574  41.814  0.00  0.00    +0.146 C 
ATOM     18  C   UNL     1      49.144 159.596  42.101  0.00  0.00    +0.032 C 
ATOM     19  C   UNL     1      49.788 158.307  42.542  0.00  0.00    +0.003 C 
ATOM     20  C   UNL     1      51.279 158.524  42.379  0.00  0.00    +0.007 C 
ATOM     21  C   UNL     1      51.400 160.015  42.639  0.00  0.00    +0.052 C 
BRANCH  17  22
ATOM     22  O   UNL     1      49.856 161.834  42.236  0.00  0.00    -0.269 OA
BRANCH  22  25
ATOM     23  C   UNL     1      48.104 162.980  40.957  0.00  0.00    +0.260 C 
ATOM     24  O   UNL     1      47.232 162.633  41.795  0.00  0.00    -0.272 OA
ATOM     25  N   UNL     1      49.441 162.571  41.184  0.00  0.00    -0.192 N 
ATOM     26  H   UNL     1      50.119 162.846  40.525  0.00  0.00    +0.183 HD
BRANCH  23  27
ATOM     27  C   UNL     1      47.693 163.785  39.795  0.00  0.00    +0.154 C 
BRANCH  27  28
ATOM     28  N   UNL     1      46.535 163.256  39.120  0.00  0.00    -0.313 NA
ATOM     29  H   UNL     1      46.039 164.014  38.652  0.00  0.00    +0.119 HD
ATOM     30  H   UNL     1      45.917 162.815  39.800  0.00  0.00    +0.119 HD
ENDBRANCH  27  28
ENDBRANCH  23  27
ENDBRANCH  22  25
ENDBRANCH  17  22
ENDBRANCH   1  21
TORSDOF 6
ENDMDL
