REMARK  Name = =
REMARK  4 active torsions:
REMARK  status: ('A' for Active; 'I' for Inactive)
REMARK    1  A    between atoms: C_1  and  N_19
REMARK    2  A    between atoms: C_20  and  N_25
REMARK    3  A    between atoms: N_25  and  C_26
REMARK    4  A    between atoms: C_26  and  O_28
REMARK                            x       y       z     vdW  Elec       q    Type
REMARK                         _______ _______ _______ _____ _____    ______ ____
ROOT
ATOM      1  C   UNL     1      49.433 158.559  30.018  0.00  0.00    +0.081 C 
ATOM      2  C   UNL     1      48.060 158.585  30.652  0.00  0.00    +0.021 C 
ATOM      3  C   UNL     1      47.478 160.006  30.781  0.00  0.00    +0.006 C 
ATOM      4  C   UNL     1      48.204 160.546  32.057  0.00  0.00    +0.026 C 
ATOM      5  C   UNL     1      49.621 160.616  31.531  0.00  0.00    -0.025 C 
ATOM      6  C   UNL     1      50.123 159.783  30.568  0.00  0.00    -0.012 C 
ATOM      7  C   UNL     1      51.413 160.001  30.062  0.00  0.00    -0.008 C 
ATOM      8  C   UNL     1      52.135 161.062  30.571  0.00  0.00    -0.022 C 
ATOM      9  C   UNL     1      51.634 161.886  31.533  0.00  0.00    -0.022 C 
ATOM     10  C   UNL     1      50.364 161.664  32.018  0.00  0.00    -0.009 C 
ATOM     11  C   UNL     1      52.438 162.995  32.102  0.00  0.00    +0.052 C 
ATOM     12  C   UNL     1      53.889 162.778  31.923  0.00  0.00    -0.021 C 
ATOM     13  C   UNL     1      54.371 161.984  30.930  0.00  0.00    -0.021 C 
ATOM     14  C   UNL     1      55.738 161.789  30.757  0.00  0.00    -0.004 C 
ATOM     15  C   UNL     1      56.627 162.409  31.609  0.00  0.00    -0.000 C 
ATOM     16  C   UNL     1      56.142 163.227  32.632  0.00  0.00    -0.000 C 
ATOM     17  C   UNL     1      54.761 163.405  32.782  0.00  0.00    -0.004 C 
ATOM     18  C   UNL     1      53.490 161.283  29.993  0.00  0.00    +0.052 C 
ENDROOT
BRANCH   1  19
ATOM     19  N   UNL     1      50.029 157.319  30.300  0.00  0.00    -0.253 NA
ATOM     20  C   UNL     1      51.169 156.803  29.674  0.00  0.00    +0.150 C 
ATOM     21  C   UNL     1      50.981 156.235  28.265  0.00  0.00    +0.106 C 
ATOM     22  N   UNL     1      50.184 155.032  28.410  0.00  0.00    -0.294 NA
ATOM     23  C   UNL     1      48.964 155.425  29.079  0.00  0.00    +0.086 C 
ATOM     24  C   UNL     1      49.144 156.155  30.364  0.00  0.00    +0.091 C 
ATOM     25  H   UNL     1      50.686 154.342  28.969  0.00  0.00    +0.123 HD
BRANCH  20  26
ATOM     26  N   UNL     1      52.476 157.288  29.862  0.00  0.00    -0.286 N 
ATOM     27  H   UNL     1      52.794 157.440  30.781  0.00  0.00    +0.151 HD
BRANCH  26  28
ATOM     28  C   UNL     1      53.351 157.566  28.790  0.00  0.00    +0.227 C 
ATOM     29  S   UNL     1      53.171 156.922  27.281  0.00  0.00    +0.006 S 
BRANCH  28  30
ATOM     30  O   UNL     1      54.428 158.415  28.964  0.00  0.00    -0.490 OA
ATOM     31  H   UNL     1      54.582 158.811  29.799  0.00  0.00    +0.294 HD
ENDBRANCH  28  30
ENDBRANCH  26  28
ENDBRANCH  20  26
ENDBRANCH   1  19
TORSDOF 4
