REMARK  Name = =
REMARK  0 active torsions:
REMARK  status: ('A' for Active; 'I' for Inactive)
REMARK                            x       y       z     vdW  Elec       q    Type
REMARK                         _______ _______ _______ _____ _____    ______ ____
ROOT
ATOM      1  C   UNL     1     -13.112 -43.420  26.716  0.00  0.00    -0.026 C 
ATOM      2  C   UNL     1     -13.306 -44.724  26.755  0.00  0.00    -0.026 C 
ATOM      3  C   UNL     1     -12.923 -45.498  27.972  0.00  0.00    +0.052 C 
ATOM      4  C   UNL     1     -11.634 -44.941  28.443  0.00  0.00    -0.021 C 
ATOM      5  C   UNL     1     -11.421 -43.581  28.403  0.00  0.00    -0.021 C 
ATOM      6  C   UNL     1     -10.206 -43.086  28.849  0.00  0.00    -0.004 C 
ATOM      7  C   UNL     1      -9.208 -43.922  29.330  0.00  0.00    -0.000 C 
ATOM      8  C   UNL     1      -9.457 -45.273  29.355  0.00  0.00    -0.000 C 
ATOM      9  C   UNL     1     -10.667 -45.798  28.914  0.00  0.00    -0.004 C 
ATOM     10  C   UNL     1     -12.510 -42.717  27.883  0.00  0.00    +0.052 C 
ENDROOT
TORSDOF 0
