REMARK  Name = =
REMARK  4 active torsions:
REMARK  status: ('A' for Active; 'I' for Inactive)
REMARK    1  A    between atoms: N_1  and  C_7
REMARK    2  A    between atoms: N_4  and  C_17
REMARK    3  A    between atoms: C_18  and  O_28
REMARK    4  A    between atoms: C_22  and  C_23
REMARK                            x       y       z     vdW  Elec       q    Type
REMARK                         _______ _______ _______ _____ _____    ______ ____
ROOT
ATOM      1  N   UNL     1     -14.513 -43.292  26.799  0.00  0.00    -0.307 N 
ATOM      2  C   UNL     1     -14.682 -43.744  25.444  0.00  0.00    +0.112 C 
ATOM      3  C   UNL     1     -14.815 -42.623  24.442  0.00  0.00    +0.112 C 
ATOM      4  N   UNL     1     -16.005 -41.868  24.763  0.00  0.00    -0.302 N 
ATOM      5  C   UNL     1     -16.351 -41.798  26.184  0.00  0.00    +0.112 C 
ATOM      6  C   UNL     1     -15.107 -42.030  27.050  0.00  0.00    +0.112 C 
ENDROOT
BRANCH   1   7
ATOM      7  C   UNL     1     -13.203 -43.442  27.287  0.00  0.00    +0.025 C 
ATOM      8  C   UNL     1     -12.419 -42.381  27.447  0.00  0.00    -0.011 C 
ATOM      9  C   UNL     1     -11.045 -42.603  27.965  0.00  0.00    +0.053 C 
ATOM     10  C   UNL     1     -11.143 -43.561  29.081  0.00  0.00    -0.021 C 
ATOM     11  C   UNL     1     -11.960 -44.660  28.912  0.00  0.00    -0.020 C 
ATOM     12  C   UNL     1     -12.039 -45.545  29.963  0.00  0.00    -0.004 C 
ATOM     13  C   UNL     1     -11.337 -45.350  31.135  0.00  0.00    -0.000 C 
ATOM     14  C   UNL     1     -10.518 -44.236  31.289  0.00  0.00    -0.000 C 
ATOM     15  C   UNL     1     -10.427 -43.326  30.229  0.00  0.00    -0.004 C 
ATOM     16  C   UNL     1     -12.708 -44.836  27.626  0.00  0.00    +0.067 C 
ENDBRANCH   1   7
BRANCH   4  17
ATOM     17  C   UNL     1     -16.824 -41.211  23.816  0.00  0.00    +0.082 C 
ATOM     18  C   UNL     1     -16.198 -40.572  22.764  0.00  0.00    +0.147 C 
ATOM     19  C   UNL     1     -16.875 -39.886  21.796  0.00  0.00    +0.038 C 
ATOM     20  C   UNL     1     -18.247 -39.822  21.869  0.00  0.00    +0.003 C 
ATOM     21  C   UNL     1     -18.894 -40.445  22.901  0.00  0.00    +0.002 C 
ATOM     22  C   UNL     1     -18.192 -41.152  23.896  0.00  0.00    +0.021 C 
BRANCH  22  23
ATOM     23  C   UNL     1     -18.966 -41.774  24.957  0.00  0.00    +0.064 C 
ATOM     24  C   UNL     1     -19.554 -41.043  25.997  0.00  0.00    +0.214 C 
ATOM     25  O   UNL     1     -20.195 -41.869  26.788  0.00  0.00    -0.350 OA
ATOM     26  N   UNL     1     -20.052 -43.053  26.321  0.00  0.00    -0.075 NA
ATOM     27  C   UNL     1     -19.303 -43.065  25.191  0.00  0.00    +0.144 C 
ENDBRANCH  22  23
BRANCH  18  28
ATOM     28  O   UNL     1     -14.816 -40.635  22.690  0.00  0.00    -0.504 OA
ATOM     29  H   UNL     1     -14.333 -41.100  23.344  0.00  0.00    +0.292 HD
ENDBRANCH  18  28
ENDBRANCH   4  17
TORSDOF 4
