REMARK  Name = =
REMARK  2 active torsions:
REMARK  status: ('A' for Active; 'I' for Inactive)
REMARK    1  A    between atoms: N_1  and  C_18
REMARK    2  A    between atoms: N_4  and  N_7
REMARK                            x       y       z     vdW  Elec       q    Type
REMARK                         _______ _______ _______ _____ _____    ______ ____
ROOT
ATOM      1  N   UNL     1     -13.334 -42.909  26.349  0.00  0.00    -0.306 N 
ATOM      2  C   UNL     1     -13.730 -43.450  25.064  0.00  0.00    +0.114 C 
ATOM      3  C   UNL     1     -15.235 -43.464  25.081  0.00  0.00    +0.131 C 
ATOM      4  N   UNL     1     -15.711 -42.111  25.262  0.00  0.00    -0.240 N 
ATOM      5  C   UNL     1     -15.161 -41.306  26.326  0.00  0.00    +0.131 C 
ATOM      6  C   UNL     1     -13.669 -41.510  26.528  0.00  0.00    +0.114 C 
ENDROOT
BRANCH   4   7
ATOM      7  N   UNL     1     -16.719 -41.584  24.421  0.00  0.00    -0.194 N 
ATOM      8  C   UNL     1     -17.991 -41.692  24.916  0.00  0.00    +0.215 A 
ATOM      9  N   UNL     1     -19.034 -41.219  24.210  0.00  0.00    -0.197 NA
ATOM     10  C   UNL     1     -18.792 -40.636  22.999  0.00  0.00    +0.159 A 
ATOM     11  C   UNL     1     -17.523 -40.513  22.477  0.00  0.00    +0.172 A 
ATOM     12  C   UNL     1     -16.471 -41.016  23.242  0.00  0.00    +0.300 A 
ATOM     13  O   UNL     1     -15.290 -40.934  22.819  0.00  0.00    -0.264 OA
ATOM     14  N   UNL     1     -17.623 -39.902  21.289  0.00  0.00    -0.220 NA
ATOM     15  C   UNL     1     -18.914 -39.630  21.029  0.00  0.00    +0.165 C 
ATOM     16  N   UNL     1     -19.618 -40.083  22.079  0.00  0.00    -0.280 N 
ATOM     17  N   UNL     1     -18.231 -42.308  26.165  0.00  0.00    -0.327 N 
ATOM     18  H   UNL     1     -20.597 -40.022  22.168  0.00  0.00    +0.155 HD
ATOM     19  H   UNL     1     -17.478 -42.659  26.693  0.00  0.00    +0.145 HD
ATOM     20  H   UNL     1     -19.151 -42.386  26.507  0.00  0.00    +0.145 HD
ENDBRANCH   4   7
BRANCH   1  21
ATOM     21  C   UNL     1     -12.711 -43.668  27.352  0.00  0.00    +0.050 C 
ATOM     22  C   UNL     1     -12.169 -43.088  28.473  0.00  0.00    +0.091 C 
ATOM     23  C   UNL     1     -11.585 -43.859  29.462  0.00  0.00    +0.095 C 
ATOM     24  C   UNL     1     -11.554 -45.226  29.302  0.00  0.00    +0.176 C 
ATOM     25  N   UNL     1     -12.069 -45.822  28.229  0.00  0.00    -0.223 NA
ATOM     26  C   UNL     1     -12.631 -45.064  27.280  0.00  0.00    +0.111 C 
ATOM     27  N   UNL     1     -10.986 -45.991  30.253  0.00  0.00    -0.227 NA
ATOM     28  C   UNL     1     -10.441 -45.429  31.370  0.00  0.00    +0.101 C 
ATOM     29  C   UNL     1     -10.463 -44.077  31.542  0.00  0.00    +0.172 C 
ATOM     30  N   UNL     1     -11.041 -43.307  30.576  0.00  0.00    -0.265 NA
ENDBRANCH   1  21
TORSDOF 2
