REMARK  Name = =
REMARK  1 active torsions:
REMARK  status: ('A' for Active; 'I' for Inactive)
REMARK    1  A    between atoms: C_8  and  O_11
REMARK                            x       y       z     vdW  Elec       q    Type
REMARK                         _______ _______ _______ _____ _____    ______ ____
ROOT
ATOM      1  O   UNL     1      52.110 156.766  28.034  0.00  0.00    -0.476 OA
ATOM      2  C   UNL     1      51.947 156.633  29.428  0.00  0.00    +0.206 C 
ATOM      3  C   UNL     1      51.036 155.476  29.738  0.00  0.00    +0.052 C 
ATOM      4  C   UNL     1      51.507 154.189  29.111  0.00  0.00    +0.033 C 
ATOM      5  C   UNL     1      52.238 154.409  27.844  0.00  0.00    +0.012 C 
ATOM      6  C   UNL     1      52.532 155.659  27.317  0.00  0.00    +0.138 C 
ATOM      7  C   UNL     1      53.216 155.803  26.133  0.00  0.00    +0.073 C 
ATOM      8  C   UNL     1      53.620 154.680  25.450  0.00  0.00    +0.137 C 
ATOM      9  C   UNL     1      53.349 153.424  25.937  0.00  0.00    +0.036 C 
ATOM     10  C   UNL     1      52.663 153.321  27.126  0.00  0.00    +0.002 C 
ENDROOT
BRANCH   8  11
ATOM     11  O   UNL     1      54.319 154.779  24.241  0.00  0.00    -0.505 OA
ATOM     12  H   UNL     1      54.586 154.003  23.789  0.00  0.00    +0.292 HD
ENDBRANCH   8  11
TORSDOF 1
