REMARK  Name = =
REMARK  5 active torsions:
REMARK  status: ('A' for Active; 'I' for Inactive)
REMARK    1  A    between atoms: C_3  and  O_11
REMARK    2  A    between atoms: C_10  and  O_12
REMARK    3  A    between atoms: O_12  and  C_13
REMARK    4  A    between atoms: C_13  and  C_15
REMARK    5  A    between atoms: C_15  and  O_17
REMARK                            x       y       z     vdW  Elec       q    Type
REMARK                         _______ _______ _______ _____ _____    ______ ____
ROOT
ATOM      1  C   UNL     1      52.483 154.893  26.478  0.00  0.00    +0.016 C 
ATOM      2  C   UNL     1      53.010 156.136  26.232  0.00  0.00    +0.011 C 
ATOM      3  C   UNL     1      53.669 156.437  25.026  0.00  0.00    +0.129 C 
ATOM      4  C   UNL     1      53.806 155.473  24.042  0.00  0.00    +0.036 C 
ATOM      5  C   UNL     1      53.279 154.227  24.288  0.00  0.00    +0.003 C 
ATOM      6  C   UNL     1      52.634 153.929  25.465  0.00  0.00    -0.001 C 
ATOM      7  C   UNL     1      52.923 157.244  27.229  0.00  0.00    +0.029 C 
ATOM      8  C   UNL     1      52.785 156.619  28.601  0.00  0.00    +0.009 C 
ATOM      9  C   UNL     1      51.507 155.773  28.525  0.00  0.00    +0.049 C 
ATOM     10  C   UNL     1      51.782 154.539  27.722  0.00  0.00    +0.188 C 
ENDROOT
BRANCH   3  11
ATOM     11  O   UNL     1      54.200 157.688  24.770  0.00  0.00    -0.506 OA
ATOM     12  H   UNL     1      54.128 158.368  25.411  0.00  0.00    +0.292 HD
ENDBRANCH   3  11
BRANCH  10  13
ATOM     13  O   UNL     1      52.444 153.542  28.469  0.00  0.00    -0.468 OA
BRANCH  13  14
ATOM     14  C   UNL     1      51.797 152.301  28.569  0.00  0.00    +0.214 C 
ATOM     15  C   UNL     1      50.804 152.107  29.421  0.00  0.00    +0.047 C 
BRANCH  14  16
ATOM     16  C   UNL     1      52.235 151.208  27.713  0.00  0.00    +0.373 C 
ATOM     17  O   UNL     1      51.729 150.064  27.844  0.00  0.00    -0.242 OA
BRANCH  16  18
ATOM     18  O   UNL     1      53.204 151.362  26.735  0.00  0.00    -0.475 OA
ATOM     19  H   UNL     1      53.608 152.197  26.603  0.00  0.00    +0.296 HD
ENDBRANCH  16  18
ENDBRANCH  14  16
ENDBRANCH  13  14
ENDBRANCH  10  13
TORSDOF 5
