REMARK  Name = =
REMARK  4 active torsions:
REMARK  status: ('A' for Active; 'I' for Inactive)
REMARK    1  A    between atoms: C_2  and  S_12
REMARK    2  A    between atoms: C_8  and  O_11
REMARK    3  A    between atoms: S_12  and  S_13
REMARK    4  A    between atoms: S_13  and  S_14
REMARK                            x       y       z     vdW  Elec       q    Type
REMARK                         _______ _______ _______ _____ _____    ______ ____
ROOT
ATOM      1  O   UNL     1      51.840 157.114  28.120  0.00  0.00    -0.468 OA
ATOM      2  C   UNL     1      51.698 157.207  29.520  0.00  0.00    +0.224 C 
ATOM      3  C   UNL     1      50.633 156.219  29.930  0.00  0.00    +0.061 C 
ATOM      4  C   UNL     1      51.238 154.838  29.748  0.00  0.00    +0.034 C 
ATOM      5  C   UNL     1      51.872 154.759  28.412  0.00  0.00    +0.012 C 
ATOM      6  C   UNL     1      52.164 155.850  27.624  0.00  0.00    +0.139 C 
ATOM      7  C   UNL     1      52.757 155.695  26.386  0.00  0.00    +0.073 C 
ATOM      8  C   UNL     1      53.082 154.454  25.882  0.00  0.00    +0.137 C 
ATOM      9  C   UNL     1      52.793 153.357  26.662  0.00  0.00    +0.036 C 
ATOM     10  C   UNL     1      52.202 153.510  27.897  0.00  0.00    +0.002 C 
ENDROOT
BRANCH   8  11
ATOM     11  O   UNL     1      53.681 154.339  24.627  0.00  0.00    -0.505 OA
ATOM     12  H   UNL     1      53.864 155.107  24.123  0.00  0.00    +0.292 HD
ENDBRANCH   8  11
BRANCH   2  13
ATOM     13  S   UNL     1      51.366 158.879  30.076  0.00  0.00    -0.029 S 
BRANCH  13  14
ATOM     14  S   UNL     1      49.506 159.047  31.073  0.00  0.00    -0.024 S 
BRANCH  14  15
ATOM     15  S   UNL     1      48.911 161.064  31.323  0.00  0.00    -0.099 S 
ATOM     16  H   UNL     1      47.714 161.107  31.967  0.00  0.00    +0.115 HD
ENDBRANCH  14  15
ENDBRANCH  13  14
ENDBRANCH   2  13
TORSDOF 4
