REMARK  Name = =
REMARK  5 active torsions:
REMARK  status: ('A' for Active; 'I' for Inactive)
REMARK    1  A    between atoms: C_2  and  S_12
REMARK    2  A    between atoms: C_8  and  O_11
REMARK    3  A    between atoms: S_12  and  N_14
REMARK    4  A    between atoms: S_12  and  S_17
REMARK    5  A    between atoms: S_17  and  S_18
REMARK                            x       y       z     vdW  Elec       q    Type
REMARK                         _______ _______ _______ _____ _____    ______ ____
ROOT
ATOM      1  O   UNL     1      50.565 155.593  28.100  0.00  0.00    -0.467 OA
ATOM      2  C   UNL     1      50.381 155.761  29.505  0.00  0.00    +0.228 C 
ATOM      3  C   UNL     1      51.320 154.865  30.288  0.00  0.00    +0.061 C 
ATOM      4  C   UNL     1      51.460 153.512  29.577  0.00  0.00    +0.034 C 
ATOM      5  C   UNL     1      52.124 153.806  28.281  0.00  0.00    +0.012 C 
ATOM      6  C   UNL     1      51.629 154.878  27.567  0.00  0.00    +0.139 C 
ATOM      7  C   UNL     1      52.222 155.179  26.360  0.00  0.00    +0.073 C 
ATOM      8  C   UNL     1      53.271 154.450  25.864  0.00  0.00    +0.137 C 
ATOM      9  C   UNL     1      53.779 153.382  26.556  0.00  0.00    +0.036 C 
ATOM     10  C   UNL     1      53.180 153.080  27.773  0.00  0.00    +0.002 C 
ENDROOT
BRANCH   8  11
ATOM     11  O   UNL     1      53.829 154.792  24.652  0.00  0.00    -0.505 OA
ATOM     12  H   UNL     1      53.491 155.520  24.169  0.00  0.00    +0.292 HD
ENDBRANCH   8  11
BRANCH   2  13
ATOM     13  S   UNL     1      50.727 157.468  29.822  0.00  0.00    -0.020 S 
BRANCH  13  14
ATOM     14  N   UNL     1      49.883 158.423  30.192  0.00  0.00    -0.222 NA
ATOM     15  C   UNL     1      49.063 158.763  31.418  0.00  0.00    +0.102 C 
ATOM     16  C   UNL     1      49.022 159.549  30.192  0.00  0.00    +0.102 C 
ENDBRANCH  13  14
BRANCH  13  17
ATOM     17  S   UNL     1      51.946 157.709  28.888  0.00  0.00    -0.019 S 
BRANCH  17  18
ATOM     18  S   UNL     1      53.835 158.109  29.161  0.00  0.00    -0.099 S 
ATOM     19  H   UNL     1      54.454 158.220  27.955  0.00  0.00    +0.115 HD
ENDBRANCH  17  18
ENDBRANCH  13  17
ENDBRANCH   2  13
TORSDOF 5
REMARK  Name = =
REMARK  5 active torsions:
REMARK  status: ('A' for Active; 'I' for Inactive)
REMARK    1  A    between atoms: C_2  and  S_12
REMARK    2  A    between atoms: C_8  and  O_11
REMARK    3  A    between atoms: S_12  and  N_14
REMARK    4  A    between atoms: S_12  and  S_17
REMARK    5  A    between atoms: S_17  and  S_18
REMARK                            x       y       z     vdW  Elec       q    Type
REMARK                         _______ _______ _______ _____ _____    ______ ____
ROOT
ATOM      1  H   UNK     1      51.356 156.936  31.456  0.00  0.00    +0.000 HD
ENDROOT
TORSDOF 0
