REMARK  Name = =
REMARK  10 active torsions:
REMARK  status: ('A' for Active; 'I' for Inactive)
REMARK    1  A    between atoms: C_3  and  O_11
REMARK    2  A    between atoms: C_7  and  C_18
REMARK    3  A    between atoms: C_10  and  O_12
REMARK    4  A    between atoms: O_12  and  C_13
REMARK    5  A    between atoms: C_13  and  C_15
REMARK    6  A    between atoms: C_15  and  O_17
REMARK    7  A    between atoms: C_18  and  N_19
REMARK    8  A    between atoms: N_19  and  N_20
REMARK    9  A    between atoms: N_23  and  N_25
REMARK   10  A    between atoms: C_26  and  O_28
REMARK                            x       y       z     vdW  Elec       q    Type
REMARK                         _______ _______ _______ _____ _____    ______ ____
ROOT
ATOM      1  C   UNL     1      53.128 154.177  26.774  0.00  0.00    +0.016 C 
ATOM      2  C   UNL     1      53.024 155.269  27.657  0.00  0.00    +0.012 C 
ATOM      3  C   UNL     1      53.126 156.533  27.154  0.00  0.00    +0.129 C 
ATOM      4  C   UNL     1      53.326 156.798  25.803  0.00  0.00    +0.036 C 
ATOM      5  C   UNL     1      53.429 155.752  24.931  0.00  0.00    +0.003 C 
ATOM      6  C   UNL     1      53.326 154.454  25.446  0.00  0.00    -0.001 C 
ATOM      7  C   UNL     1      52.792 154.965  29.059  0.00  0.00    +0.043 C 
ATOM      8  C   UNL     1      51.740 153.835  29.064  0.00  0.00    +0.010 C 
ATOM      9  C   UNL     1      52.257 152.577  28.513  0.00  0.00    +0.049 C 
ATOM     10  C   UNL     1      53.052 152.801  27.243  0.00  0.00    +0.188 C 
ENDROOT
BRANCH   3  11
ATOM     11  O   UNL     1      53.034 157.652  27.982  0.00  0.00    -0.506 OA
ATOM     12  H   UNL     1      52.899 157.544  28.903  0.00  0.00    +0.292 HD
ENDBRANCH   3  11
BRANCH  10  13
ATOM     13  O   UNL     1      52.751 151.868  26.289  0.00  0.00    -0.468 OA
BRANCH  13  14
ATOM     14  C   UNL     1      53.411 151.270  25.288  0.00  0.00    +0.214 C 
ATOM     15  C   UNL     1      54.216 151.999  24.505  0.00  0.00    +0.047 C 
BRANCH  14  16
ATOM     16  C   UNL     1      53.285 149.830  25.017  0.00  0.00    +0.373 C 
ATOM     17  O   UNL     1      53.728 149.390  23.934  0.00  0.00    -0.242 OA
BRANCH  16  18
ATOM     18  O   UNL     1      52.705 148.939  25.889  0.00  0.00    -0.475 OA
ATOM     19  H   UNL     1      52.364 149.240  26.708  0.00  0.00    +0.296 HD
ENDBRANCH  16  18
ENDBRANCH  14  16
ENDBRANCH  13  14
ENDBRANCH  10  13
BRANCH   7  20
ATOM     20  C   UNL     1      52.090 156.057  29.861  0.00  0.00    +0.093 C 
BRANCH  20  21
ATOM     21  N   UNL     1      50.801 156.326  29.340  0.00  0.00    -0.216 NA
ATOM     22  H   UNL     1      50.873 156.315  28.323  0.00  0.00    +0.146 HD
BRANCH  21  23
ATOM     23  N   UNL     1      50.215 157.510  29.698  0.00  0.00    -0.157 N 
ATOM     24  C   UNL     1      50.848 158.749  29.954  0.00  0.00    +0.341 C 
ATOM     25  O   UNL     1      52.111 158.924  29.871  0.00  0.00    -0.249 OA
ATOM     26  N   UNL     1      50.114 159.922  30.329  0.00  0.00    -0.214 N 
ATOM     27  I   UNL     1      48.093 157.564  29.913  0.00  0.00    +0.067 I 
ATOM     28  H   UNL     1      49.134 159.888  30.416  0.00  0.00    +0.175 HD
BRANCH  26  29
ATOM     29  N   UNL     1      50.804 161.115  30.570  0.00  0.00    -0.198 N 
ATOM     30  C   UNL     1      50.757 161.713  31.880  0.00  0.00    +0.414 C 
ATOM     31  O   UNL     1      50.088 161.139  32.785  0.00  0.00    -0.225 OA
ATOM     32  H   UNL     1      51.319 161.543  29.848  0.00  0.00    +0.176 HD
BRANCH  30  33
ATOM     33  O   UNL     1      51.423 162.887  32.153  0.00  0.00    -0.465 OA
ATOM     34  H   UNL     1      51.919 163.312  31.481  0.00  0.00    +0.297 HD
ENDBRANCH  30  33
ENDBRANCH  26  29
ENDBRANCH  21  23
ENDBRANCH  20  21
ENDBRANCH   7  20
TORSDOF 10
