REMARK  Name = =
REMARK  2 active torsions:
REMARK  status: ('A' for Active; 'I' for Inactive)
REMARK    1  A    between atoms: P_2  and  O_4
REMARK    2  A    between atoms: P_2  and  O_5
REMARK                            x       y       z     vdW  Elec       q    Type
REMARK                         _______ _______ _______ _____ _____    ______ ____
ROOT
ATOM      1  F   UNL     1      52.536 156.599  27.340  0.00  0.00    -0.133 F 
ATOM      2  P   UNL     1      52.152 155.212  28.221  0.00  0.00    +0.510 P 
ATOM      3  O   UNL     1      51.567 155.728  29.530  0.00  0.00    -0.223 OA
ENDROOT
BRANCH   2   4
ATOM      4  O   UNL     1      53.539 154.277  28.502  0.00  0.00    -0.299 OA
ATOM      5  H   UNL     1      54.211 154.820  28.944  0.00  0.00    +0.222 HD
ENDBRANCH   2   4
BRANCH   2   6
ATOM      6  O   UNL     1      50.957 154.307  27.454  0.00  0.00    -0.299 OA
ATOM      7  H   UNL     1      51.300 153.964  26.614  0.00  0.00    +0.222 HD
ENDBRANCH   2   6
TORSDOF 2
