REMARK  Name = =
REMARK  0 active torsions:
REMARK  status: ('A' for Active; 'I' for Inactive)
REMARK                            x       y       z     vdW  Elec       q    Type
REMARK                         _______ _______ _______ _____ _____    ______ ____
ROOT
ATOM      1  S   UNL     1      52.337 156.232  28.022  0.00  0.00    -0.137 S 
ATOM      2  C   UNL     1      52.029 154.537  28.564  0.00  0.00    +0.075 C 
ATOM      3  C   UNL     1      52.057 153.541  27.454  0.00  0.00    +0.080 C 
ATOM      4  N   UNL     1      52.024 154.111  26.141  0.00  0.00    -0.296 NA
ATOM      5  C   UNL     1      53.182 154.888  25.822  0.00  0.00    +0.080 C 
ATOM      6  C   UNL     1      53.121 156.285  26.401  0.00  0.00    +0.075 C 
ATOM      7  H   UNL     1      51.203 154.713  26.072  0.00  0.00    +0.123 HD
ENDROOT
TORSDOF 0
