REMARK  Name = =
REMARK  1 active torsions:
REMARK  status: ('A' for Active; 'I' for Inactive)
REMARK    1  A    between atoms: C_1  and  C_13
REMARK                            x       y       z     vdW  Elec       q    Type
REMARK                         _______ _______ _______ _____ _____    ______ ____
ROOT
ATOM      1  C   UNL     1      50.884 160.932  31.218  0.00  0.00    -0.000 C 
ATOM      2  C   UNL     1      52.052 160.514  30.622  0.00  0.00    -0.003 C 
ATOM      3  C   UNL     1      53.301 161.080  30.893  0.00  0.00    -0.008 C 
ATOM      4  C   UNL     1      53.330 162.110  31.810  0.00  0.00    +0.046 C 
ATOM      5  C   UNL     1      52.166 162.537  32.414  0.00  0.00    +0.014 C 
ATOM      6  C   UNL     1      50.936 161.959  32.129  0.00  0.00    +0.001 C 
ATOM      7  N   UNL     1      54.570 162.764  32.157  0.00  0.00    -0.284 N 
ATOM      8  C   UNL     1      55.738 162.297  31.512  0.00  0.00    +0.226 C 
ATOM      9  O   UNL     1      56.867 162.461  32.029  0.00  0.00    -0.275 OA
ATOM     10  C   UNL     1      55.606 161.607  30.210  0.00  0.00    +0.090 C 
ATOM     11  C   UNL     1      54.526 160.570  30.206  0.00  0.00    +0.037 C 
ATOM     12  H   UNL     1      54.600 163.499  32.811  0.00  0.00    +0.155 HD
ENDROOT
BRANCH   1  14
ATOM     13  C   UNL     1      48.424 161.026  30.959  0.00  0.00    -0.000 C 
ATOM     14  C   UNL     1      49.623 160.306  30.854  0.00  0.00    -0.000 C 
ATOM     15  C   UNL     1      49.576 158.987  30.435  0.00  0.00    +0.022 C 
ATOM     16  C   UNL     1      48.336 158.419  30.133  0.00  0.00    +0.210 C 
ATOM     17  C   UNL     1      47.177 159.185  30.256  0.00  0.00    +0.021 C 
ATOM     18  C   UNL     1      47.202 160.499  30.670  0.00  0.00    -0.001 C 
ATOM     19  O   UNL     1      48.301 157.112  29.720  0.00  0.00    -0.467 OA
ATOM     20  C   UNL     1      49.409 156.288  29.531  0.00  0.00    +0.173 C 
ATOM     21  C   UNL     1      50.685 156.950  29.866  0.00  0.00    +0.040 C 
ATOM     22  C   UNL     1      50.791 158.198  30.287  0.00  0.00    +0.003 C 
ENDBRANCH   1  14
TORSDOF 1
