REMARK  Name = =
REMARK  4 active torsions:
REMARK  status: ('A' for Active; 'I' for Inactive)
REMARK    1  A    between atoms: N_1  and  O_7
REMARK    2  A    between atoms: C_2  and  C_4
REMARK    3  A    between atoms: O_7  and  P_9
REMARK    4  A    between atoms: P_9  and  O_11
REMARK                            x       y       z     vdW  Elec       q    Type
REMARK                         _______ _______ _______ _____ _____    ______ ____
ROOT
ATOM      1  N   UNL     1      52.446 155.478  26.763  0.00  0.00    -0.176 N 
ATOM      2  C   UNL     1      53.477 155.412  25.802  0.00  0.00    +0.322 C 
ATOM      3  O   UNL     1      53.692 154.307  25.257  0.00  0.00    -0.263 OA
ATOM      4  H   UNL     1      52.320 156.365  27.171  0.00  0.00    +0.183 HD
ENDROOT
BRANCH   2   5
ATOM      5  C   UNL     1      54.299 156.554  25.410  0.00  0.00    +0.298 C 
ATOM      6  O   UNL     1      54.234 157.585  26.091  0.00  0.00    -0.265 OA
ATOM      7  N   UNL     1      55.143 156.481  24.283  0.00  0.00    -0.322 N 
ATOM      8  H   UNL     1      55.184 155.653  23.751  0.00  0.00    +0.145 HD
ATOM      9  H   UNL     1      55.692 157.258  24.028  0.00  0.00    +0.145 HD
ENDBRANCH   2   5
BRANCH   1  10
ATOM     10  O   UNL     1      51.630 154.555  27.201  0.00  0.00    -0.172 OA
BRANCH  10  12
ATOM     11  F   UNL     1      51.152 152.010  28.296  0.00  0.00    -0.132 F 
ATOM     12  P   UNL     1      51.970 153.459  28.329  0.00  0.00    +0.532 P 
ATOM     13  O   UNL     1      51.562 154.077  29.704  0.00  0.00    -0.221 OA
BRANCH  12  14
ATOM     14  O   UNL     1      53.629 153.103  28.537  0.00  0.00    -0.298 OA
ATOM     15  H   UNL     1      53.980 152.709  27.723  0.00  0.00    +0.222 HD
ENDBRANCH  12  14
ENDBRANCH  10  12
ENDBRANCH   1  10
TORSDOF 4
