REMARK  Name = =
REMARK  1 active torsions:
REMARK  status: ('A' for Active; 'I' for Inactive)
REMARK    1  A    between atoms: C_1  and  C_12
REMARK                            x       y       z     vdW  Elec       q    Type
REMARK                         _______ _______ _______ _____ _____    ______ ____
ROOT
ATOM      1  C   UNL     1      53.093 155.482  26.512  0.00  0.00    +0.070 C 
ATOM      2  C   UNL     1      53.366 154.298  25.866  0.00  0.00    +0.018 C 
ATOM      3  C   UNL     1      54.128 154.210  24.726  0.00  0.00    +0.022 C 
ATOM      4  C   UNL     1      54.648 155.366  24.195  0.00  0.00    +0.022 C 
ATOM      5  C   UNL     1      54.386 156.563  24.827  0.00  0.00    +0.099 C 
ATOM      6  N   UNL     1      53.634 156.590  25.940  0.00  0.00    -0.247 NA
ATOM      7  C   UNL     1      54.395 153.008  24.083  0.00  0.00    +0.099 C 
ATOM      8  N   UNL     1      53.876 151.888  24.614  0.00  0.00    -0.242 NA
ATOM      9  C   UNL     1      53.126 151.948  25.731  0.00  0.00    +0.099 C 
ATOM     10  C   UNL     1      52.853 153.150  26.383  0.00  0.00    +0.022 C 
ENDROOT
BRANCH   1  12
ATOM     11  S   UNL     1      52.398 154.175  28.843  0.00  0.00    -0.132 S 
ATOM     12  C   UNL     1      52.295 155.606  27.728  0.00  0.00    +0.103 C 
ATOM     13  C   UNL     1      52.536 156.812  28.552  0.00  0.00    +0.086 C 
ATOM     14  N   UNL     1      51.549 156.983  29.554  0.00  0.00    -0.296 NA
ATOM     15  C   UNL     1      50.615 155.986  29.817  0.00  0.00    +0.080 C 
ATOM     16  C   UNL     1      51.131 154.608  30.113  0.00  0.00    +0.075 C 
ATOM     17  H   UNL     1      51.019 157.817  29.300  0.00  0.00    +0.123 HD
ENDBRANCH   1  12
TORSDOF 1
