REMARK  Name = =
REMARK  4 active torsions:
REMARK  status: ('A' for Active; 'I' for Inactive)
REMARK    1  A    between atoms: S_1  and  N_17
REMARK    2  A    between atoms: C_2  and  C_7
REMARK    3  A    between atoms: N_17  and  C_18
REMARK    4  A    between atoms: C_18  and  O_20
REMARK                            x       y       z     vdW  Elec       q    Type
REMARK                         _______ _______ _______ _____ _____    ______ ____
ROOT
ATOM      1  S   UNL     1      53.554 156.253  25.723  0.00  0.00    -0.159 S 
ATOM      2  C   UNL     1      52.392 155.079  25.246  0.00  0.00    +0.099 C 
ATOM      3  C   UNL     1      52.998 154.245  24.063  0.00  0.00    +0.085 C 
ATOM      4  N   UNL     1      54.329 153.842  24.272  0.00  0.00    -0.296 NA
ATOM      5  C   UNL     1      55.222 154.996  24.061  0.00  0.00    +0.080 C 
ATOM      6  C   UNL     1      55.185 155.706  25.362  0.00  0.00    +0.070 C 
ATOM      7  H   UNL     1      53.202 157.295  24.923  0.00  0.00    +0.102 HD
ATOM      8  H   UNL     1      54.568 153.100  23.614  0.00  0.00    +0.123 HD
ENDROOT
BRANCH   2   9
ATOM      9  C   UNL     1      52.217 154.037  26.298  0.00  0.00    +0.070 C 
ATOM     10  C   UNL     1      51.884 154.347  27.593  0.00  0.00    +0.017 C 
ATOM     11  C   UNL     1      51.767 153.372  28.581  0.00  0.00    +0.022 C 
ATOM     12  C   UNL     1      52.001 152.074  28.199  0.00  0.00    +0.022 C 
ATOM     13  C   UNL     1      52.335 151.756  26.916  0.00  0.00    +0.099 C 
ATOM     14  N   UNL     1      52.436 152.745  25.981  0.00  0.00    -0.247 NA
ATOM     15  C   UNL     1      51.371 153.673  29.898  0.00  0.00    +0.099 C 
ATOM     16  N   UNL     1      51.102 154.945  30.172  0.00  0.00    -0.242 NA
ATOM     17  C   UNL     1      51.191 155.937  29.277  0.00  0.00    +0.099 C 
ATOM     18  C   UNL     1      51.582 155.654  27.984  0.00  0.00    +0.022 C 
ENDBRANCH   2   9
BRANCH   1  19
ATOM     19  N   UNL     1      53.406 157.118  27.198  0.00  0.00    -0.272 N 
ATOM     20  H   UNL     1      52.597 157.007  27.749  0.00  0.00    +0.162 HD
BRANCH  19  21
ATOM     21  C   UNL     1      54.448 158.001  27.637  0.00  0.00    +0.234 C 
ATOM     22  S   UNL     1      54.462 158.520  29.163  0.00  0.00    +0.006 S 
BRANCH  21  23
ATOM     23  O   UNL     1      55.415 158.388  26.745  0.00  0.00    -0.490 OA
ATOM     24  H   UNL     1      55.390 158.076  25.862  0.00  0.00    +0.294 HD
ENDBRANCH  21  23
ENDBRANCH  19  21
ENDBRANCH   1  19
TORSDOF 4
