REMARK  Name = =
REMARK  5 active torsions:
REMARK  status: ('A' for Active; 'I' for Inactive)
REMARK    1  A    between atoms: C_1  and  N_20
REMARK    2  A    between atoms: C_18  and  C_22
REMARK    3  A    between atoms: N_21  and  O_24
REMARK    4  A    between atoms: O_24  and  P_26
REMARK    5  A    between atoms: P_26  and  O_28
REMARK                            x       y       z     vdW  Elec       q    Type
REMARK                         _______ _______ _______ _____ _____    ______ ____
ROOT
ATOM      1  C   UNL     1      52.787 155.555  26.190  0.00  0.00    +0.057 C 
ATOM      2  C   UNL     1      52.893 154.092  26.283  0.00  0.00    +0.017 C 
ATOM      3  C   UNL     1      54.195 153.488  26.097  0.00  0.00    +0.007 C 
ATOM      4  C   UNL     1      54.387 152.064  26.265  0.00  0.00    +0.036 C 
ATOM      5  C   UNL     1      53.173 151.220  26.446  0.00  0.00    +0.058 C 
ATOM      6  C   UNL     1      52.038 151.960  27.045  0.00  0.00    +0.016 C 
ATOM      7  C   UNL     1      51.697 153.264  26.311  0.00  0.00    +0.003 C 
ATOM      8  N   UNL     1      52.869 150.368  25.345  0.00  0.00    -0.295 NA
ATOM      9  C   UNL     1      53.651 150.595  24.164  0.00  0.00    +0.095 C 
ATOM     10  C   UNL     1      55.106 150.656  24.459  0.00  0.00    -0.014 C 
ATOM     11  C   UNL     1      55.453 151.406  25.524  0.00  0.00    -0.028 C 
ATOM     12  C   UNL     1      54.892 154.157  24.943  0.00  0.00    +0.000 C 
ATOM     13  C   UNL     1      55.212 155.556  25.503  0.00  0.00    +0.002 C 
ATOM     14  C   UNL     1      53.938 156.329  25.729  0.00  0.00    +0.016 C 
ATOM     15  C   UNL     1      53.628 156.987  24.401  0.00  0.00    +0.002 C 
ATOM     16  C   UNL     1      52.335 156.412  23.943  0.00  0.00    +0.002 C 
ATOM     17  C   UNL     1      51.691 155.832  25.140  0.00  0.00    +0.018 C 
ATOM     18  H   UNL     1      51.887 150.502  25.104  0.00  0.00    +0.124 HD
ENDROOT
BRANCH   1  21
ATOM     19  C   UNL     1      52.674 157.173  28.138  0.00  0.00    +0.301 C 
ATOM     20  O   UNL     1      53.653 157.732  27.551  0.00  0.00    -0.265 OA
ATOM     21  N   UNL     1      52.190 156.018  27.459  0.00  0.00    -0.300 N 
ATOM     22  H   UNL     1      51.437 155.515  27.846  0.00  0.00    +0.150 HD
BRANCH  19  24
ATOM     23  N   UNL     1      51.919 159.079  29.580  0.00  0.00    -0.176 N 
ATOM     24  C   UNL     1      52.125 157.693  29.380  0.00  0.00    +0.322 C 
ATOM     25  O   UNL     1      51.828 156.904  30.291  0.00  0.00    -0.263 OA
ATOM     26  H   UNL     1      52.161 159.696  28.852  0.00  0.00    +0.183 HD
BRANCH  23  27
ATOM     27  O   UNL     1      51.402 159.607  30.730  0.00  0.00    -0.172 OA
BRANCH  27  29
ATOM     28  F   UNL     1      49.874 160.898  28.804  0.00  0.00    -0.132 F 
ATOM     29  P   UNL     1      49.827 160.127  30.301  0.00  0.00    +0.532 P 
ATOM     30  O   UNL     1      48.871 158.964  30.222  0.00  0.00    -0.221 OA
BRANCH  29  31
ATOM     31  O   UNL     1      49.361 161.244  31.487  0.00  0.00    -0.298 OA
ATOM     32  H   UNL     1      49.997 161.976  31.509  0.00  0.00    +0.222 HD
ENDBRANCH  29  31
ENDBRANCH  27  29
ENDBRANCH  23  27
ENDBRANCH  19  24
ENDBRANCH   1  21
TORSDOF 5
