REMARK  Name = =
REMARK  5 active torsions:
REMARK  status: ('A' for Active; 'I' for Inactive)
REMARK    1  A    between atoms: S_1  and  N_17
REMARK    2  A    between atoms: C_2  and  C_7
REMARK    3  A    between atoms: N_17  and  C_18
REMARK    4  A    between atoms: N_17  and  C_25
REMARK    5  A    between atoms: C_25  and  O_27
REMARK                            x       y       z     vdW  Elec       q    Type
REMARK                         _______ _______ _______ _____ _____    ______ ____
ROOT
ATOM      1  S   UNL     1      53.609 153.955  26.459  0.00  0.00    -0.153 S 
ATOM      2  C   UNL     1      51.946 154.340  26.423  0.00  0.00    +0.099 C 
ATOM      3  C   UNL     1      51.048 153.154  26.138  0.00  0.00    +0.085 C 
ATOM      4  N   UNL     1      51.406 151.931  26.678  0.00  0.00    -0.296 NA
ATOM      5  C   UNL     1      52.740 151.477  26.498  0.00  0.00    +0.080 C 
ATOM      6  C   UNL     1      53.589 152.314  27.406  0.00  0.00    +0.071 C 
ATOM      7  H   UNL     1      54.237 155.055  26.955  0.00  0.00    +0.102 HD
ATOM      8  H   UNL     1      50.791 151.229  26.268  0.00  0.00    +0.123 HD
ENDROOT
BRANCH   2   9
ATOM      9  C   UNL     1      51.521 155.003  27.711  0.00  0.00    +0.070 C 
ATOM     10  C   UNL     1      52.189 156.159  28.055  0.00  0.00    +0.017 C 
ATOM     11  C   UNL     1      51.857 156.784  29.238  0.00  0.00    +0.022 C 
ATOM     12  C   UNL     1      50.855 156.222  30.042  0.00  0.00    +0.022 C 
ATOM     13  C   UNL     1      50.225 155.066  29.642  0.00  0.00    +0.099 C 
ATOM     14  N   UNL     1      50.572 154.480  28.484  0.00  0.00    -0.247 NA
ATOM     15  C   UNL     1      52.493 157.946  29.621  0.00  0.00    +0.099 C 
ATOM     16  N   UNL     1      53.444 158.478  28.840  0.00  0.00    -0.242 NA
ATOM     17  C   UNL     1      53.775 157.880  27.685  0.00  0.00    +0.099 C 
ATOM     18  C   UNL     1      53.167 156.718  27.262  0.00  0.00    +0.022 C 
ENDBRANCH   2   9
BRANCH   1  19
ATOM     19  N   UNL     1      54.546 153.712  25.015  0.00  0.00    -0.220 N 
BRANCH  19  20
ATOM     20  C   UNL     1      55.889 153.161  25.144  0.00  0.00    +0.227 C 
ATOM     21  O   UNL     1      56.651 153.791  26.097  0.00  0.00    -0.325 OA
ATOM     22  C   UNL     1      57.922 153.217  26.079  0.00  0.00    +0.213 C 
ATOM     23  C   UNL     1      57.826 151.802  26.537  0.00  0.00    +0.203 C 
ATOM     24  O   UNL     1      58.680 151.284  27.300  0.00  0.00    -0.289 OA
ATOM     25  C   UNL     1      56.690 151.028  26.061  0.00  0.00    +0.040 C 
ATOM     26  C   UNL     1      55.760 151.702  25.387  0.00  0.00    +0.028 C 
ENDBRANCH  19  20
BRANCH  19  27
ATOM     27  C   UNL     1      54.020 154.040  23.740  0.00  0.00    +0.239 C 
ATOM     28  S   UNL     1      54.861 153.897  22.365  0.00  0.00    +0.007 S 
BRANCH  27  29
ATOM     29  O   UNL     1      52.722 154.509  23.663  0.00  0.00    -0.489 OA
ATOM     30  H   UNL     1      52.211 154.602  24.443  0.00  0.00    +0.294 HD
ENDBRANCH  27  29
ENDBRANCH  19  27
ENDBRANCH   1  19
TORSDOF 5
