REMARK  Name = =
REMARK  5 active torsions:
REMARK  status: ('A' for Active; 'I' for Inactive)
REMARK    1  A    between atoms: S_1  and  N_17
REMARK    2  A    between atoms: C_2  and  C_7
REMARK    3  A    between atoms: N_17  and  C_18
REMARK    4  A    between atoms: N_17  and  C_26
REMARK    5  A    between atoms: C_26  and  O_28
REMARK                            x       y       z     vdW  Elec       q    Type
REMARK                         _______ _______ _______ _____ _____    ______ ____
ROOT
ATOM      1  S   UNL     1      52.405 155.219  26.796  0.00  0.00    -0.152 S 
ATOM      2  C   UNL     1      53.312 153.808  26.374  0.00  0.00    +0.099 C 
ATOM      3  C   UNL     1      53.359 153.881  24.809  0.00  0.00    +0.085 C 
ATOM      4  N   UNL     1      52.391 154.801  24.295  0.00  0.00    -0.296 NA
ATOM      5  C   UNL     1      53.125 156.096  24.298  0.00  0.00    +0.080 C 
ATOM      6  C   UNL     1      53.449 156.421  25.732  0.00  0.00    +0.071 C 
ATOM      7  H   UNL     1      51.107 154.828  26.691  0.00  0.00    +0.102 HD
ATOM      8  H   UNL     1      52.106 154.543  23.350  0.00  0.00    +0.123 HD
ENDROOT
BRANCH   2   9
ATOM      9  C   UNL     1      52.658 152.520  26.602  0.00  0.00    +0.070 C 
ATOM     10  C   UNL     1      53.234 151.408  25.939  0.00  0.00    +0.017 C 
ATOM     11  C   UNL     1      52.772 150.128  26.118  0.00  0.00    +0.022 C 
ATOM     12  C   UNL     1      51.695 149.923  26.993  0.00  0.00    +0.022 C 
ATOM     13  C   UNL     1      51.143 151.016  27.634  0.00  0.00    +0.099 C 
ATOM     14  N   UNL     1      51.643 152.242  27.411  0.00  0.00    -0.247 NA
ATOM     15  C   UNL     1      53.281 149.040  25.414  0.00  0.00    +0.099 C 
ATOM     16  N   UNL     1      54.260 149.263  24.527  0.00  0.00    -0.242 NA
ATOM     17  C   UNL     1      54.737 150.501  24.323  0.00  0.00    +0.099 C 
ATOM     18  C   UNL     1      54.238 151.605  25.021  0.00  0.00    +0.022 C 
ENDBRANCH   2   9
BRANCH   1  19
ATOM     19  N   UNL     1      52.015 155.951  28.240  0.00  0.00    -0.216 N 
BRANCH  19  20
ATOM     20  C   UNL     1      51.429 155.287  29.375  0.00  0.00    +0.228 C 
ATOM     21  I   UNL     1      52.563 153.534  29.874  0.00  0.00    -0.017 I 
ATOM     22  O   UNL     1      50.123 154.804  29.100  0.00  0.00    -0.321 OA
ATOM     23  C   UNL     1      49.261 155.800  28.648  0.00  0.00    +0.213 C 
ATOM     24  C   UNL     1      49.273 156.981  29.581  0.00  0.00    +0.203 C 
ATOM     25  O   UNL     1      48.485 157.920  29.365  0.00  0.00    -0.289 OA
ATOM     26  C   UNL     1      50.237 156.943  30.699  0.00  0.00    +0.040 C 
ATOM     27  C   UNL     1      51.264 156.125  30.579  0.00  0.00    +0.034 C 
ENDBRANCH  19  20
BRANCH  19  28
ATOM     28  C   UNL     1      52.377 157.344  28.334  0.00  0.00    +0.240 C 
ATOM     29  S   UNL     1      51.904 158.246  29.572  0.00  0.00    +0.007 S 
BRANCH  28  30
ATOM     30  O   UNL     1      53.158 157.973  27.362  0.00  0.00    -0.489 OA
ATOM     31  H   UNL     1      53.460 157.489  26.618  0.00  0.00    +0.294 HD
ENDBRANCH  28  30
ENDBRANCH  19  28
ENDBRANCH   1  19
TORSDOF 5
