REMARK  Name = =
REMARK  1 active torsions:
REMARK  status: ('A' for Active; 'I' for Inactive)
REMARK    1  A    between atoms: C_4  and  C_7
REMARK                            x       y       z     vdW  Elec       q    Type
REMARK                         _______ _______ _______ _____ _____    ______ ____
ROOT
ATOM      1  N   UNL     1      51.673 155.746  28.594  0.00  0.00    -0.297 N 
ATOM      2  C   UNL     1      50.388 155.555  29.193  0.00  0.00    +0.117 C 
ATOM      3  C   UNL     1      50.092 156.811  29.876  0.00  0.00    +0.001 C 
ATOM      4  C   UNL     1      51.057 157.706  29.741  0.00  0.00    +0.066 C 
ATOM      5  C   UNL     1      52.090 157.063  28.925  0.00  0.00    +0.247 C 
ATOM      6  O   UNL     1      53.162 157.601  28.585  0.00  0.00    -0.270 OA
ATOM      7  H   UNL     1      52.173 155.090  28.056  0.00  0.00    +0.150 HD
ENDROOT
BRANCH   4   8
ATOM      8  C   UNL     1      51.054 159.047  30.305  0.00  0.00    +0.089 C 
ATOM      9  N   UNL     1      52.020 159.900  30.284  0.00  0.00    -0.227 NA
ATOM     10  C   UNL     1      51.636 161.115  30.945  0.00  0.00    +0.194 C 
ATOM     11  N   UNL     1      50.287 160.824  31.352  0.00  0.00    -0.244 NA
ATOM     12  C   UNL     1      49.928 159.646  30.998  0.00  0.00    +0.173 C 
ENDBRANCH   4   8
TORSDOF 1
