REMARK  Name = =
REMARK  2 active torsions:
REMARK  status: ('A' for Active; 'I' for Inactive)
REMARK    1  A    between atoms: N_1  and  C_16
REMARK    2  A    between atoms: C_4  and  C_17
REMARK                            x       y       z     vdW  Elec       q    Type
REMARK                         _______ _______ _______ _____ _____    ______ ____
ROOT
ATOM      1  N   UNL     1      50.964 155.824  28.574  0.00  0.00    -0.249 N 
ATOM      2  C   UNL     1      49.665 155.518  29.107  0.00  0.00    +0.125 C 
ATOM      3  C   UNL     1      49.313 156.671  29.951  0.00  0.00    +0.001 C 
ATOM      4  C   UNL     1      50.273 157.571  29.955  0.00  0.00    +0.067 C 
ATOM      5  C   UNL     1      51.340 157.083  29.100  0.00  0.00    +0.254 C 
ATOM      6  O   UNL     1      52.450 157.649  28.833  0.00  0.00    -0.270 OA
ENDROOT
BRANCH   1  16
ATOM      7  C   UNL     1      52.608 155.557  26.772  0.00  0.00    +0.114 C 
ATOM      8  N   UNL     1      53.319 154.816  25.924  0.00  0.00    -0.239 NA
ATOM      9  C   UNL     1      53.190 153.484  25.934  0.00  0.00    +0.118 C 
ATOM     10  C   UNL     1      52.329 152.864  26.812  0.00  0.00    +0.103 C 
ATOM     11  N   UNL     1      52.181 151.516  26.840  0.00  0.00    -0.222 NA
ATOM     12  C   UNL     1      52.896 150.769  25.985  0.00  0.00    +0.199 C 
ATOM     13  N   UNL     1      53.739 151.362  25.123  0.00  0.00    -0.221 NA
ATOM     14  C   UNL     1      53.913 152.684  25.066  0.00  0.00    +0.121 C 
ATOM     15  C   UNL     1      51.593 153.626  27.690  0.00  0.00    +0.037 C 
ATOM     16  C   UNL     1      51.735 154.996  27.669  0.00  0.00    +0.075 C 
ENDBRANCH   1  16
BRANCH   4  17
ATOM     17  C   UNL     1      50.232 158.825  30.693  0.00  0.00    +0.089 C 
ATOM     18  N   UNL     1      51.097 159.775  30.646  0.00  0.00    -0.227 NA
ATOM     19  C   UNL     1      50.750 160.871  31.498  0.00  0.00    +0.194 C 
ATOM     20  N   UNL     1      49.502 160.445  32.099  0.00  0.00    -0.244 NA
ATOM     21  C   UNL     1      49.215 159.280  31.635  0.00  0.00    +0.173 C 
ENDBRANCH   4  17
TORSDOF 2
