MODEL 1
REMARK VINA RESULT:    -7.599      0.000      0.000
REMARK INTER + INTRA:         -10.738
REMARK INTER:                 -10.931
REMARK INTRA:                   0.193
REMARK UNBOUND:                 0.193
REMARK  Name = =
REMARK  8 active torsions:
REMARK  status: ('A' for Active; 'I' for Inactive)
REMARK    1  A    between atoms: N_1  and  C_5
REMARK    2  A    between atoms: N_1  and  C_23
REMARK    3  A    between atoms: C_2  and  C_40
REMARK    4  A    between atoms: N_4  and  P_11
REMARK    5  A    between atoms: S_10  and  P_11
REMARK    6  A    between atoms: S_10  and  C_12
REMARK    7  A    between atoms: C_23  and  N_29
REMARK    8  A    between atoms: C_40  and  O_42
REMARK                            x       y       z     vdW  Elec       q    Type
REMARK                         _______ _______ _______ _____ _____    ______ ____
ROOT
ATOM      1  N   UNL     1      59.396 161.525  39.914  0.00  0.00    -0.246 N 
ATOM      2  C   UNL     1      58.643 160.648  39.126  0.00  0.00    +0.327 C 
ATOM      3  O   UNL     1      57.683 160.061  39.797  0.00  0.00    -0.263 OA
ENDROOT
BRANCH   1   5
ATOM      4  N   UNL     1      57.579 162.338  41.268  0.00  0.00    -0.233 NA
ATOM      5  C   UNL     1      58.861 161.750  41.295  0.00  0.00    +0.142 C 
ATOM      6  C   UNL     1      59.034 160.624  42.186  0.00  0.00    +0.037 C 
ATOM      7  C   UNL     1      57.895 159.957  42.773  0.00  0.00    +0.005 C 
ATOM      8  C   UNL     1      56.621 160.676  42.774  0.00  0.00    +0.018 C 
ATOM      9  C   UNL     1      56.438 161.688  41.690  0.00  0.00    +0.078 C 
BRANCH   4  10
ATOM     10  P   UNL     1      57.690 164.059  41.499  0.00  0.00    +0.069 P 
BRANCH  10  11
ATOM     11  S   UNL     1      56.473 165.431  41.377  0.00  0.00    -0.166 S 
ATOM     12  H   UNL     1      57.040 166.373  40.576  0.00  0.00    +0.098 HD
BRANCH  11  13
ATOM     13  C   UNL     1      54.861 165.180  40.770  0.00  0.00    +0.062 C 
ATOM     14  C   UNL     1      54.210 166.480  40.281  0.00  0.00    +0.035 C 
ATOM     15  C   UNL     1      54.915 167.699  40.731  0.00  0.00    -0.030 C 
ATOM     16  C   UNL     1      54.351 168.412  41.907  0.00  0.00    -0.031 C 
ATOM     17  C   UNL     1      53.078 167.877  42.460  0.00  0.00    +0.026 C 
ATOM     18  C   UNL     1      52.133 167.285  41.475  0.00  0.00    +0.005 C 
ATOM     19  C   UNL     1      52.738 166.492  40.376  0.00  0.00    +0.006 C 
ATOM     20  C   UNL     1      52.120 165.153  40.156  0.00  0.00    +0.005 C 
ATOM     21  C   UNL     1      52.611 164.110  41.137  0.00  0.00    +0.023 C 
ATOM     22  C   UNL     1      53.896 164.571  41.744  0.00  0.00    -0.035 C 
ATOM     23  C   UNL     1      54.105 164.421  43.016  0.00  0.00    -0.008 C 
ENDBRANCH  11  13
ENDBRANCH  10  11
ENDBRANCH   4  10
ENDBRANCH   1   5
BRANCH   1  24
ATOM     24  C   UNL     1      60.622 162.242  39.470  0.00  0.00    +0.128 C 
ATOM     25  C   UNL     1      61.478 161.181  38.878  0.00  0.00    +0.002 C 
ATOM     26  C   UNL     1      62.904 161.065  39.063  0.00  0.00    -0.028 C 
ATOM     27  C   UNL     1      63.559 161.880  40.094  0.00  0.00    +0.026 C 
ATOM     28  C   UNL     1      62.770 162.989  40.636  0.00  0.00    +0.008 C 
ATOM     29  C   UNL     1      61.285 162.938  40.590  0.00  0.00    +0.039 C 
BRANCH  24  30
ATOM     30  N   UNL     1      60.269 163.284  38.489  0.00  0.00    -0.257 NA
ATOM     31  C   UNL     1      61.115 163.191  37.321  0.00  0.00    +0.078 C 
ATOM     32  C   UNL     1      60.206 163.555  36.124  0.00  0.00    +0.043 C 
ATOM     33  C   UNL     1      60.258 165.046  36.014  0.00  0.00    -0.025 C 
ATOM     34  C   UNL     1      60.726 165.955  36.933  0.00  0.00    -0.025 C 
ATOM     35  C   UNL     1      60.708 167.291  36.681  0.00  0.00    -0.005 C 
ATOM     36  C   UNL     1      60.212 167.784  35.482  0.00  0.00    -0.000 C 
ATOM     37  C   UNL     1      59.743 166.867  34.565  0.00  0.00    -0.000 C 
ATOM     38  C   UNL     1      59.764 165.504  34.821  0.00  0.00    -0.005 C 
ATOM     39  C   UNL     1      61.293 165.579  38.286  0.00  0.00    +0.043 C 
ATOM     40  C   UNL     1      60.378 164.631  38.984  0.00  0.00    +0.078 C 
ENDBRANCH  24  30
ENDBRANCH   1  24
BRANCH   2  41
ATOM     41  C   UNL     1      58.718 160.275  37.748  0.00  0.00    +0.393 C 
ATOM     42  O   UNL     1      58.434 160.924  36.745  0.00  0.00    -0.240 OA
BRANCH  41  43
ATOM     43  O   UNL     1      59.186 158.964  37.449  0.00  0.00    -0.474 OA
ATOM     44  H   UNL     1      59.566 158.437  38.123  0.00  0.00    +0.296 HD
ENDBRANCH  41  43
ENDBRANCH   2  41
TORSDOF 8
ENDMDL
