MODEL 1
REMARK VINA RESULT:    -9.996      0.000      0.000
REMARK INTER + INTRA:         -14.419
REMARK INTER:                 -13.794
REMARK INTRA:                  -0.625
REMARK UNBOUND:                -0.625
REMARK  Name = =
REMARK  7 active torsions:
REMARK  status: ('A' for Active; 'I' for Inactive)
REMARK    1  A    between atoms: N_1  and  C_3
REMARK    2  A    between atoms: N_1  and  N_13
REMARK    3  A    between atoms: N_1  and  O_14
REMARK    4  A    between atoms: O_14  and  C_15
REMARK    5  A    between atoms: C_15  and  C_17
REMARK    6  A    between atoms: C_18  and  O_23
REMARK    7  A    between atoms: O_23  and  C_24
REMARK                            x       y       z     vdW  Elec       q    Type
REMARK                         _______ _______ _______ _____ _____    ______ ____
ROOT
ATOM      1  N   UNL     1      51.531 155.866  29.457  0.00  0.00    -0.022 NA
ENDROOT
BRANCH   1   3
ATOM      2  O   UNL     1      49.952 157.367  30.255  0.00  0.00    -0.459 OA
ATOM      3  C   UNL     1      50.957 157.152  29.291  0.00  0.00    +0.283 C 
ATOM      4  C   UNL     1      52.029 158.188  29.295  0.00  0.00    +0.135 C 
ATOM      5  C   UNL     1      51.678 159.423  30.027  0.00  0.00    +0.181 C 
ATOM      6  O   UNL     1      52.577 160.252  30.274  0.00  0.00    -0.291 OA
ATOM      7  C   UNL     1      50.324 159.690  30.463  0.00  0.00    +0.069 C 
ATOM      8  C   UNL     1      49.460 158.621  30.571  0.00  0.00    +0.143 C 
ATOM      9  C   UNL     1      48.154 158.818  30.981  0.00  0.00    +0.037 C 
ATOM     10  C   UNL     1      47.705 160.075  31.284  0.00  0.00    +0.003 C 
ATOM     11  C   UNL     1      48.576 161.135  31.172  0.00  0.00    +0.000 C 
ATOM     12  C   UNL     1      49.869 160.956  30.768  0.00  0.00    +0.006 C 
ENDBRANCH   1   3
BRANCH   1  13
ATOM     13  N   UNL     1      51.302 155.184  30.568  0.00  0.00    -0.231 NA
ATOM     14  H   UNL     1      50.305 154.978  30.641  0.00  0.00    +0.140 HD
ATOM     15  H   UNL     1      51.593 155.737  31.374  0.00  0.00    +0.140 HD
ENDBRANCH   1  13
BRANCH   1  16
ATOM     16  O   UNL     1      52.480 155.500  28.608  0.00  0.00    -0.343 OA
BRANCH  16  17
ATOM     17  C   UNL     1      52.341 154.775  27.439  0.00  0.00    +0.363 C 
ATOM     18  O   UNL     1      51.344 154.010  27.368  0.00  0.00    -0.243 OA
BRANCH  17  19
ATOM     19  C   UNL     1      53.287 154.872  26.327  0.00  0.00    +0.112 C 
ATOM     20  C   UNL     1      53.934 153.730  25.910  0.00  0.00    +0.155 C 
ATOM     21  C   UNL     1      54.819 153.840  24.866  0.00  0.00    +0.038 C 
ATOM     22  C   UNL     1      55.058 155.058  24.246  0.00  0.00    +0.003 C 
ATOM     23  C   UNL     1      54.401 156.186  24.680  0.00  0.00    +0.000 C 
ATOM     24  C   UNL     1      53.497 156.101  25.739  0.00  0.00    +0.010 C 
BRANCH  20  25
ATOM     25  O   UNL     1      53.662 152.538  26.558  0.00  0.00    -0.416 OA
BRANCH  25  26
ATOM     26  C   UNL     1      53.201 151.469  25.808  0.00  0.00    +0.423 C 
ATOM     27  O   UNL     1      52.425 150.634  26.355  0.00  0.00    -0.237 OA
ENDBRANCH  25  26
ENDBRANCH  20  25
ENDBRANCH  17  19
ENDBRANCH  16  17
ENDBRANCH   1  16
TORSDOF 7
ENDMDL
