REMARK  Name = =
REMARK  2 active torsions:
REMARK  status: ('A' for Active; 'I' for Inactive)
REMARK    1  A    between atoms: C_4  and  O_7
REMARK    2  A    between atoms: O_7  and  C_8
REMARK                            x       y       z     vdW  Elec       q    Type
REMARK                         _______ _______ _______ _____ _____    ______ ____
ROOT
ATOM      1  C   UNL     1      52.015 152.372  28.116  0.00  0.00    +0.000 C 
ATOM      2  C   UNL     1      52.597 152.806  26.941  0.00  0.00    +0.003 C 
ATOM      3  C   UNL     1      52.822 154.161  26.791  0.00  0.00    +0.037 C 
ATOM      4  C   UNL     1      52.503 155.092  27.734  0.00  0.00    +0.142 C 
ATOM      5  C   UNL     1      51.921 154.617  28.898  0.00  0.00    +0.037 C 
ATOM      6  C   UNL     1      51.669 153.274  29.112  0.00  0.00    +0.003 C 
ENDROOT
BRANCH   4   7
ATOM      7  O   UNL     1      52.699 156.436  27.643  0.00  0.00    -0.446 OA
BRANCH   7   8
ATOM      8  C   UNL     1      52.037 157.401  28.351  0.00  0.00    +0.391 C 
ATOM      9  O   UNL     1      52.008 157.170  29.587  0.00  0.00    -0.167 OA
ENDBRANCH   7   8
ENDBRANCH   4   7
TORSDOF 2
