REMARK  Name = =
REMARK  6 active torsions:
REMARK  status: ('A' for Active; 'I' for Inactive)
REMARK    1  A    between atoms: C_2  and  O_10
REMARK    2  A    between atoms: C_4  and  O_7
REMARK    3  A    between atoms: O_7  and  C_8
REMARK    4  A    between atoms: O_10  and  P_11
REMARK    5  A    between atoms: P_11  and  O_13
REMARK    6  A    between atoms: P_11  and  O_14
REMARK                            x       y       z     vdW  Elec       q    Type
REMARK                         _______ _______ _______ _____ _____    ______ ____
ROOT
ATOM      1  C   UNL     1      52.414 152.583  28.091  0.00  0.00    +0.038 C 
ATOM      2  C   UNL     1      53.291 153.198  27.234  0.00  0.00    +0.152 C 
ATOM      3  C   UNL     1      53.231 154.547  26.959  0.00  0.00    +0.075 C 
ATOM      4  C   UNL     1      52.255 155.342  27.562  0.00  0.00    +0.152 C 
ATOM      5  C   UNL     1      51.367 154.732  28.428  0.00  0.00    +0.038 C 
ATOM      6  C   UNL     1      51.451 153.382  28.682  0.00  0.00    +0.006 C 
ENDROOT
BRANCH   4   7
ATOM      7  O   UNL     1      52.212 156.683  27.277  0.00  0.00    -0.416 OA
BRANCH   7   8
ATOM      8  C   UNL     1      52.743 157.624  28.129  0.00  0.00    +0.423 C 
ATOM      9  O   UNL     1      53.194 157.187  29.239  0.00  0.00    -0.237 OA
ENDBRANCH   7   8
ENDBRANCH   4   7
BRANCH   2  10
ATOM     10  O   UNL     1      54.275 152.461  26.610  0.00  0.00    -0.403 OA
BRANCH  10  11
ATOM     11  P   UNL     1      54.007 151.568  25.193  0.00  0.00    +0.528 P 
ATOM     12  O   UNL     1      52.799 150.670  25.409  0.00  0.00    -0.216 OA
BRANCH  11  13
ATOM     13  O   UNL     1      53.643 152.610  23.925  0.00  0.00    -0.293 OA
ATOM     14  H   UNL     1      52.849 153.122  24.145  0.00  0.00    +0.223 HD
ENDBRANCH  11  13
BRANCH  11  15
ATOM     15  O   UNL     1      55.385 150.648  24.867  0.00  0.00    -0.293 OA
ATOM     16  H   UNL     1      55.566 150.060  25.617  0.00  0.00    +0.223 HD
ENDBRANCH  11  15
ENDBRANCH  10  11
ENDBRANCH   2  10
TORSDOF 6
