REMARK  Name = =
REMARK  7 active torsions:
REMARK  status: ('A' for Active; 'I' for Inactive)
REMARK    1  A    between atoms: C_1  and  C_7
REMARK    2  A    between atoms: C_2  and  O_19
REMARK    3  A    between atoms: C_4  and  O_16
REMARK    4  A    between atoms: O_16  and  C_17
REMARK    5  A    between atoms: O_19  and  P_20
REMARK    6  A    between atoms: P_20  and  O_22
REMARK    7  A    between atoms: P_20  and  O_23
REMARK                            x       y       z     vdW  Elec       q    Type
REMARK                         _______ _______ _______ _____ _____    ______ ____
ROOT
ATOM      1  C   UNL     1      52.262 153.385  27.646  0.00  0.00    +0.035 C 
ATOM      2  C   UNL     1      52.996 153.240  26.487  0.00  0.00    +0.152 C 
ATOM      3  C   UNL     1      53.556 154.384  25.954  0.00  0.00    +0.075 C 
ATOM      4  C   UNL     1      53.374 155.616  26.571  0.00  0.00    +0.152 C 
ATOM      5  C   UNL     1      52.637 155.746  27.728  0.00  0.00    +0.038 C 
ATOM      6  C   UNL     1      52.077 154.607  28.265  0.00  0.00    +0.006 C 
ENDROOT
BRANCH   1   7
ATOM      7  C   UNL     1      51.636 152.233  28.282  0.00  0.00    +0.004 C 
ATOM      8  C   UNL     1      50.845 152.376  29.404  0.00  0.00    +0.016 C 
ATOM      9  C   UNL     1      50.255 151.254  29.999  0.00  0.00    +0.059 C 
ATOM     10  N   UNL     1      49.414 151.127  31.138  0.00  0.00    -0.315 N 
ATOM     11  C   UNL     1      49.342 149.718  31.504  0.00  0.00    +0.182 C 
ATOM     12  N   UNL     1      49.732 149.050  30.284  0.00  0.00    -0.315 N 
ATOM     13  C   UNL     1      50.452 149.995  29.474  0.00  0.00    +0.059 C 
ATOM     14  C   UNL     1      51.245 149.889  28.357  0.00  0.00    +0.016 C 
ATOM     15  C   UNL     1      51.832 150.989  27.761  0.00  0.00    +0.001 C 
ATOM     16  H   UNL     1      48.957 151.866  31.601  0.00  0.00    +0.148 HD
ATOM     17  H   UNL     1      49.539 148.114  30.049  0.00  0.00    +0.148 HD
ENDBRANCH   1   7
BRANCH   4  18
ATOM     18  O   UNL     1      53.943 156.752  26.020  0.00  0.00    -0.416 OA
BRANCH  18  19
ATOM     19  C   UNL     1      53.629 157.128  24.724  0.00  0.00    +0.423 C 
ATOM     20  O   UNL     1      52.976 156.331  24.018  0.00  0.00    -0.237 OA
ENDBRANCH  18  19
ENDBRANCH   4  18
BRANCH   2  21
ATOM     21  O   UNL     1      53.121 151.989  25.951  0.00  0.00    -0.403 OA
BRANCH  21  22
ATOM     22  P   UNL     1      54.222 151.493  24.783  0.00  0.00    +0.528 P 
ATOM     23  O   UNL     1      53.972 150.008  24.505  0.00  0.00    -0.216 OA
BRANCH  22  24
ATOM     24  O   UNL     1      55.833 151.621  25.280  0.00  0.00    -0.293 OA
ATOM     25  H   UNL     1      55.947 151.165  26.128  0.00  0.00    +0.223 HD
ENDBRANCH  22  24
BRANCH  22  26
ATOM     26  O   UNL     1      54.039 152.290  23.308  0.00  0.00    -0.293 OA
ATOM     27  H   UNL     1      54.189 153.240  23.433  0.00  0.00    +0.223 HD
ENDBRANCH  22  26
ENDBRANCH  21  22
ENDBRANCH   2  21
TORSDOF 7
