MODEL 1
REMARK VINA RESULT:    -9.451      0.000      0.000
REMARK INTER + INTRA:         -14.879
REMARK INTER:                 -13.871
REMARK INTRA:                  -1.008
REMARK UNBOUND:                -1.008
REMARK  Name = =
REMARK  9 active torsions:
REMARK  status: ('A' for Active; 'I' for Inactive)
REMARK    1  A    between atoms: C_1  and  C_3
REMARK    2  A    between atoms: C_1  and  O_23
REMARK    3  A    between atoms: C_3  and  N_8
REMARK    4  A    between atoms: N_8  and  N_11
REMARK    5  A    between atoms: N_8  and  S_20
REMARK    6  A    between atoms: O_23  and  C_24
REMARK    7  A    between atoms: C_28  and  C_39
REMARK    8  A    between atoms: C_33  and  O_42
REMARK    9  A    between atoms: C_39  and  O_41
REMARK                            x       y       z     vdW  Elec       q    Type
REMARK                         _______ _______ _______ _____ _____    ______ ____
ROOT
ATOM      1  C   UNL     1      57.840 161.725  41.818  0.00  0.00    +0.245 C 
ATOM      2  N   UNL     1      58.376 162.871  42.064  0.00  0.00    -0.267 NA
ATOM      3  H   UNL     1      57.805 163.651  42.249  0.00  0.00    +0.190 HD
ENDROOT
BRANCH   1   4
ATOM      4  C   UNL     1      58.633 160.511  41.532  0.00  0.00    +0.283 C 
ATOM      5  N   UNL     1      57.677 159.474  41.104  0.00  0.00    -0.218 NA
ATOM      6  C   UNL     1      57.666 158.499  41.917  0.00  0.00    +0.196 C 
ATOM      7  N   UNL     1      58.585 158.776  42.942  0.00  0.00    -0.223 NA
ATOM      8  C   UNL     1      59.165 159.899  42.783  0.00  0.00    +0.127 C 
BRANCH   4   9
ATOM      9  N   UNL     1      59.627 160.640  40.523  0.00  0.00    -0.095 N 
BRANCH   9  12
ATOM     10  C   UNL     1      59.079 160.010  38.305  0.00  0.00    +0.349 A 
ATOM     11  O   UNL     1      58.968 158.808  38.668  0.00  0.00    -0.245 OA
ATOM     12  N   UNL     1      59.409 160.958  39.185  0.00  0.00    -0.152 N 
ATOM     13  C   UNL     1      59.511 162.234  38.720  0.00  0.00    +0.302 A 
ATOM     14  O   UNL     1      59.822 163.146  39.529  0.00  0.00    -0.263 OA
ATOM     15  C   UNL     1      59.286 162.541  37.402  0.00  0.00    +0.170 A 
ATOM     16  C   UNL     1      58.948 161.521  36.542  0.00  0.00    +0.137 A 
ATOM     17  N   UNL     1      58.851 160.284  37.004  0.00  0.00    -0.292 N 
ATOM     18  N   UNL     1      58.772 162.051  35.296  0.00  0.00    -0.281 N 
ATOM     19  C   UNL     1      58.996 163.368  35.378  0.00  0.00    +0.165 C 
ATOM     20  N   UNL     1      59.302 163.651  36.651  0.00  0.00    -0.220 NA
ATOM     21  H   UNL     1      58.608 159.553  36.390  0.00  0.00    +0.172 HD
ATOM     22  H   UNL     1      58.525 161.554  34.483  0.00  0.00    +0.155 HD
ENDBRANCH   9  12
BRANCH   9  23
ATOM     23  S   UNL     1      61.300 160.384  40.949  0.00  0.00    +0.051 S 
ATOM     24  O   UNL     1      62.014 159.866  39.728  0.00  0.00    -0.156 OA
ATOM     25  O   UNL     1      61.941 161.640  41.433  0.00  0.00    -0.156 OA
ATOM     26  H   UNL     1      61.376 159.484  41.966  0.00  0.00    +0.235 HD
ENDBRANCH   9  23
ENDBRANCH   4   9
ENDBRANCH   1   4
BRANCH   1  27
ATOM     27  O   UNL     1      56.484 161.682  41.834  0.00  0.00    -0.436 OA
BRANCH  27  28
ATOM     28  C   UNL     1      55.584 162.666  41.553  0.00  0.00    +0.150 C 
ATOM     29  C   UNL     1      54.229 162.330  41.692  0.00  0.00    +0.070 C 
ATOM     30  C   UNL     1      53.204 163.212  41.447  0.00  0.00    -0.012 C 
ATOM     31  C   UNL     1      53.559 164.512  41.037  0.00  0.00    +0.003 C 
ATOM     32  C   UNL     1      54.876 164.857  40.895  0.00  0.00    +0.078 C 
ATOM     33  C   UNL     1      55.881 163.930  41.155  0.00  0.00    +0.044 C 
ATOM     34  C   UNL     1      51.760 162.894  41.585  0.00  0.00    +0.053 C 
ATOM     35  C   UNL     1      51.511 161.508  42.018  0.00  0.00    -0.012 C 
ATOM     36  C   UNL     1      52.494 160.602  42.272  0.00  0.00    +0.069 C 
ATOM     37  C   UNL     1      52.169 159.305  42.680  0.00  0.00    +0.136 C 
ATOM     38  C   UNL     1      50.839 158.950  42.825  0.00  0.00    +0.037 C 
ATOM     39  C   UNL     1      49.836 159.858  42.571  0.00  0.00    +0.003 C 
ATOM     40  C   UNL     1      50.184 161.119  42.173  0.00  0.00    -0.004 C 
ATOM     41  C   UNL     1      53.901 160.968  42.122  0.00  0.00    +0.201 C 
ATOM     42  O   UNL     1      54.815 160.132  42.357  0.00  0.00    -0.286 OA
BRANCH  32  43
ATOM     43  C   UNL     1      55.212 166.200  40.472  0.00  0.00    +0.338 C 
ATOM     44  O   UNL     1      56.283 166.723  40.850  0.00  0.00    -0.245 OA
BRANCH  43  45
ATOM     45  O   UNL     1      54.345 166.891  39.651  0.00  0.00    -0.477 OA
ATOM     46  H   UNL     1      53.898 167.649  39.973  0.00  0.00    +0.295 HD
ENDBRANCH  43  45
ENDBRANCH  32  43
BRANCH  37  47
ATOM     47  O   UNL     1      53.191 158.422  42.927  0.00  0.00    -0.505 OA
ATOM     48  H   UNL     1      54.065 158.739  43.049  0.00  0.00    +0.292 HD
ENDBRANCH  37  47
ENDBRANCH  27  28
ENDBRANCH   1  27
TORSDOF 9
ENDMDL
