REMARK  Name = =
REMARK  9 active torsions:
REMARK  status: ('A' for Active; 'I' for Inactive)
REMARK    1  A    between atoms: C_1  and  C_3
REMARK    2  A    between atoms: C_1  and  O_23
REMARK    3  A    between atoms: C_3  and  N_8
REMARK    4  A    between atoms: N_8  and  N_11
REMARK    5  A    between atoms: N_8  and  S_20
REMARK    6  A    between atoms: O_23  and  C_24
REMARK    7  A    between atoms: C_28  and  C_39
REMARK    8  A    between atoms: C_33  and  O_42
REMARK    9  A    between atoms: C_39  and  O_41
REMARK                            x       y       z     vdW  Elec       q    Type
REMARK                         _______ _______ _______ _____ _____    ______ ____
ROOT
ATOM      1  C   UNL     1      62.795 167.132  35.952  0.00  0.00    +0.245 C 
ATOM      2  N   UNL     1      62.140 167.386  34.872  0.00  0.00    -0.267 NA
ATOM      3  H   UNL     1      61.169 167.228  34.837  0.00  0.00    +0.190 HD
ENDROOT
BRANCH   1   4
ATOM      4  C   UNL     1      64.253 167.345  36.077  0.00  0.00    +0.283 C 
ATOM      5  N   UNL     1      64.777 167.486  34.707  0.00  0.00    -0.218 NA
ATOM      6  C   UNL     1      65.585 166.547  34.427  0.00  0.00    +0.196 C 
ATOM      7  N   UNL     1      65.680 165.707  35.549  0.00  0.00    -0.223 NA
ATOM      8  C   UNL     1      64.951 166.103  36.515  0.00  0.00    +0.127 C 
BRANCH   4   9
ATOM      9  N   UNL     1      64.653 168.487  36.824  0.00  0.00    -0.095 N 
BRANCH   9  12
ATOM     10  C   UNL     1      62.993 170.084  37.382  0.00  0.00    +0.349 A 
ATOM     11  O   UNL     1      62.835 170.355  36.162  0.00  0.00    -0.245 OA
ATOM     12  N   UNL     1      63.885 169.168  37.765  0.00  0.00    -0.152 N 
ATOM     13  C   UNL     1      64.001 168.929  39.101  0.00  0.00    +0.302 A 
ATOM     14  O   UNL     1      64.836 168.071  39.489  0.00  0.00    -0.263 OA
ATOM     15  C   UNL     1      63.235 169.597  40.022  0.00  0.00    +0.170 A 
ATOM     16  C   UNL     1      62.331 170.530  39.567  0.00  0.00    +0.137 A 
ATOM     17  N   UNL     1      62.226 170.755  38.266  0.00  0.00    -0.292 N 
ATOM     18  N   UNL     1      61.686 171.064  40.645  0.00  0.00    -0.281 N 
ATOM     19  C   UNL     1      62.177 170.479  41.745  0.00  0.00    +0.165 C 
ATOM     20  N   UNL     1      63.107 169.597  41.357  0.00  0.00    -0.220 NA
ATOM     21  H   UNL     1      61.579 171.421  37.939  0.00  0.00    +0.172 HD
ATOM     22  H   UNL     1      60.985 171.755  40.619  0.00  0.00    +0.155 HD
ENDBRANCH   9  12
BRANCH   9  23
ATOM     23  S   UNL     1      66.251 169.142  36.574  0.00  0.00    +0.051 S 
ATOM     24  O   UNL     1      66.227 169.950  35.303  0.00  0.00    -0.156 OA
ATOM     25  O   UNL     1      66.681 169.990  37.722  0.00  0.00    -0.156 OA
ATOM     26  H   UNL     1      67.148 168.124  36.477  0.00  0.00    +0.235 HD
ENDBRANCH   9  23
ENDBRANCH   4   9
ENDBRANCH   1   4
BRANCH   1  27
ATOM     27  O   UNL     1      62.071 166.650  36.993  0.00  0.00    -0.436 OA
BRANCH  27  28
ATOM     28  C   UNL     1      62.281 165.538  37.751  0.00  0.00    +0.150 C 
ATOM     29  C   UNL     1      61.493 164.418  37.447  0.00  0.00    +0.070 C 
ATOM     30  C   UNL     1      61.588 163.223  38.121  0.00  0.00    -0.012 C 
ATOM     31  C   UNL     1      62.531 163.147  39.164  0.00  0.00    +0.003 C 
ATOM     32  C   UNL     1      63.308 164.230  39.475  0.00  0.00    +0.078 C 
ATOM     33  C   UNL     1      63.178 165.420  38.765  0.00  0.00    +0.044 C 
ATOM     34  C   UNL     1      60.773 162.017  37.827  0.00  0.00    +0.053 C 
ATOM     35  C   UNL     1      59.823 162.215  36.719  0.00  0.00    -0.012 C 
ATOM     36  C   UNL     1      59.696 163.379  36.025  0.00  0.00    +0.069 C 
ATOM     37  C   UNL     1      58.767 163.482  34.985  0.00  0.00    +0.136 C 
ATOM     38  C   UNL     1      57.978 162.390  34.666  0.00  0.00    +0.037 C 
ATOM     39  C   UNL     1      58.098 161.208  35.361  0.00  0.00    +0.003 C 
ATOM     40  C   UNL     1      59.015 161.137  36.373  0.00  0.00    -0.004 C 
ATOM     41  C   UNL     1      60.524 164.537  36.355  0.00  0.00    +0.201 C 
ATOM     42  O   UNL     1      60.410 165.617  35.714  0.00  0.00    -0.286 OA
BRANCH  32  43
ATOM     43  C   UNL     1      64.269 164.124  40.552  0.00  0.00    +0.338 C 
ATOM     44  O   UNL     1      64.163 163.206  41.395  0.00  0.00    -0.245 OA
BRANCH  43  45
ATOM     45  O   UNL     1      65.297 165.040  40.638  0.00  0.00    -0.477 OA
ATOM     46  H   UNL     1      65.369 165.725  40.002  0.00  0.00    +0.295 HD
ENDBRANCH  43  45
ENDBRANCH  32  43
BRANCH  37  47
ATOM     47  O   UNL     1      58.671 164.674  34.310  0.00  0.00    -0.505 OA
ATOM     48  H   UNL     1      59.220 165.394  34.551  0.00  0.00    +0.292 HD
ENDBRANCH  37  47
ENDBRANCH  27  28
ENDBRANCH   1  27
TORSDOF 9
