MODEL 1
REMARK VINA RESULT:    -9.448      0.000      0.000
REMARK INTER + INTRA:         -17.885
REMARK INTER:                 -14.971
REMARK INTRA:                  -2.914
REMARK UNBOUND:                -2.914
REMARK  Name = =
REMARK  12 active torsions:
REMARK  status: ('A' for Active; 'I' for Inactive)
REMARK    1  A    between atoms: C_1  and  O_29
REMARK    2  A    between atoms: N_9  and  C_10
REMARK    3  A    between atoms: C_15  and  C_17
REMARK    4  A    between atoms: O_29  and  P_30
REMARK    5  A    between atoms: P_30  and  O_32
REMARK    6  A    between atoms: P_30  and  O_37
REMARK    7  A    between atoms: O_32  and  P_33
REMARK    8  A    between atoms: P_33  and  O_35
REMARK    9  A    between atoms: P_33  and  O_36
REMARK   10  A    between atoms: O_37  and  P_38
REMARK   11  A    between atoms: P_38  and  O_40
REMARK   12  A    between atoms: P_38  and  O_41
REMARK                            x       y       z     vdW  Elec       q    Type
REMARK                         _______ _______ _______ _____ _____    ______ ____
ROOT
ATOM      1  C   UNL     1       2.323  -6.112  27.748  0.00  0.00    +0.207 C 
ATOM      2  C   UNL     1       2.017  -7.447  27.550  0.00  0.00    +0.051 C 
ATOM      3  C   UNL     1       2.745  -8.626  27.596  0.00  0.00    +0.004 C 
ATOM      4  C   UNL     1       2.186  -9.863  27.353  0.00  0.00    +0.000 C 
ATOM      5  C   UNL     1       0.841  -9.915  27.051  0.00  0.00    +0.000 C 
ATOM      6  C   UNL     1       0.083  -8.746  26.998  0.00  0.00    +0.001 C 
ATOM      7  C   UNL     1       0.685  -7.521  27.250  0.00  0.00    +0.019 C 
ATOM      8  C   UNL     1       0.221  -6.208  27.275  0.00  0.00    +0.068 C 
ATOM      9  N   UNL     1       1.216  -5.366  27.575  0.00  0.00    -0.257 N 
ENDROOT
BRANCH   9  10
ATOM     10  C   UNL     1       1.134  -3.961  27.686  0.00  0.00    +0.110 C 
ATOM     11  C   UNL     1      -0.277  -3.400  27.507  0.00  0.00    +0.052 C 
ATOM     12  C   UNL     1      -0.300  -2.413  28.681  0.00  0.00    +0.118 C 
ATOM     13  O   UNL     1       1.054  -2.009  28.695  0.00  0.00    -0.356 OA
ATOM     14  C   UNL     1       1.647  -3.298  28.904  0.00  0.00    +0.142 C 
ATOM     15  C   UNL     1       1.002  -3.597  30.209  0.00  0.00    +0.108 C 
ATOM     16  C   UNL     1      -0.440  -3.338  29.903  0.00  0.00    +0.041 C 
BRANCH  15  17
ATOM     17  C   UNL     1       1.350  -4.836  30.859  0.00  0.00    +0.228 C 
ATOM     18  O   UNL     1       2.518  -5.010  31.261  0.00  0.00    -0.275 OA
ATOM     19  N   UNL     1       0.429  -5.895  31.078  0.00  0.00    -0.275 N 
ATOM     20  C   UNL     1       0.860  -7.141  31.741  0.00  0.00    +0.098 C 
ATOM     21  C   UNL     1      -0.040  -7.414  32.937  0.00  0.00    +0.048 C 
ATOM     22  C   UNL     1      -1.462  -7.376  32.562  0.00  0.00    -0.023 C 
ATOM     23  C   UNL     1      -1.878  -6.635  31.504  0.00  0.00    -0.006 C 
ATOM     24  C   UNL     1      -3.230  -6.631  31.189  0.00  0.00    -0.003 C 
ATOM     25  C   UNL     1      -4.146  -7.354  31.918  0.00  0.00    -0.000 C 
ATOM     26  C   UNL     1      -3.726  -8.102  32.987  0.00  0.00    -0.000 C 
ATOM     27  C   UNL     1      -2.369  -8.102  33.298  0.00  0.00    -0.004 C 
ATOM     28  C   UNL     1      -0.950  -5.842  30.692  0.00  0.00    +0.120 C 
ENDBRANCH  15  17
ENDBRANCH   9  10
BRANCH   1  29
ATOM     29  O   UNL     1       3.605  -5.688  28.072  0.00  0.00    -0.388 OA
BRANCH  29  30
ATOM     30  P   UNL     1       4.687  -4.986  26.970  0.00  0.00    +0.551 P 
ATOM     31  O   UNL     1       4.615  -5.767  25.677  0.00  0.00    -0.214 OA
BRANCH  30  32
ATOM     32  O   UNL     1       6.289  -5.047  27.502  0.00  0.00    -0.176 OA
BRANCH  32  33
ATOM     33  P   UNL     1       7.014  -6.524  27.209  0.00  0.00    +0.482 P 
ATOM     34  O   UNL     1       8.342  -6.621  27.927  0.00  0.00    -0.227 OA
BRANCH  33  35
ATOM     35  O   UNL     1       7.360  -6.614  25.546  0.00  0.00    -0.302 OA
ATOM     36  H   UNL     1       6.750  -7.237  25.122  0.00  0.00    +0.222 HD
ENDBRANCH  33  35
BRANCH  33  37
ATOM     37  O   UNL     1       5.990  -7.799  27.658  0.00  0.00    -0.302 OA
ATOM     38  H   UNL     1       6.383  -8.641  27.380  0.00  0.00    +0.222 HD
ENDBRANCH  33  37
ENDBRANCH  32  33
ENDBRANCH  30  32
BRANCH  30  39
ATOM     39  O   UNL     1       4.304  -3.381  26.619  0.00  0.00    -0.176 OA
BRANCH  39  40
ATOM     40  P   UNL     1       5.594  -2.522  26.005  0.00  0.00    +0.482 P 
ATOM     41  O   UNL     1       5.183  -1.303  25.213  0.00  0.00    -0.227 OA
BRANCH  40  42
ATOM     42  O   UNL     1       6.514  -1.951  27.329  0.00  0.00    -0.302 OA
ATOM     43  H   UNL     1       7.257  -2.554  27.491  0.00  0.00    +0.222 HD
ENDBRANCH  40  42
BRANCH  40  44
ATOM     44  O   UNL     1       6.614  -3.439  25.051  0.00  0.00    -0.302 OA
ATOM     45  H   UNL     1       6.101  -4.123  24.594  0.00  0.00    +0.222 HD
ENDBRANCH  40  44
ENDBRANCH  39  40
ENDBRANCH  30  39
ENDBRANCH  29  30
ENDBRANCH   1  29
TORSDOF 12
ENDMDL
