REMARK  Name = =
REMARK  12 active torsions:
REMARK  status: ('A' for Active; 'I' for Inactive)
REMARK    1  A    between atoms: C_1  and  O_29
REMARK    2  A    between atoms: N_9  and  C_10
REMARK    3  A    between atoms: C_15  and  C_17
REMARK    4  A    between atoms: O_29  and  P_30
REMARK    5  A    between atoms: P_30  and  O_32
REMARK    6  A    between atoms: P_30  and  O_37
REMARK    7  A    between atoms: O_32  and  P_33
REMARK    8  A    between atoms: P_33  and  O_35
REMARK    9  A    between atoms: P_33  and  O_36
REMARK   10  A    between atoms: O_37  and  P_38
REMARK   11  A    between atoms: P_38  and  O_40
REMARK   12  A    between atoms: P_38  and  O_41
REMARK                            x       y       z     vdW  Elec       q    Type
REMARK                         _______ _______ _______ _____ _____    ______ ____
ROOT
ATOM      1  C   UNL     1       4.583  -7.008  25.039  0.00  0.00    +0.207 C 
ATOM      2  C   UNL     1       3.604  -7.478  24.181  0.00  0.00    +0.051 C 
ATOM      3  C   UNL     1       3.165  -8.739  23.810  0.00  0.00    +0.004 C 
ATOM      4  C   UNL     1       2.140  -8.942  22.910  0.00  0.00    +0.000 C 
ATOM      5  C   UNL     1       1.534  -7.831  22.362  0.00  0.00    +0.000 C 
ATOM      6  C   UNL     1       1.954  -6.549  22.716  0.00  0.00    +0.001 C 
ATOM      7  C   UNL     1       2.990  -6.390  23.627  0.00  0.00    +0.019 C 
ATOM      8  C   UNL     1       3.627  -5.279  24.175  0.00  0.00    +0.068 C 
ATOM      9  N   UNL     1       4.586  -5.662  25.024  0.00  0.00    -0.257 N 
ENDROOT
BRANCH   9  10
ATOM     10  C   UNL     1       5.449  -4.824  25.764  0.00  0.00    +0.110 C 
ATOM     11  C   UNL     1       5.594  -3.413  25.191  0.00  0.00    +0.052 C 
ATOM     12  C   UNL     1       5.459  -2.606  26.488  0.00  0.00    +0.118 C 
ATOM     13  O   UNL     1       6.070  -3.494  27.401  0.00  0.00    -0.356 OA
ATOM     14  C   UNL     1       5.199  -4.617  27.206  0.00  0.00    +0.142 C 
ATOM     15  C   UNL     1       3.937  -3.955  27.627  0.00  0.00    +0.108 C 
ATOM     16  C   UNL     1       3.954  -2.708  26.799  0.00  0.00    +0.041 C 
BRANCH  15  17
ATOM     17  C   UNL     1       2.734  -4.751  27.636  0.00  0.00    +0.228 C 
ATOM     18  O   UNL     1       2.293  -5.206  26.561  0.00  0.00    -0.275 OA
ATOM     19  N   UNL     1       2.003  -5.058  28.814  0.00  0.00    -0.275 N 
ATOM     20  C   UNL     1       0.772  -5.870  28.745  0.00  0.00    +0.098 C 
ATOM     21  C   UNL     1       0.899  -7.060  29.684  0.00  0.00    +0.048 C 
ATOM     22  C   UNL     1       1.283  -6.639  31.040  0.00  0.00    -0.023 C 
ATOM     23  C   UNL     1       1.982  -5.492  31.235  0.00  0.00    -0.006 C 
ATOM     24  C   UNL     1       2.321  -5.136  32.533  0.00  0.00    -0.003 C 
ATOM     25  C   UNL     1       1.968  -5.912  33.613  0.00  0.00    -0.000 C 
ATOM     26  C   UNL     1       1.263  -7.071  33.416  0.00  0.00    -0.000 C 
ATOM     27  C   UNL     1       0.926  -7.422  32.112  0.00  0.00    -0.004 C 
ATOM     28  C   UNL     1       2.388  -4.625  30.125  0.00  0.00    +0.120 C 
ENDBRANCH  15  17
ENDBRANCH   9  10
BRANCH   1  29
ATOM     29  O   UNL     1       5.399  -7.863  25.769  0.00  0.00    -0.388 OA
BRANCH  29  30
ATOM     30  P   UNL     1       6.819  -8.572  25.171  0.00  0.00    +0.551 P 
ATOM     31  O   UNL     1       7.003  -8.121  23.739  0.00  0.00    -0.214 OA
BRANCH  30  32
ATOM     32  O   UNL     1       6.749 -10.259  25.159  0.00  0.00    -0.176 OA
BRANCH  32  33
ATOM     33  P   UNL     1       5.568 -10.866  26.174  0.00  0.00    +0.482 P 
ATOM     34  O   UNL     1       4.964  -9.762  27.014  0.00  0.00    -0.227 OA
BRANCH  33  35
ATOM     35  O   UNL     1       6.314 -11.941  27.260  0.00  0.00    -0.302 OA
ATOM     36  H   UNL     1       6.998 -11.471  27.762  0.00  0.00    +0.222 HD
ENDBRANCH  33  35
BRANCH  33  37
ATOM     37  O   UNL     1       4.369 -11.675  25.289  0.00  0.00    -0.302 OA
ATOM     38  H   UNL     1       3.949 -11.055  24.672  0.00  0.00    +0.222 HD
ENDBRANCH  33  37
ENDBRANCH  32  33
ENDBRANCH  30  32
BRANCH  30  39
ATOM     39  O   UNL     1       8.191  -8.103  26.034  0.00  0.00    -0.176 OA
BRANCH  39  40
ATOM     40  P   UNL     1       7.964  -8.132  27.685  0.00  0.00    +0.482 P 
ATOM     41  O   UNL     1       8.144  -9.503  28.293  0.00  0.00    -0.227 OA
BRANCH  40  42
ATOM     42  O   UNL     1       9.158  -7.130  28.390  0.00  0.00    -0.302 OA
ATOM     43  H   UNL     1       9.082  -6.233  28.028  0.00  0.00    +0.222 HD
ENDBRANCH  40  42
BRANCH  40  44
ATOM     44  O   UNL     1       6.477  -7.544  28.166  0.00  0.00    -0.302 OA
ATOM     45  H   UNL     1       5.774  -8.091  27.783  0.00  0.00    +0.222 HD
ENDBRANCH  40  44
ENDBRANCH  39  40
ENDBRANCH  30  39
ENDBRANCH  29  30
ENDBRANCH   1  29
TORSDOF 12
