REMARK  Name = =
REMARK  0 active torsions:
REMARK  status: ('A' for Active; 'I' for Inactive)
REMARK                            x       y       z     vdW  Elec       q    Type
REMARK                         _______ _______ _______ _____ _____    ______ ____
ROOT
ATOM      1  C   UNL     1      -4.237  -4.209  31.814  0.00  0.00    +0.000 C 
ATOM      2  C   UNL     1      -4.135  -3.349  30.747  0.00  0.00    +0.047 C 
ATOM      3  N   UNL     1      -4.968  -2.226  31.019  0.00  0.00    -0.284 N 
ATOM      4  C   UNL     1      -5.605  -2.377  32.275  0.00  0.00    +0.231 C 
ATOM      5  O   UNL     1      -6.421  -1.555  32.828  0.00  0.00    -0.274 OA
ATOM      6  C   UNL     1      -5.153  -3.665  32.831  0.00  0.00    +0.113 C 
ATOM      7  C   UNL     1      -3.311  -3.682  29.672  0.00  0.00    +0.014 C 
ATOM      8  C   UNL     1      -2.586  -4.851  29.632  0.00  0.00    +0.001 C 
ATOM      9  C   UNL     1      -2.718  -5.681  30.722  0.00  0.00    -0.000 C 
ATOM     10  C   UNL     1      -3.514  -5.403  31.805  0.00  0.00    -0.003 C 
ATOM     11  H   UNL     1      -5.084  -1.454  30.419  0.00  0.00    +0.155 HD
ENDROOT
TORSDOF 0
