REMARK  Name = =
REMARK  4 active torsions:
REMARK  status: ('A' for Active; 'I' for Inactive)
REMARK    1  A    between atoms: C_10  and  P_11
REMARK    2  A    between atoms: P_11  and  O_13
REMARK    3  A    between atoms: P_11  and  O_14
REMARK    4  A    between atoms: P_11  and  O_15
REMARK                            x       y       z     vdW  Elec       q    Type
REMARK                         _______ _______ _______ _____ _____    ______ ____
ROOT
ATOM      1  C   UNL     1      -4.123  -3.972  31.663  0.00  0.00    +0.006 C 
ATOM      2  C   UNL     1      -3.993  -2.943  30.751  0.00  0.00    +0.047 C 
ATOM      3  N   UNL     1      -4.925  -1.923  31.061  0.00  0.00    -0.284 N 
ATOM      4  C   UNL     1      -5.673  -2.300  32.198  0.00  0.00    +0.231 C 
ATOM      5  O   UNL     1      -6.594  -1.644  32.765  0.00  0.00    -0.274 OA
ATOM      6  C   UNL     1      -5.196  -3.604  32.621  0.00  0.00    +0.113 C 
ATOM      7  C   UNL     1      -3.043  -3.022  29.721  0.00  0.00    +0.014 C 
ATOM      8  C   UNL     1      -2.250  -4.132  29.637  0.00  0.00    +0.001 C 
ATOM      9  C   UNL     1      -2.396  -5.157  30.565  0.00  0.00    +0.006 C 
ATOM     10  C   UNL     1      -3.312  -5.092  31.563  0.00  0.00    +0.062 C 
ATOM     11  H   UNL     1      -5.035  -1.082  30.562  0.00  0.00    +0.155 HD
ENDROOT
BRANCH  10  12
ATOM     12  P   UNL     1      -3.480  -6.500  32.599  0.00  0.00    +0.261 P 
BRANCH  12  13
ATOM     13  O   UNL     1      -4.672  -7.011  33.646  0.00  0.00    -0.332 OA
ATOM     14  H   UNL     1      -4.588  -6.537  34.488  0.00  0.00    +0.219 HD
ENDBRANCH  12  13
BRANCH  12  15
ATOM     15  O   UNL     1      -4.417  -7.692  31.768  0.00  0.00    -0.332 OA
ATOM     16  H   UNL     1      -4.061  -7.817  30.874  0.00  0.00    +0.219 HD
ENDBRANCH  12  15
BRANCH  12  17
ATOM     17  O   UNL     1      -2.101  -7.387  32.886  0.00  0.00    -0.332 OA
ATOM     18  H   UNL     1      -1.457  -6.839  33.361  0.00  0.00    +0.219 HD
ENDBRANCH  12  17
ENDBRANCH  10  12
TORSDOF 4
REMARK  Name = =
REMARK  4 active torsions:
REMARK  status: ('A' for Active; 'I' for Inactive)
REMARK    1  A    between atoms: C_10  and  P_11
REMARK    2  A    between atoms: P_11  and  O_13
REMARK    3  A    between atoms: P_11  and  O_14
REMARK    4  A    between atoms: P_11  and  O_15
REMARK                            x       y       z     vdW  Elec       q    Type
REMARK                         _______ _______ _______ _____ _____    ______ ____
ROOT
ATOM      1  O   HOH     1      -3.080  -5.820  33.818  0.00  0.00    -0.253 OA
ATOM      2  H   HOH     0      -2.110  -5.820  33.818  0.00  0.00    +0.253 HD
ENDROOT
TORSDOF 0
