REMARK  Name = =
REMARK  5 active torsions:
REMARK  status: ('A' for Active; 'I' for Inactive)
REMARK    1  A    between atoms: C_7  and  O_17
REMARK    2  A    between atoms: C_10  and  P_11
REMARK    3  A    between atoms: P_11  and  O_16
REMARK    4  A    between atoms: O_12  and  O_14
REMARK    5  A    between atoms: O_12  and  O_15
REMARK                            x       y       z     vdW  Elec       q    Type
REMARK                         _______ _______ _______ _____ _____    ______ ____
ROOT
ATOM      1  C   UNL     1      -3.887  -4.047  31.864  0.00  0.00    +0.006 C 
ATOM      2  C   UNL     1      -3.727  -2.919  31.104  0.00  0.00    +0.081 C 
ATOM      3  N   UNL     1      -4.628  -1.902  31.541  0.00  0.00    -0.282 N 
ATOM      4  C   UNL     1      -5.381  -2.412  32.618  0.00  0.00    +0.231 C 
ATOM      5  O   UNL     1      -6.292  -1.798  33.277  0.00  0.00    -0.274 OA
ATOM      6  C   UNL     1      -4.944  -3.787  32.865  0.00  0.00    +0.113 C 
ATOM      7  C   UNL     1      -2.772  -2.909  30.072  0.00  0.00    +0.147 C 
ATOM      8  C   UNL     1      -2.015  -4.030  29.843  0.00  0.00    +0.038 C 
ATOM      9  C   UNL     1      -2.173  -5.165  30.604  0.00  0.00    +0.005 C 
ATOM     10  C   UNL     1      -3.104  -5.189  31.617  0.00  0.00    +0.023 C 
ATOM     11  H   UNL     1      -4.710  -0.999  31.156  0.00  0.00    +0.155 HD
ENDROOT
BRANCH   7  12
ATOM     12  O   UNL     1      -2.628  -1.761  29.320  0.00  0.00    -0.504 OA
ATOM     13  H   UNL     1      -3.161  -1.012  29.502  0.00  0.00    +0.292 HD
ENDBRANCH   7  12
BRANCH  10  14
ATOM     14  P   UNL     1      -3.393  -6.574  32.668  0.00  0.00    +0.115 P 
BRANCH  14  15
ATOM     15  O   UNL     1      -2.088  -6.310  33.697  0.00  0.00    -0.361 OA
ATOM     16  H   UNL     1      -2.070  -6.999  34.379  0.00  0.00    +0.215 HD
ENDBRANCH  14  15
ENDBRANCH  10  14
TORSDOF 3
REMARK  Name = =
REMARK  5 active torsions:
REMARK  status: ('A' for Active; 'I' for Inactive)
REMARK    1  A    between atoms: C_7  and  O_17
REMARK    2  A    between atoms: C_10  and  P_11
REMARK    3  A    between atoms: P_11  and  O_16
REMARK    4  A    between atoms: O_12  and  O_14
REMARK    5  A    between atoms: O_12  and  O_15
REMARK                            x       y       z     vdW  Elec       q    Type
REMARK                         _______ _______ _______ _____ _____    ______ ____
ROOT
ATOM      1  O   UNL     1      -4.081  -7.128  31.421  0.00  0.00    -0.072 OA
ENDROOT
BRANCH   1   2
ATOM      2  O   UNL     1      -4.779  -7.445  32.666  0.00  0.00    -0.220 OA
ATOM      3  H   UNL     1      -5.614  -6.953  32.703  0.00  0.00    +0.256 HD
ENDBRANCH   1   2
BRANCH   1   4
ATOM      4  O   UNL     1      -3.110  -8.063  31.985  0.00  0.00    -0.220 OA
ATOM      5  H   UNL     1      -2.361  -8.158  31.376  0.00  0.00    +0.256 HD
ENDBRANCH   1   4
TORSDOF 2
REMARK  Name = =
REMARK  5 active torsions:
REMARK  status: ('A' for Active; 'I' for Inactive)
REMARK    1  A    between atoms: C_7  and  O_17
REMARK    2  A    between atoms: C_10  and  P_11
REMARK    3  A    between atoms: P_11  and  O_16
REMARK    4  A    between atoms: O_12  and  O_14
REMARK    5  A    between atoms: O_12  and  O_15
REMARK                            x       y       z     vdW  Elec       q    Type
REMARK                         _______ _______ _______ _____ _____    ______ ____
ROOT
ATOM      1  H   UNK     1      -3.474  -5.954  33.953  0.00  0.00    +0.000 HD
ENDROOT
TORSDOF 0
