REMARK  Name = =
REMARK  3 active torsions:
REMARK  status: ('A' for Active; 'I' for Inactive)
REMARK    1  A    between atoms: N_3  and  N_16
REMARK    2  A    between atoms: C_7  and  O_18
REMARK    3  A    between atoms: O_12  and  O_15
REMARK                            x       y       z     vdW  Elec       q    Type
REMARK                         _______ _______ _______ _____ _____    ______ ____
ROOT
ATOM      1  C   UNL     1      -3.901  -4.453  31.764  0.00  0.00    +0.006 C 
ATOM      2  C   UNL     1      -3.995  -3.143  31.297  0.00  0.00    +0.107 C 
ATOM      3  N   UNL     1      -4.879  -2.367  32.085  0.00  0.00    -0.155 N 
ATOM      4  C   UNL     1      -5.373  -3.235  33.110  0.00  0.00    +0.253 C 
ATOM      5  O   UNL     1      -6.182  -2.939  34.023  0.00  0.00    -0.272 OA
ATOM      6  C   UNL     1      -4.775  -4.578  32.939  0.00  0.00    +0.115 C 
ATOM      7  C   UNL     1      -3.243  -2.818  30.184  0.00  0.00    +0.149 C 
ATOM      8  C   UNL     1      -2.430  -3.767  29.568  0.00  0.00    +0.038 C 
ATOM      9  C   UNL     1      -2.393  -5.039  30.092  0.00  0.00    +0.003 C 
ATOM     10  C   UNL     1      -3.112  -5.424  31.190  0.00  0.00    -0.002 C 
ENDROOT
BRANCH   3  11
ATOM     11  N   UNL     1      -5.234  -1.046  31.948  0.00  0.00    -0.168 NA
ATOM     12  C   UNL     1      -6.388  -0.559  31.866  0.00  0.00    +0.140 C 
ENDBRANCH   3  11
BRANCH   7  13
ATOM     13  O   UNL     1      -3.296  -1.526  29.674  0.00  0.00    -0.504 OA
ATOM     14  H   UNL     1      -3.841  -0.883  30.083  0.00  0.00    +0.292 HD
ENDBRANCH   7  13
TORSDOF 2
REMARK  Name = =
REMARK  3 active torsions:
REMARK  status: ('A' for Active; 'I' for Inactive)
REMARK    1  A    between atoms: N_3  and  N_16
REMARK    2  A    between atoms: C_7  and  O_18
REMARK    3  A    between atoms: O_12  and  O_15
REMARK                            x       y       z     vdW  Elec       q    Type
REMARK                         _______ _______ _______ _____ _____    ______ ____
ROOT
ATOM      1  P   UNL     1      -2.925  -7.048  31.834  0.00  0.00    +0.000 P 
ENDROOT
TORSDOF 0
REMARK  Name = =
REMARK  3 active torsions:
REMARK  status: ('A' for Active; 'I' for Inactive)
REMARK    1  A    between atoms: N_3  and  N_16
REMARK    2  A    between atoms: C_7  and  O_18
REMARK    3  A    between atoms: O_12  and  O_15
REMARK                            x       y       z     vdW  Elec       q    Type
REMARK                         _______ _______ _______ _____ _____    ______ ____
ROOT
ATOM      1  O   UNL     1      -4.051  -7.568  31.021  0.00  0.00    -0.253 OA
ATOM      2  H   UNL     1      -3.404  -6.861  30.874  0.00  0.00    +0.253 HD
ENDROOT
BRANCH   1   3
ATOM      3  O   UNL     1      -4.293  -7.725  32.490  0.00  0.00    -0.253 OA
ATOM      4  H   UNL     1      -4.940  -8.432  32.637  0.00  0.00    +0.253 HD
ENDBRANCH   1   3
TORSDOF 1
REMARK  Name = =
REMARK  3 active torsions:
REMARK  status: ('A' for Active; 'I' for Inactive)
REMARK    1  A    between atoms: N_3  and  N_16
REMARK    2  A    between atoms: C_7  and  O_18
REMARK    3  A    between atoms: O_12  and  O_15
REMARK                            x       y       z     vdW  Elec       q    Type
REMARK                         _______ _______ _______ _____ _____    ______ ____
ROOT
ATOM      1  O   HOH     1      -1.935  -7.975  30.841  0.00  0.00    -0.253 OA
ATOM      2  H   HOH     0      -0.965  -7.975  30.841  0.00  0.00    +0.253 HD
ENDROOT
TORSDOF 0
REMARK  Name = =
REMARK  3 active torsions:
REMARK  status: ('A' for Active; 'I' for Inactive)
REMARK    1  A    between atoms: N_3  and  N_16
REMARK    2  A    between atoms: C_7  and  O_18
REMARK    3  A    between atoms: O_12  and  O_15
REMARK                            x       y       z     vdW  Elec       q    Type
REMARK                         _______ _______ _______ _____ _____    ______ ____
ROOT
ATOM      1  O   HOH     1      -1.998  -6.830  33.269  0.00  0.00    -0.253 OA
ATOM      2  H   HOH     0      -1.028  -6.830  33.269  0.00  0.00    +0.253 HD
ENDROOT
TORSDOF 0
