REMARK  Name = =
REMARK  8 active torsions:
REMARK  status: ('A' for Active; 'I' for Inactive)
REMARK    1  A    between atoms: N_3  and  N_16
REMARK    2  A    between atoms: C_7  and  O_18
REMARK    3  A    between atoms: C_10  and  P_11
REMARK    4  A    between atoms: P_11  and  O_12
REMARK    5  A    between atoms: P_11  and  O_15
REMARK    6  A    between atoms: O_12  and  O_14
REMARK    7  A    between atoms: O_18  and  N_19
REMARK    8  A    between atoms: N_19  and  N_20
REMARK                            x       y       z     vdW  Elec       q    Type
REMARK                         _______ _______ _______ _____ _____    ______ ____
ROOT
ATOM      1  C   UNL     1      -3.700  -4.325  31.694  0.00  0.00    +0.009 C 
ATOM      2  C   UNL     1      -3.683  -3.097  31.049  0.00  0.00    +0.110 C 
ATOM      3  N   UNL     1      -4.774  -2.310  31.452  0.00  0.00    -0.155 N 
ATOM      4  C   UNL     1      -5.538  -3.036  32.391  0.00  0.00    +0.253 C 
ATOM      5  O   UNL     1      -6.580  -2.647  32.966  0.00  0.00    -0.272 OA
ATOM      6  C   UNL     1      -4.888  -4.343  32.577  0.00  0.00    +0.115 C 
ATOM      7  C   UNL     1      -2.677  -2.767  30.139  0.00  0.00    +0.182 C 
ATOM      8  C   UNL     1      -1.686  -3.686  29.883  0.00  0.00    +0.041 C 
ATOM      9  C   UNL     1      -1.734  -4.891  30.539  0.00  0.00    +0.007 C 
ATOM     10  C   UNL     1      -2.702  -5.241  31.430  0.00  0.00    +0.036 C 
ENDROOT
BRANCH  10  11
ATOM     11  P   UNL     1      -2.772  -6.802  32.270  0.00  0.00    +0.156 P 
ATOM     12  H   UNL     1      -2.088  -6.787  33.468  0.00  0.00    +0.118 HD
BRANCH  11  13
ATOM     13  O   UNL     1      -4.285  -7.426  32.417  0.00  0.00    -0.352 OA
ATOM     14  H   UNL     1      -4.724  -7.416  31.552  0.00  0.00    +0.217 HD
ENDBRANCH  11  13
BRANCH  11  15
ATOM     15  O   UNL     1      -2.490  -7.593  30.986  0.00  0.00    -0.193 OA
BRANCH  15  16
ATOM     16  O   UNL     1      -1.348  -7.669  31.899  0.00  0.00    -0.245 OA
ATOM     17  H   UNL     1      -0.648  -8.207  31.497  0.00  0.00    +0.253 HD
ENDBRANCH  15  16
ENDBRANCH  11  15
ENDBRANCH  10  11
BRANCH   3  18
ATOM     18  N   UNL     1      -5.117  -1.005  31.034  0.00  0.00    -0.168 NA
ATOM     19  C   UNL     1      -4.815  -0.027  31.832  0.00  0.00    +0.140 C 
ENDBRANCH   3  18
BRANCH   7  20
ATOM     20  O   UNL     1      -2.688  -1.533  29.512  0.00  0.00    -0.390 OA
BRANCH  20  21
ATOM     21  N   UNL     1      -1.777  -1.239  28.526  0.00  0.00    -0.090 NA
ATOM     22  H   UNL     1      -0.844  -1.495  28.848  0.00  0.00    +0.187 HD
BRANCH  21  23
ATOM     23  N   UNL     1      -2.063  -1.938  27.355  0.00  0.00    -0.238 NA
ATOM     24  H   UNL     1      -2.996  -1.686  27.028  0.00  0.00    +0.140 HD
ATOM     25  H   UNL     1      -2.027  -2.940  27.540  0.00  0.00    +0.140 HD
ENDBRANCH  21  23
ENDBRANCH  20  21
ENDBRANCH   7  20
TORSDOF 8
REMARK  Name = =
REMARK  8 active torsions:
REMARK  status: ('A' for Active; 'I' for Inactive)
REMARK    1  A    between atoms: N_3  and  N_16
REMARK    2  A    between atoms: C_7  and  O_18
REMARK    3  A    between atoms: C_10  and  P_11
REMARK    4  A    between atoms: P_11  and  O_12
REMARK    5  A    between atoms: P_11  and  O_15
REMARK    6  A    between atoms: O_12  and  O_14
REMARK    7  A    between atoms: O_18  and  N_19
REMARK    8  A    between atoms: N_19  and  N_20
REMARK                            x       y       z     vdW  Elec       q    Type
REMARK                         _______ _______ _______ _____ _____    ______ ____
ROOT
ATOM      1  O   HOH     1      -2.306  -5.991  33.657  0.00  0.00    -0.253 OA
ATOM      2  H   HOH     0      -1.336  -5.991  33.657  0.00  0.00    +0.253 HD
ENDROOT
TORSDOF 0
