REMARK  Name = =
REMARK  9 active torsions:
REMARK  status: ('A' for Active; 'I' for Inactive)
REMARK    1  A    between atoms: N_3  and  N_16
REMARK    2  A    between atoms: C_7  and  O_18
REMARK    3  A    between atoms: C_10  and  P_11
REMARK    4  A    between atoms: P_11  and  O_14
REMARK    5  A    between atoms: O_18  and  N_19
REMARK    6  A    between atoms: N_19  and  N_20
REMARK    7  A    between atoms: N_19  and  N_28
REMARK    8  A    between atoms: N_23  and  N_24
REMARK    9  A    between atoms: C_25  and  O_27
REMARK                            x       y       z     vdW  Elec       q    Type
REMARK                         _______ _______ _______ _____ _____    ______ ____
ROOT
ATOM      1  O   UNL     1      -1.075  -1.969  28.965  0.00  0.00    -0.369 OA
ENDROOT
BRANCH   1   8
ATOM      2  C   UNL     1      -3.187  -4.191  31.052  0.00  0.00    +0.010 C 
ATOM      3  C   UNL     1      -2.797  -3.044  30.371  0.00  0.00    +0.110 C 
ATOM      4  N   UNL     1      -3.775  -2.027  30.527  0.00  0.00    -0.155 N 
ATOM      5  C   UNL     1      -4.825  -2.544  31.331  0.00  0.00    +0.253 C 
ATOM      6  O   UNL     1      -5.877  -1.934  31.682  0.00  0.00    -0.272 OA
ATOM      7  C   UNL     1      -4.507  -3.912  31.700  0.00  0.00    +0.115 C 
ATOM      8  C   UNL     1      -1.594  -2.998  29.702  0.00  0.00    +0.184 C 
ATOM      9  C   UNL     1      -0.745  -4.123  29.710  0.00  0.00    +0.041 C 
ATOM     10  C   UNL     1      -1.180  -5.231  30.401  0.00  0.00    +0.007 C 
ATOM     11  C   UNL     1      -2.361  -5.269  31.047  0.00  0.00    +0.047 C 
BRANCH  11  12
ATOM     12  P   UNL     1      -3.008  -6.721  31.779  0.00  0.00    +0.241 P 
ATOM     13  O   UNL     1      -1.590  -6.904  32.147  0.00  0.00    -0.173 OA
BRANCH  12  14
ATOM     14  O   UNL     1      -3.635  -8.195  31.621  0.00  0.00    -0.344 OA
ATOM     15  H   UNL     1      -4.571  -8.124  31.378  0.00  0.00    +0.217 HD
ENDBRANCH  12  14
ENDBRANCH  11  12
BRANCH   4  16
ATOM     16  N   UNL     1      -3.774  -0.733  30.057  0.00  0.00    -0.168 NA
ATOM     17  C   UNL     1      -4.265   0.290  30.653  0.00  0.00    +0.140 C 
ENDBRANCH   4  16
ENDBRANCH   1   8
BRANCH   1  18
ATOM     18  N   UNL     1      -1.429  -1.800  27.617  0.00  0.00    +0.016 NA
BRANCH  18  19
ATOM     19  N   UNL     1      -0.310  -2.460  26.973  0.00  0.00    -0.184 N 
ATOM     20  C   UNL     1       0.821  -1.824  26.479  0.00  0.00    +0.333 C 
ATOM     21  O   UNL     1       0.902  -0.574  26.567  0.00  0.00    -0.250 OA
ATOM     22  N   UNL     1       1.889  -2.583  25.876  0.00  0.00    -0.215 N 
ATOM     23  H   UNL     1      -0.356  -3.439  26.878  0.00  0.00    +0.175 HD
ATOM     24  H   UNL     1       1.812  -3.562  25.811  0.00  0.00    +0.175 HD
BRANCH  22  25
ATOM     25  N   UNL     1       3.016  -1.957  25.389  0.00  0.00    -0.198 N 
ATOM     26  C   UNL     1       3.134  -1.707  23.997  0.00  0.00    +0.414 C 
ATOM     27  O   UNL     1       2.216  -2.054  23.208  0.00  0.00    -0.225 OA
ATOM     28  H   UNL     1       3.735  -1.685  26.003  0.00  0.00    +0.176 HD
BRANCH  26  29
ATOM     29  O   UNL     1       4.265  -1.075  23.470  0.00  0.00    -0.465 OA
ATOM     30  H   UNL     1       4.960  -0.808  24.039  0.00  0.00    +0.297 HD
ENDBRANCH  26  29
ENDBRANCH  22  25
ENDBRANCH  18  19
BRANCH  18  31
ATOM     31  N   UNL     1      -2.535  -2.676  27.346  0.00  0.00    -0.217 NA
ATOM     32  H   UNL     1      -3.383  -2.293  27.764  0.00  0.00    +0.142 HD
ATOM     33  H   UNL     1      -2.345  -3.596  27.744  0.00  0.00    +0.142 HD
ENDBRANCH  18  31
ENDBRANCH   1  18
TORSDOF 9
REMARK  Name = =
REMARK  9 active torsions:
REMARK  status: ('A' for Active; 'I' for Inactive)
REMARK    1  A    between atoms: N_3  and  N_16
REMARK    2  A    between atoms: C_7  and  O_18
REMARK    3  A    between atoms: C_10  and  P_11
REMARK    4  A    between atoms: P_11  and  O_14
REMARK    5  A    between atoms: O_18  and  N_19
REMARK    6  A    between atoms: N_19  and  N_20
REMARK    7  A    between atoms: N_19  and  N_28
REMARK    8  A    between atoms: N_23  and  N_24
REMARK    9  A    between atoms: C_25  and  O_27
REMARK                            x       y       z     vdW  Elec       q    Type
REMARK                         _______ _______ _______ _____ _____    ______ ____
ROOT
ATOM      1  O   HOH     1      -3.777  -6.296  33.244  0.00  0.00    -0.253 OA
ATOM      2  H   HOH     0      -2.807  -6.296  33.244  0.00  0.00    +0.253 HD
ENDROOT
TORSDOF 0
REMARK  Name = =
REMARK  9 active torsions:
REMARK  status: ('A' for Active; 'I' for Inactive)
REMARK    1  A    between atoms: N_3  and  N_16
REMARK    2  A    between atoms: C_7  and  O_18
REMARK    3  A    between atoms: C_10  and  P_11
REMARK    4  A    between atoms: P_11  and  O_14
REMARK    5  A    between atoms: O_18  and  N_19
REMARK    6  A    between atoms: N_19  and  N_20
REMARK    7  A    between atoms: N_19  and  N_28
REMARK    8  A    between atoms: N_23  and  N_24
REMARK    9  A    between atoms: C_25  and  O_27
REMARK                            x       y       z     vdW  Elec       q    Type
REMARK                         _______ _______ _______ _____ _____    ______ ____
ROOT
ATOM      1  O   HOH     1      -4.305  -6.956  30.655  0.00  0.00    -0.410 OA
ATOM      2  H   HOH     0      -3.335  -6.956  30.655  0.00  0.00    +0.205 HD
ATOM      3  H   HOH     0      -4.628  -7.832  30.919  0.00  0.00    +0.205 HD
ENDROOT
TORSDOF 0
