REMARK  Name = =
REMARK  12 active torsions:
REMARK  status: ('A' for Active; 'I' for Inactive)
REMARK    1  A    between atoms: N_1  and  N_2
REMARK    2  A    between atoms: N_1  and  N_16
REMARK    3  A    between atoms: N_1  and  O_17
REMARK    4  A    between atoms: N_5  and  N_9
REMARK    5  A    between atoms: N_8  and  N_13
REMARK    6  A    between atoms: C_10  and  O_12
REMARK    7  A    between atoms: O_17  and  C_24
REMARK    8  A    between atoms: N_20  and  N_33
REMARK    9  A    between atoms: C_27  and  P_28
REMARK   10  A    between atoms: P_28  and  O_29
REMARK   11  A    between atoms: P_28  and  O_30
REMARK   12  A    between atoms: O_29  and  O_32
REMARK                            x       y       z     vdW  Elec       q    Type
REMARK                         _______ _______ _______ _____ _____    ______ ____
ROOT
ATOM      1  N   UNL     1       0.683  -3.551  28.176  0.00  0.00    +0.027 NA
ENDROOT
BRANCH   1   2
ATOM      2  N   UNL     1       1.697  -3.445  27.189  0.00  0.00    -0.087 N 
ATOM      3  C   UNL     1       2.936  -4.038  27.252  0.00  0.00    +0.344 C 
ATOM      4  O   UNL     1       3.797  -3.862  26.342  0.00  0.00    -0.249 OA
ATOM      5  N   UNL     1       3.425  -4.902  28.303  0.00  0.00    -0.214 N 
ATOM      6  C   UNL     1       1.316  -2.616  26.085  0.00  0.00    +0.344 C 
ATOM      7  O   UNL     1       0.156  -2.055  26.047  0.00  0.00    -0.249 OA
ATOM      8  N   UNL     1       2.121  -2.324  24.957  0.00  0.00    -0.216 N 
ATOM      9  H   UNL     1       2.849  -5.131  29.068  0.00  0.00    +0.175 HD
ATOM     10  H   UNL     1       3.025  -2.708  24.896  0.00  0.00    +0.174 HD
BRANCH   5  11
ATOM     11  N   UNL     1       4.743  -5.415  28.218  0.00  0.00    -0.198 N 
ATOM     12  C   UNL     1       4.984  -6.670  27.643  0.00  0.00    +0.414 C 
ATOM     13  O   UNL     1       4.003  -7.364  27.202  0.00  0.00    -0.225 OA
ATOM     14  H   UNL     1       5.496  -4.885  28.566  0.00  0.00    +0.176 HD
BRANCH  12  15
ATOM     15  O   UNL     1       6.247  -7.255  27.497  0.00  0.00    -0.465 OA
ATOM     16  H   UNL     1       7.010  -6.803  27.798  0.00  0.00    +0.297 HD
ENDBRANCH  12  15
ENDBRANCH   5  11
BRANCH   8  17
ATOM     17  N   UNL     1       1.647  -1.486  23.911  0.00  0.00    -0.225 N 
ATOM     18  C   UNL     1       2.053  -0.123  23.977  0.00  0.00    +0.316 C 
ATOM     19  O   UNL     1       2.770   0.328  24.877  0.00  0.00    -0.264 OA
ATOM     20  H   UNL     1       1.074  -1.827  23.187  0.00  0.00    +0.173 HD
ENDBRANCH   8  17
ENDBRANCH   1   2
BRANCH   1  21
ATOM     21  N   UNL     1       1.204  -2.868  29.345  0.00  0.00    -0.216 NA
ATOM     22  H   UNL     1       0.516  -2.909  30.097  0.00  0.00    +0.142 HD
ATOM     23  H   UNL     1       1.396  -1.894  29.112  0.00  0.00    +0.142 HD
ENDBRANCH   1  21
BRANCH   1  24
ATOM     24  O   UNL     1       0.341  -4.780  28.524  0.00  0.00    -0.368 OA
BRANCH  24  31
ATOM     25  C   UNL     1      -2.302  -5.194  31.074  0.00  0.00    +0.009 C 
ATOM     26  C   UNL     1      -1.602  -4.592  30.013  0.00  0.00    +0.110 C 
ATOM     27  N   UNL     1      -2.259  -3.433  29.573  0.00  0.00    -0.155 N 
ATOM     28  C   UNL     1      -3.443  -3.274  30.395  0.00  0.00    +0.253 C 
ATOM     29  O   UNL     1      -4.345  -2.394  30.202  0.00  0.00    -0.272 OA
ATOM     30  C   UNL     1      -3.401  -4.291  31.453  0.00  0.00    +0.115 C 
ATOM     31  C   UNL     1      -0.457  -5.237  29.508  0.00  0.00    +0.184 C 
ATOM     32  C   UNL     1      -0.082  -6.453  30.087  0.00  0.00    +0.041 C 
ATOM     33  C   UNL     1      -0.798  -7.012  31.122  0.00  0.00    +0.007 C 
ATOM     34  C   UNL     1      -1.920  -6.384  31.631  0.00  0.00    +0.036 C 
BRANCH  34  35
ATOM     35  P   UNL     1      -2.837  -7.126  32.955  0.00  0.00    +0.156 P 
ATOM     36  H   UNL     1      -2.407  -6.536  34.126  0.00  0.00    +0.118 HD
BRANCH  35  37
ATOM     37  O   UNL     1      -4.385  -7.532  32.359  0.00  0.00    -0.352 OA
ATOM     38  H   UNL     1      -4.298  -7.940  31.483  0.00  0.00    +0.217 HD
ENDBRANCH  35  37
BRANCH  35  39
ATOM     39  O   UNL     1      -3.065  -8.543  32.386  0.00  0.00    -0.193 OA
BRANCH  39  40
ATOM     40  O   UNL     1      -2.036  -8.515  33.481  0.00  0.00    -0.245 OA
ATOM     41  H   UNL     1      -1.698  -9.412  33.631  0.00  0.00    +0.253 HD
ENDBRANCH  39  40
ENDBRANCH  35  39
ENDBRANCH  34  35
BRANCH  27  42
ATOM     42  N   UNL     1      -1.932  -2.579  28.510  0.00  0.00    -0.168 NA
ATOM     43  C   UNL     1      -2.572  -2.693  27.380  0.00  0.00    +0.140 C 
ENDBRANCH  27  42
ENDBRANCH  24  31
ENDBRANCH   1  24
TORSDOF 12
REMARK  Name = =
REMARK  12 active torsions:
REMARK  status: ('A' for Active; 'I' for Inactive)
REMARK    1  A    between atoms: N_1  and  N_2
REMARK    2  A    between atoms: N_1  and  N_16
REMARK    3  A    between atoms: N_1  and  O_17
REMARK    4  A    between atoms: N_5  and  N_9
REMARK    5  A    between atoms: N_8  and  N_13
REMARK    6  A    between atoms: C_10  and  O_12
REMARK    7  A    between atoms: O_17  and  C_24
REMARK    8  A    between atoms: N_20  and  N_33
REMARK    9  A    between atoms: C_27  and  P_28
REMARK   10  A    between atoms: P_28  and  O_29
REMARK   11  A    between atoms: P_28  and  O_30
REMARK   12  A    between atoms: O_29  and  O_32
REMARK                            x       y       z     vdW  Elec       q    Type
REMARK                         _______ _______ _______ _____ _____    ______ ____
ROOT
ATOM      1  O   HOH     1      -3.269  -5.977  34.086  0.00  0.00    -0.253 OA
ATOM      2  H   HOH     0      -2.299  -5.977  34.086  0.00  0.00    +0.253 HD
ENDROOT
TORSDOF 0
