REMARK  Name = =
REMARK  5 active torsions:
REMARK  status: ('A' for Active; 'I' for Inactive)
REMARK    1  A    between atoms: C_1  and  C_31
REMARK    2  A    between atoms: C_2  and  N_21
REMARK    3  A    between atoms: C_7  and  C_12
REMARK    4  A    between atoms: C_30  and  N_42
REMARK    5  A    between atoms: C_33  and  C_36
REMARK                            x       y       z     vdW  Elec       q    Type
REMARK                         _______ _______ _______ _____ _____    ______ ____
ROOT
ATOM      1  C   UNL     1     -22.885 -39.772  21.621  0.00  0.00    +0.091 A 
ATOM      2  C   UNL     1     -23.877 -39.590  22.559  0.00  0.00    +0.066 A 
ATOM      3  C   UNL     1     -23.476 -39.553  23.901  0.00  0.00    +0.049 A 
ATOM      4  C   UNL     1     -22.138 -39.698  24.168  0.00  0.00    +0.150 A 
ATOM      5  C   UNL     1     -21.743 -39.662  25.504  0.00  0.00    +0.038 C 
ATOM      6  C   UNL     1     -22.691 -39.487  26.478  0.00  0.00    +0.003 C 
ATOM      7  C   UNL     1     -24.041 -39.342  26.202  0.00  0.00    +0.001 C 
ATOM      8  C   UNL     1     -24.424 -39.379  24.879  0.00  0.00    +0.004 C 
ATOM      9  O   UNL     1     -21.231 -39.869  23.224  0.00  0.00    -0.421 OA
ATOM     10  C   UNL     1     -21.539 -39.914  21.963  0.00  0.00    +0.347 A 
ATOM     11  O   UNL     1     -20.658 -40.083  21.051  0.00  0.00    -0.244 OA
ENDROOT
BRANCH   7  12
ATOM     12  C   UNL     1     -24.993 -39.160  27.282  0.00  0.00    +0.015 C 
ATOM     13  C   UNL     1     -24.752 -39.623  28.555  0.00  0.00    +0.071 C 
ATOM     14  N   UNL     1     -25.652 -39.445  29.550  0.00  0.00    -0.247 N 
ATOM     15  C   UNL     1     -26.818 -38.812  29.351  0.00  0.00    +0.139 C 
ATOM     16  N   UNL     1     -27.522 -38.772  30.495  0.00  0.00    -0.227 NA
ATOM     17  C   UNL     1     -26.806 -39.391  31.471  0.00  0.00    +0.117 C 
ATOM     18  C   UNL     1     -25.642 -39.805  30.865  0.00  0.00    +0.092 C 
ATOM     19  C   UNL     1     -27.094 -38.332  28.081  0.00  0.00    +0.035 C 
ATOM     20  C   UNL     1     -26.175 -38.507  27.040  0.00  0.00    +0.004 C 
ENDBRANCH   7  12
BRANCH   2  21
ATOM     21  N   UNL     1     -25.234 -39.438  22.216  0.00  0.00    -0.247 N 
ATOM     22  C   UNL     1     -26.225 -40.332  22.402  0.00  0.00    +0.172 C 
ATOM     23  N   UNL     1     -27.376 -39.845  21.952  0.00  0.00    -0.226 NA
ATOM     24  C   UNL     1     -27.147 -38.599  21.456  0.00  0.00    +0.097 C 
ATOM     25  C   UNL     1     -25.792 -38.372  21.636  0.00  0.00    +0.075 C 
ATOM     26  C   UNL     1     -25.338 -37.132  21.191  0.00  0.00    +0.017 C 
ATOM     27  C   UNL     1     -26.190 -36.220  20.618  0.00  0.00    +0.001 C 
ATOM     28  C   UNL     1     -27.525 -36.481  20.456  0.00  0.00    +0.002 C 
ATOM     29  C   UNL     1     -28.007 -37.696  20.885  0.00  0.00    +0.020 C 
ENDBRANCH   2  21
BRANCH   1  31
ATOM     30  C   UNL     1     -23.449 -41.082  19.639  0.00  0.00    +0.048 C 
ATOM     31  C   UNL     1     -23.195 -39.875  20.211  0.00  0.00    +0.021 C 
ATOM     32  C   UNL     1     -23.238 -38.724  19.408  0.00  0.00    +0.001 C 
ATOM     33  C   UNL     1     -23.521 -38.743  18.074  0.00  0.00    +0.000 C 
ATOM     34  C   UNL     1     -23.776 -39.966  17.501  0.00  0.00    +0.001 C 
ATOM     35  C   UNL     1     -23.742 -41.116  18.259  0.00  0.00    +0.015 C 
BRANCH  33  36
ATOM     36  C   UNL     1     -23.564 -37.502  17.266  0.00  0.00    +0.000 C 
ATOM     37  C   UNL     1     -22.370 -36.916  16.919  0.00  0.00    +0.000 C 
ATOM     38  C   UNL     1     -22.366 -35.763  16.174  0.00  0.00    +0.000 C 
ATOM     39  C   UNL     1     -23.535 -35.162  15.754  0.00  0.00    +0.000 C 
ATOM     40  C   UNL     1     -24.714 -35.783  16.123  0.00  0.00    +0.000 C 
ATOM     41  C   UNL     1     -24.732 -36.936  16.869  0.00  0.00    +0.000 C 
ENDBRANCH  33  36
BRANCH  30  42
ATOM     42  N   UNL     1     -23.475 -42.348  20.264  0.00  0.00    -0.307 N 
ATOM     43  C   UNL     1     -22.429 -43.252  20.675  0.00  0.00    +0.091 C 
ATOM     44  C   UNL     1     -23.073 -44.604  20.409  0.00  0.00    +0.023 C 
ATOM     45  C   UNL     1     -24.442 -44.394  21.010  0.00  0.00    +0.023 C 
ATOM     46  C   UNL     1     -24.753 -42.968  20.648  0.00  0.00    +0.091 C 
ENDBRANCH  30  42
ENDBRANCH   1  31
TORSDOF 5
