MODEL 1
REMARK VINA RESULT:    -9.906      0.000      0.000
REMARK INTER + INTRA:         -14.231
REMARK INTER:                 -14.539
REMARK INTRA:                   0.309
REMARK UNBOUND:                 0.309
REMARK  Name = =
REMARK  9 active torsions:
REMARK  status: ('A' for Active; 'I' for Inactive)
REMARK    1  A    between atoms: C_1  and  C_28
REMARK    2  A    between atoms: C_2  and  N_9
REMARK    3  A    between atoms: N_9  and  S_10
REMARK    4  A    between atoms: S_10  and  N_13
REMARK    5  A    between atoms: N_13  and  C_16
REMARK    6  A    between atoms: C_14  and  O_27
REMARK    7  A    between atoms: C_19  and  C_21
REMARK    8  A    between atoms: C_28  and  N_29
REMARK    9  A    between atoms: C_28  and  N_40
REMARK                            x       y       z     vdW  Elec       q    Type
REMARK                         _______ _______ _______ _____ _____    ______ ____
ROOT
ATOM      1  C   UNL     1      -0.742  -6.279  31.148  0.00  0.00    +0.068 C 
ATOM      2  C   UNL     1       0.072  -5.269  30.970  0.00  0.00    +0.107 C 
ATOM      3  C   UNL     1       1.445  -5.354  31.481  0.00  0.00    +0.210 C 
ATOM      4  O   UNL     1       2.214  -4.367  31.298  0.00  0.00    -0.285 OA
ATOM      5  C   UNL     1       1.878  -6.554  32.172  0.00  0.00    +0.047 C 
ATOM      6  C   UNL     1       1.051  -7.573  32.350  0.00  0.00    +0.045 C 
ATOM      7  C   UNL     1      -0.313  -7.513  31.855  0.00  0.00    +0.196 C 
ATOM      8  O   UNL     1      -1.127  -8.460  32.006  0.00  0.00    -0.287 OA
ENDROOT
BRANCH   2   9
ATOM      9  N   UNL     1      -0.352  -4.087  30.318  0.00  0.00    -0.199 N 
ATOM     10  H   UNL     1      -0.821  -3.372  30.806  0.00  0.00    +0.175 HD
BRANCH   9  11
ATOM     11  S   UNL     1      -0.012  -3.950  28.644  0.00  0.00    +0.132 S 
ATOM     12  O   UNL     1      -0.867  -5.002  27.926  0.00  0.00    -0.135 OA
ATOM     13  O   UNL     1       1.436  -4.376  28.381  0.00  0.00    -0.135 OA
BRANCH  11  14
ATOM     14  N   UNL     1      -0.286  -2.423  27.961  0.00  0.00    -0.107 N 
ATOM     15  C   UNL     1      -1.443  -2.111  27.217  0.00  0.00    +0.422 C 
ATOM     16  O   UNL     1      -1.580  -0.920  26.735  0.00  0.00    -0.225 OA
BRANCH  14  17
ATOM     17  C   UNL     1       0.714  -1.362  28.141  0.00  0.00    +0.147 C 
ATOM     18  C   UNL     1       1.954  -1.823  28.820  0.00  0.00    -0.000 C 
ATOM     19  C   UNL     1       2.998  -1.866  27.740  0.00  0.00    +0.000 C 
ATOM     20  C   UNL     1       2.400  -1.188  26.570  0.00  0.00    +0.033 C 
ATOM     21  C   UNL     1       1.135  -0.916  26.805  0.00  0.00    +0.003 C 
BRANCH  20  22
ATOM     22  C   UNL     1       3.091  -0.852  25.328  0.00  0.00    +0.162 C 
ATOM     23  N   UNL     1       2.561  -0.010  24.425  0.00  0.00    -0.225 NA
ATOM     24  C   UNL     1       3.180   0.302  23.290  0.00  0.00    +0.102 C 
ATOM     25  C   UNL     1       4.436  -0.243  22.985  0.00  0.00    +0.041 C 
ATOM     26  C   UNL     1       4.973  -1.096  23.903  0.00  0.00    +0.102 C 
ATOM     27  N   UNL     1       4.297  -1.377  25.036  0.00  0.00    -0.225 NA
ENDBRANCH  20  22
ENDBRANCH  14  17
BRANCH  15  28
ATOM     28  O   UNL     1      -2.439  -3.025  26.981  0.00  0.00    -0.465 OA
ATOM     29  H   UNL     1      -2.393  -3.878  27.365  0.00  0.00    +0.297 HD
ENDBRANCH  15  28
ENDBRANCH  11  14
ENDBRANCH   9  11
ENDBRANCH   2   9
BRANCH   1  30
ATOM     30  C   UNL     1      -2.147  -6.283  30.668  0.00  0.00    +0.161 C 
BRANCH  30  31
ATOM     31  N   UNL     1      -2.912  -5.610  31.728  0.00  0.00    -0.248 N 
ATOM     32  C   UNL     1      -2.915  -6.055  32.989  0.00  0.00    +0.171 C 
ATOM     33  N   UNL     1      -3.685  -5.222  33.705  0.00  0.00    -0.209 NA
ATOM     34  C   UNL     1      -4.156  -4.267  32.881  0.00  0.00    +0.164 A 
ATOM     35  C   UNL     1      -3.656  -4.520  31.598  0.00  0.00    +0.145 A 
ATOM     36  C   UNL     1      -3.977  -3.692  30.538  0.00  0.00    +0.278 A 
ATOM     37  O   UNL     1      -3.518  -3.940  29.397  0.00  0.00    -0.266 OA
ATOM     38  N   UNL     1      -4.780  -2.636  30.748  0.00  0.00    -0.273 N 
ATOM     39  C   UNL     1      -5.252  -2.402  31.972  0.00  0.00    +0.328 A 
ATOM     40  O   UNL     1      -6.008  -1.399  32.155  0.00  0.00    -0.247 OA
ATOM     41  N   UNL     1      -4.948  -3.203  33.029  0.00  0.00    -0.291 N 
ATOM     42  H   UNL     1      -5.020  -2.040  30.002  0.00  0.00    +0.173 HD
ATOM     43  H   UNL     1      -5.319  -2.995  33.916  0.00  0.00    +0.172 HD
ENDBRANCH  30  31
BRANCH  30  44
ATOM     44  N   UNL     1      -2.700  -7.611  30.549  0.00  0.00    -0.303 NA
ATOM     45  H   UNL     1      -2.031  -8.215  30.072  0.00  0.00    +0.121 HD
ATOM     46  H   UNL     1      -3.566  -7.571  30.012  0.00  0.00    +0.121 HD
ENDBRANCH  30  44
ENDBRANCH   1  30
TORSDOF 9
ENDMDL
