MODEL 1
REMARK VINA RESULT:    -8.669      0.000      0.000
REMARK INTER + INTRA:         -12.240
REMARK INTER:                 -11.457
REMARK INTRA:                  -0.784
REMARK UNBOUND:                -0.784
REMARK  Name = =
REMARK  7 active torsions:
REMARK  status: ('A' for Active; 'I' for Inactive)
REMARK    1  A    between atoms: C_1  and  S_13
REMARK    2  A    between atoms: C_2  and  S_21
REMARK    3  A    between atoms: S_13  and  C_15
REMARK    4  A    between atoms: S_13  and  C_19
REMARK    5  A    between atoms: S_21  and  C_22
REMARK    6  A    between atoms: S_21  and  C_35
REMARK    7  A    between atoms: C_35  and  O_37
REMARK                            x       y       z     vdW  Elec       q    Type
REMARK                         _______ _______ _______ _____ _____    ______ ____
ROOT
ATOM      1  C   UNL     1     -20.597 -41.638  25.148  0.00  0.00    +0.058 C 
ATOM      2  C   UNL     1     -20.067 -41.484  23.944  0.00  0.00    +0.059 C 
ATOM      3  C   UNL     1     -18.586 -41.542  23.898  0.00  0.00    +0.201 C 
ATOM      4  O   UNL     1     -18.016 -41.395  22.761  0.00  0.00    -0.286 OA
ATOM      5  C   UNL     1     -17.718 -41.750  25.019  0.00  0.00    +0.043 C 
ATOM      6  C   UNL     1     -18.287 -41.915  26.261  0.00  0.00    +0.043 C 
ATOM      7  C   UNL     1     -17.467 -42.117  27.349  0.00  0.00    +0.003 C 
ATOM      8  C   UNL     1     -16.078 -42.156  27.193  0.00  0.00    +0.000 C 
ATOM      9  C   UNL     1     -15.534 -41.991  25.949  0.00  0.00    +0.000 C 
ATOM     10  C   UNL     1     -16.327 -41.788  24.857  0.00  0.00    +0.003 C 
ATOM     11  C   UNL     1     -19.732 -41.859  26.328  0.00  0.00    +0.200 C 
ATOM     12  O   UNL     1     -20.267 -42.007  27.456  0.00  0.00    -0.286 OA
ENDROOT
BRANCH   1  13
ATOM     13  S   UNL     1     -22.312 -41.603  25.392  0.00  0.00    -0.138 S 
ATOM     14  H   UNL     1     -22.986 -41.109  24.320  0.00  0.00    +0.094 HD
BRANCH  13  16
ATOM     15  O   UNL     1     -22.289 -39.470  27.030  0.00  0.00    -0.442 OA
ATOM     16  C   UNL     1     -22.636 -40.790  26.893  0.00  0.00    +0.215 C 
ATOM     17  C   UNL     1     -24.081 -40.302  27.018  0.00  0.00    +0.163 C 
ATOM     18  C   UNL     1     -23.504 -39.074  27.611  0.00  0.00    +0.322 C 
ATOM     19  O   UNL     1     -23.962 -38.150  28.306  0.00  0.00    -0.250 OA
ENDBRANCH  13  16
BRANCH  13  20
ATOM     20  C   UNL     1     -22.588 -43.442  26.048  0.00  0.00    +0.227 C 
ATOM     21  O   UNL     1     -23.062 -44.133  25.220  0.00  0.00    -0.209 OA
ENDBRANCH  13  20
ENDBRANCH   1  13
BRANCH   2  22
ATOM     22  S   UNL     1     -20.961 -41.323  22.557  0.00  0.00    -0.141 S 
ATOM     23  H   UNL     1     -20.024 -40.736  21.765  0.00  0.00    +0.096 HD
BRANCH  22  24
ATOM     24  C   UNL     1     -22.015 -40.084  22.365  0.00  0.00    +0.083 C 
ATOM     25  C   UNL     1     -23.315 -40.521  21.829  0.00  0.00    -0.009 C 
ATOM     26  C   UNL     1     -23.546 -40.003  20.591  0.00  0.00    -0.003 C 
ATOM     27  C   UNL     1     -22.416 -39.164  20.231  0.00  0.00    -0.003 C 
ATOM     28  C   UNL     1     -21.514 -39.180  21.251  0.00  0.00    -0.009 C 
ATOM     29  C   UNL     1     -20.367 -38.447  21.127  0.00  0.00    -0.003 C 
ATOM     30  C   UNL     1     -20.072 -37.675  20.000  0.00  0.00    -0.000 C 
ATOM     31  C   UNL     1     -20.987 -37.668  18.983  0.00  0.00    -0.000 C 
ATOM     32  C   UNL     1     -22.148 -38.399  19.086  0.00  0.00    -0.000 C 
ATOM     33  C   UNL     1     -24.717 -40.280  19.869  0.00  0.00    -0.000 C 
ATOM     34  C   UNL     1     -25.674 -41.098  20.414  0.00  0.00    -0.000 C 
ATOM     35  C   UNL     1     -25.447 -41.621  21.662  0.00  0.00    -0.000 C 
ATOM     36  C   UNL     1     -24.306 -41.358  22.377  0.00  0.00    -0.003 C 
ENDBRANCH  22  24
BRANCH  22  37
ATOM     37  C   UNL     1     -21.350 -42.784  21.825  0.00  0.00    +0.183 C 
ATOM     38  S   UNL     1     -21.244 -43.080  20.200  0.00  0.00    -0.006 S 
BRANCH  37  39
ATOM     39  O   UNL     1     -21.798 -43.867  22.564  0.00  0.00    -0.497 OA
ATOM     40  H   UNL     1     -21.206 -44.329  23.123  0.00  0.00    +0.293 HD
ENDBRANCH  37  39
ENDBRANCH  22  37
ENDBRANCH   2  22
TORSDOF 7
ENDMDL
