REMARK  Name = =
REMARK  3 active torsions:
REMARK  status: ('A' for Active; 'I' for Inactive)
REMARK    1  A    between atoms: P_1  and  S_3
REMARK    2  A    between atoms: P_1  and  O_4
REMARK    3  A    between atoms: P_1  and  O_5
REMARK                            x       y       z     vdW  Elec       q    Type
REMARK                         _______ _______ _______ _____ _____    ______ ____
ROOT
ATOM      1  P   UNL     1      51.046 155.645  29.241  0.00  0.00    +0.221 P 
ATOM      2  S   UNL     1      51.725 154.947  27.807  0.00  0.00    +0.003 S 
ENDROOT
BRANCH   1   3
ATOM      3  S   UNL     1      51.888 157.582  29.509  0.00  0.00    -0.092 S 
ATOM      4  H   UNL     1      53.243 157.484  29.562  0.00  0.00    +0.111 HD
ENDBRANCH   1   3
BRANCH   1   5
ATOM      5  O   UNL     1      51.516 154.740  30.584  0.00  0.00    -0.340 OA
ATOM      6  H   UNL     1      52.484 154.698  30.623  0.00  0.00    +0.218 HD
ENDBRANCH   1   5
BRANCH   1   7
ATOM      7  O   UNL     1      49.368 155.720  29.170  0.00  0.00    -0.340 OA
ATOM      8  H   UNL     1      49.027 156.115  29.988  0.00  0.00    +0.218 HD
ENDBRANCH   1   7
TORSDOF 3
