REMARK  Name = =
REMARK  4 active torsions:
REMARK  status: ('A' for Active; 'I' for Inactive)
REMARK    1  A    between atoms: P_1  and  O_3
REMARK    2  A    between atoms: P_1  and  O_4
REMARK    3  A    between atoms: P_1  and  S_5
REMARK    4  A    between atoms: S_5  and  C_6
REMARK                            x       y       z     vdW  Elec       q    Type
REMARK                         _______ _______ _______ _____ _____    ______ ____
ROOT
ATOM      1  P   UNL     1      51.349 155.641  28.911  0.00  0.00    +0.229 P 
ATOM      2  S   UNL     1      52.051 157.136  29.432  0.00  0.00    +0.003 S 
ENDROOT
BRANCH   1   3
ATOM      3  O   UNL     1      51.854 154.366  29.869  0.00  0.00    -0.339 OA
ATOM      4  H   UNL     1      51.623 154.545  30.794  0.00  0.00    +0.218 HD
ENDBRANCH   1   3
BRANCH   1   5
ATOM      5  O   UNL     1      49.671 155.792  29.101  0.00  0.00    -0.339 OA
ATOM      6  H   UNL     1      49.466 155.973  30.032  0.00  0.00    +0.218 HD
ENDBRANCH   1   5
BRANCH   1   7
ATOM      7  S   UNL     1      51.855 155.245  26.899  0.00  0.00    -0.035 S 
BRANCH   7   8
ATOM      8  C   UNL     1      52.620 153.625  26.806  0.00  0.00    +0.062 C 
ATOM      9  C   UNL     1      53.401 153.268  25.810  0.00  0.00    +0.121 C 
ATOM     10 CL   UNL     1      53.721 154.389  24.517  0.00  0.00    -0.069 Cl
ATOM     11 CL   UNL     1      54.109 151.688  25.781  0.00  0.00    -0.069 Cl
ENDBRANCH   7   8
ENDBRANCH   1   7
TORSDOF 4
