REMARK  Name = =
REMARK  5 active torsions:
REMARK  status: ('A' for Active; 'I' for Inactive)
REMARK    1  A    between atoms: C_1  and  C_6
REMARK    2  A    between atoms: C_1  and  S_15
REMARK    3  A    between atoms: S_15  and  P_16
REMARK    4  A    between atoms: P_16  and  O_18
REMARK    5  A    between atoms: P_16  and  O_19
REMARK                            x       y       z     vdW  Elec       q    Type
REMARK                         _______ _______ _______ _____ _____    ______ ____
ROOT
ATOM      1  C   UNL     1      51.630 155.482  28.165  0.00  0.00    +0.060 C 
ATOM      2  C   UNL     1      51.670 156.328  29.141  0.00  0.00    +0.119 C 
ATOM      3 CL   UNL     1      50.884 155.984  30.692  0.00  0.00    -0.070 Cl
ATOM      4 CL   UNL     1      52.519 157.841  29.037  0.00  0.00    -0.070 Cl
ENDROOT
BRANCH   1   6
ATOM      5  O   UNL     1      52.317 154.461  26.197  0.00  0.00    -0.346 OA
ATOM      6  C   UNL     1      52.244 155.680  26.855  0.00  0.00    +0.150 C 
ATOM      7  C   UNL     1      53.387 156.593  26.716  0.00  0.00    +0.061 C 
ATOM      8  C   UNL     1      54.117 156.365  25.407  0.00  0.00    -0.021 C 
ATOM      9  C   UNL     1      54.178 155.068  24.956  0.00  0.00    +0.003 C 
ATOM     10  C   UNL     1      54.812 154.728  23.761  0.00  0.00    -0.002 C 
ATOM     11  C   UNL     1      55.383 155.761  23.044  0.00  0.00    -0.000 C 
ATOM     12  C   UNL     1      55.331 157.068  23.482  0.00  0.00    -0.000 C 
ATOM     13  C   UNL     1      54.687 157.366  24.684  0.00  0.00    -0.004 C 
ATOM     14  C   UNL     1      53.543 154.036  25.807  0.00  0.00    +0.169 C 
ENDBRANCH   1   6
BRANCH   1  15
ATOM     15  S   UNL     1      50.781 153.904  28.536  0.00  0.00    -0.037 S 
BRANCH  15  16
ATOM     16  P   UNL     1      51.987 152.297  27.840  0.00  0.00    +0.229 P 
ATOM     17  S   UNL     1      51.545 150.822  28.592  0.00  0.00    +0.003 S 
BRANCH  16  18
ATOM     18  O   UNL     1      53.620 152.576  28.168  0.00  0.00    -0.339 OA
ATOM     19  H   UNL     1      53.748 152.657  29.126  0.00  0.00    +0.218 HD
ENDBRANCH  16  18
BRANCH  16  20
ATOM     20  O   UNL     1      51.690 152.145  26.183  0.00  0.00    -0.339 OA
ATOM     21  H   UNL     1      51.933 152.970  25.734  0.00  0.00    +0.218 HD
ENDBRANCH  16  20
ENDBRANCH  15  16
ENDBRANCH   1  15
TORSDOF 5
