REMARK  Name = =
REMARK  8 active torsions:
REMARK  status: ('A' for Active; 'I' for Inactive)
REMARK    1  A    between atoms: C_1  and  C_6
REMARK    2  A    between atoms: C_1  and  S_21
REMARK    3  A    between atoms: C_12  and  C_15
REMARK    4  A    between atoms: S_21  and  P_22
REMARK    5  A    between atoms: S_21  and  N_26
REMARK    6  A    between atoms: P_22  and  O_24
REMARK    7  A    between atoms: P_22  and  O_25
REMARK    8  A    between atoms: N_26  and  S_27
REMARK                            x       y       z     vdW  Elec       q    Type
REMARK                         _______ _______ _______ _____ _____    ______ ____
ROOT
ATOM      1  C   UNL     1      53.042 154.021  26.146  0.00  0.00    +0.052 C 
ATOM      2  C   UNL     1      53.290 154.554  24.944  0.00  0.00    +0.119 C 
ATOM      3 CL   UNL     1      54.129 153.668  23.689  0.00  0.00    -0.070 Cl
ATOM      4 CL   UNL     1      52.765 156.199  24.594  0.00  0.00    -0.070 Cl
ENDROOT
BRANCH   1   6
ATOM      5  O   UNL     1      51.832 153.899  28.121  0.00  0.00    -0.346 OA
ATOM      6  C   UNL     1      52.345 154.788  27.155  0.00  0.00    +0.149 C 
ATOM      7  C   UNL     1      53.167 155.811  27.901  0.00  0.00    +0.061 C 
ATOM      8  C   UNL     1      52.173 156.542  28.767  0.00  0.00    -0.021 C 
ATOM      9  C   UNL     1      51.022 155.864  29.082  0.00  0.00    +0.003 C 
ATOM     10  C   UNL     1      50.106 156.548  29.888  0.00  0.00    -0.002 C 
ATOM     11  C   UNL     1      50.393 157.839  30.318  0.00  0.00    -0.001 C 
ATOM     12  C   UNL     1      51.557 158.496  29.987  0.00  0.00    -0.003 C 
ATOM     13  C   UNL     1      52.444 157.826  29.203  0.00  0.00    -0.005 C 
ATOM     14  C   UNL     1      50.687 154.492  28.637  0.00  0.00    +0.169 C 
BRANCH  12  15
ATOM     15  C   UNL     1      51.767 159.854  30.490  0.00  0.00    -0.003 C 
ATOM     16  C   UNL     1      52.862 160.538  30.248  0.00  0.00    +0.114 C 
ATOM     17  N   UNL     1      53.071 161.867  30.739  0.00  0.00    -0.328 N 
ATOM     18  C   UNL     1      52.052 162.469  31.518  0.00  0.00    +0.058 C 
ATOM     19  C   UNL     1      50.949 161.810  31.776  0.00  0.00    +0.015 C 
ATOM     20  C   UNL     1      50.697 160.454  31.294  0.00  0.00    -0.001 C 
ATOM     21  H   UNL     1      53.904 162.352  30.540  0.00  0.00    +0.147 HD
ENDBRANCH  12  15
ENDBRANCH   1   6
BRANCH   1  22
ATOM     22  S   UNL     1      53.588 152.402  26.421  0.00  0.00    -0.081 S 
ATOM     23  H   UNL     1      53.976 152.271  27.718  0.00  0.00    +0.112 HD
BRANCH  22  24
ATOM     24  P   UNL     1      52.241 151.233  26.304  0.00  0.00    +0.222 P 
ATOM     25  S   UNL     1      52.755 149.817  25.415  0.00  0.00    +0.003 S 
BRANCH  24  26
ATOM     26  O   UNL     1      51.628 150.652  27.781  0.00  0.00    -0.340 OA
ATOM     27  H   UNL     1      52.351 150.270  28.303  0.00  0.00    +0.218 HD
ENDBRANCH  24  26
BRANCH  24  28
ATOM     28  O   UNL     1      50.926 151.879  25.459  0.00  0.00    -0.340 OA
ATOM     29  H   UNL     1      50.605 152.671  25.917  0.00  0.00    +0.218 HD
ENDBRANCH  24  28
ENDBRANCH  22  24
BRANCH  22  30
ATOM     30  N   UNL     1      54.985 152.046  26.212  0.00  0.00    -0.149 NA
ATOM     31  H   UNL     1      54.996 151.430  25.399  0.00  0.00    +0.160 HD
BRANCH  30  32
ATOM     32  S   UNL     1      56.211 153.176  25.948  0.00  0.00    +0.027 S 
ATOM     33  O   UNL     1      57.567 152.482  26.019  0.00  0.00    -0.160 OA
ATOM     34  O   UNL     1      56.162 153.847  24.621  0.00  0.00    -0.160 OA
ATOM     35  H   UNL     1      56.029 154.118  26.912  0.00  0.00    +0.230 HD
ENDBRANCH  30  32
ENDBRANCH  22  30
ENDBRANCH   1  22
TORSDOF 8
