REMARK  Name = =
REMARK  3 active torsions:
REMARK  status: ('A' for Active; 'I' for Inactive)
REMARK    1  A    between atoms: P_1  and  C_11
REMARK    2  A    between atoms: P_1  and  O_17
REMARK    3  A    between atoms: O_17  and  C_18
REMARK                            x       y       z     vdW  Elec       q    Type
REMARK                         _______ _______ _______ _____ _____    ______ ____
ROOT
ATOM      1  P   UNL     1     -12.180 -43.760  30.623  0.00  0.00    +0.342 P 
ATOM      2  O   UNL     1     -12.866 -43.050  31.717  0.00  0.00    -0.137 OA
ATOM      3  O   UNL     1     -11.721 -42.982  29.219  0.00  0.00    -0.289 OA
ATOM      4  C   UNL     1     -11.132 -41.759  29.352  0.00  0.00    +0.157 C 
ATOM      5  C   UNL     1      -9.654 -42.012  29.691  0.00  0.00    +0.173 C 
ATOM      6  O   UNL     1      -9.017 -42.166  28.477  0.00  0.00    -0.351 OA
ATOM      7  C   UNL     1      -9.567 -41.141  27.693  0.00  0.00    +0.145 C 
ATOM      8  C   UNL     1     -11.031 -41.107  28.005  0.00  0.00    +0.065 C 
ATOM      9  C   UNL     1      -9.666 -43.327  30.484  0.00  0.00    +0.184 C 
ATOM     10  O   UNL     1     -10.840 -43.271  31.239  0.00  0.00    -0.287 OA
ENDROOT
BRANCH   1  11
ATOM     11  C   UNL     1     -11.826 -45.467  30.804  0.00  0.00    +0.223 C 
ATOM     12  O   UNL     1     -10.831 -45.863  31.659  0.00  0.00    -0.344 OA
ATOM     13  C   UNL     1      -9.973 -46.807  31.183  0.00  0.00    +0.143 C 
ATOM     14  C   UNL     1      -9.159 -46.301  29.989  0.00  0.00    +0.032 C 
ATOM     15  C   UNL     1     -10.177 -45.853  28.957  0.00  0.00    +0.006 C 
ATOM     16  C   UNL     1     -11.535 -46.197  29.481  0.00  0.00    +0.043 C 
ENDBRANCH   1  11
BRANCH   1  17
ATOM     17  O   UNL     1     -13.520 -43.931  29.899  0.00  0.00    -0.264 OA
BRANCH  17  18
ATOM     18  C   UNL     1     -14.129 -42.976  29.138  0.00  0.00    +0.243 C 
ATOM     19  C   UNL     1     -15.633 -43.133  29.340  0.00  0.00    +0.064 C 
ATOM     20  C   UNL     1     -16.180 -42.686  28.028  0.00  0.00    +0.037 C 
ATOM     21  C   UNL     1     -14.989 -42.575  27.114  0.00  0.00    +0.145 C 
ATOM     22  O   UNL     1     -13.902 -43.101  27.778  0.00  0.00    -0.330 OA
ENDBRANCH  17  18
ENDBRANCH   1  17
TORSDOF 3
