REMARK  Name = =
REMARK  7 active torsions:
REMARK  status: ('A' for Active; 'I' for Inactive)
REMARK    1  A    between atoms: P_1  and  C_11
REMARK    2  A    between atoms: P_1  and  O_17
REMARK    3  A    between atoms: O_17  and  C_18
REMARK    4  A    between atoms: C_18  and  O_23
REMARK    5  A    between atoms: O_23  and  C_24
REMARK    6  A    between atoms: C_24  and  O_26
REMARK    7  A    between atoms: O_26  and  C_27
REMARK                            x       y       z     vdW  Elec       q    Type
REMARK                         _______ _______ _______ _____ _____    ______ ____
ROOT
ATOM      1  P   UNL     1     -10.659 -44.214  30.052  0.00  0.00    +0.344 P 
ATOM      2  O   UNL     1      -9.721 -43.625  31.026  0.00  0.00    -0.137 OA
ATOM      3  O   UNL     1     -10.609 -45.534  30.829  0.00  0.00    -0.289 OA
ATOM      4  C   UNL     1      -9.546 -46.298  31.022  0.00  0.00    +0.157 C 
ATOM      5  C   UNL     1      -8.632 -46.555  29.876  0.00  0.00    +0.173 C 
ATOM      6  O   UNL     1      -7.343 -46.638  30.335  0.00  0.00    -0.351 OA
ATOM      7  C   UNL     1      -7.316 -46.536  31.694  0.00  0.00    +0.145 C 
ATOM      8  C   UNL     1      -8.654 -46.035  32.174  0.00  0.00    +0.065 C 
ATOM      9  C   UNL     1      -8.712 -45.299  29.001  0.00  0.00    +0.184 C 
ATOM     10  O   UNL     1     -10.049 -45.066  28.753  0.00  0.00    -0.287 OA
ENDROOT
BRANCH   1  11
ATOM     11  C   UNL     1     -10.694 -42.852  29.124  0.00  0.00    +0.223 C 
ATOM     12  O   UNL     1     -11.497 -42.944  27.955  0.00  0.00    -0.344 OA
ATOM     13  C   UNL     1     -12.066 -41.736  27.644  0.00  0.00    +0.143 C 
ATOM     14  C   UNL     1     -11.055 -40.653  27.894  0.00  0.00    +0.032 C 
ATOM     15  C   UNL     1      -9.666 -41.183  27.745  0.00  0.00    +0.006 C 
ATOM     16  C   UNL     1      -9.341 -42.384  28.555  0.00  0.00    +0.043 C 
ENDBRANCH   1  11
BRANCH   1  17
ATOM     17  O   UNL     1     -12.281 -44.181  30.285  0.00  0.00    -0.234 OA
BRANCH  17  18
ATOM     18  C   UNL     1     -12.695 -44.074  31.593  0.00  0.00    +0.351 C 
ATOM     19  C   UNL     1     -14.204 -44.065  31.641  0.00  0.00    +0.106 C 
ATOM     20  C   UNL     1     -14.556 -45.462  32.132  0.00  0.00    +0.041 C 
ATOM     21  C   UNL     1     -13.249 -46.189  31.866  0.00  0.00    +0.148 C 
ATOM     22  O   UNL     1     -12.322 -45.227  32.262  0.00  0.00    -0.303 OA
BRANCH  18  23
ATOM     23  O   UNL     1     -12.232 -42.909  32.232  0.00  0.00    -0.375 OA
BRANCH  23  24
ATOM     24  C   UNL     1     -12.862 -42.462  33.368  0.00  0.00    +0.522 C 
ATOM     25  O   UNL     1     -13.862 -43.030  33.893  0.00  0.00    -0.202 OA
BRANCH  24  26
ATOM     26  O   UNL     1     -12.434 -41.308  34.056  0.00  0.00    -0.353 OA
BRANCH  26  27
ATOM     27  C   UNL     1     -13.315 -40.523  34.785  0.00  0.00    +0.427 C 
ATOM     28  O   UNL     1     -14.553 -40.709  34.649  0.00  0.00    -0.237 OA
ENDBRANCH  26  27
ENDBRANCH  24  26
ENDBRANCH  23  24
ENDBRANCH  18  23
ENDBRANCH  17  18
ENDBRANCH   1  17
TORSDOF 7
