MODEL 1
REMARK VINA RESULT:    -5.992      0.000      0.000
REMARK INTER + INTRA:         -11.558
REMARK INTER:                  -8.269
REMARK INTRA:                  -3.289
REMARK UNBOUND:                -3.289
REMARK  Name = =
REMARK  7 active torsions:
REMARK  status: ('A' for Active; 'I' for Inactive)
REMARK    1  A    between atoms: C_1  and  C_19
REMARK    2  A    between atoms: C_1  and  C_29
REMARK    3  A    between atoms: C_16  and  C_24
REMARK    4  A    between atoms: C_29  and  O_31
REMARK    5  A    between atoms: O_31  and  C_32
REMARK    6  A    between atoms: C_32  and  C_34
REMARK    7  A    between atoms: C_37  and  O_40
REMARK                            x       y       z     vdW  Elec       q    Type
REMARK                         _______ _______ _______ _____ _____    ______ ____
ROOT
ATOM      1  C   UNL     1      63.994 166.358  35.018  0.00  0.00    +0.109 C 
ATOM      2  C   UNL     1      64.478 165.087  35.644  0.00  0.00    +0.013 C 
ATOM      3  C   UNL     1      63.781 164.723  36.917  0.00  0.00    +0.005 C 
ATOM      4  C   UNL     1      62.311 165.079  36.818  0.00  0.00    +0.018 C 
ATOM      5  C   UNL     1      61.951 165.089  35.369  0.00  0.00    +0.005 C 
ATOM      6  C   UNL     1      60.471 164.983  35.127  0.00  0.00    +0.005 C 
ATOM      7  C   UNL     1      59.802 163.941  35.943  0.00  0.00    +0.021 C 
ATOM      8  C   UNL     1      60.404 163.635  37.245  0.00  0.00    -0.052 C 
ATOM      9  C   UNL     1      61.547 164.148  37.653  0.00  0.00    -0.052 C 
ATOM     10  C   UNL     1      62.090 163.780  38.998  0.00  0.00    +0.021 C 
ATOM     11  C   UNL     1      60.949 163.862  39.984  0.00  0.00    +0.005 C 
ATOM     12  C   UNL     1      59.730 163.117  39.576  0.00  0.00    +0.006 C 
ATOM     13  C   UNL     1      59.692 162.701  38.149  0.00  0.00    +0.018 C 
ATOM     14  C   UNL     1      60.276 161.306  38.100  0.00  0.00    +0.004 C 
ATOM     15  C   UNL     1      60.284 160.827  39.536  0.00  0.00    +0.003 C 
ATOM     16  C   UNL     1      59.508 161.831  40.343  0.00  0.00    +0.029 C 
ATOM     17  C   UNL     1      62.506 166.364  34.768  0.00  0.00    +0.013 C 
ENDROOT
BRANCH   1  19
ATOM     18  O   UNL     1      64.766 165.307  33.035  0.00  0.00    -0.330 OA
ATOM     19  C   UNL     1      64.680 166.531  33.693  0.00  0.00    +0.242 C 
ATOM     20  O   UNL     1      65.935 167.122  33.833  0.00  0.00    -0.330 OA
ATOM     21  C   UNL     1      66.313 167.531  32.535  0.00  0.00    +0.147 C 
ATOM     22  C   UNL     1      66.529 166.274  31.723  0.00  0.00    +0.064 C 
ATOM     23  C   UNL     1      65.235 165.491  31.739  0.00  0.00    +0.147 C 
ENDBRANCH   1  19
BRANCH  16  24
ATOM     24  C   UNL     1      58.030 161.535  40.366  0.00  0.00    +0.146 C 
ATOM     25  N   UNL     1      57.859 160.208  40.951  0.00  0.00    -0.246 NA
ATOM     26  C   UNL     1      57.134 160.310  42.007  0.00  0.00    +0.194 C 
ATOM     27  N   UNL     1      56.772 161.676  42.205  0.00  0.00    -0.225 NA
ATOM     28  C   UNL     1      57.275 162.405  41.273  0.00  0.00    +0.098 C 
ENDBRANCH  16  24
BRANCH   1  29
ATOM     29  C   UNL     1      64.336 167.550  35.854  0.00  0.00    +0.166 C 
ATOM     30  S   UNL     1      65.559 167.574  36.897  0.00  0.00    -0.015 S 
BRANCH  29  31
ATOM     31  O   UNL     1      63.540 168.661  35.696  0.00  0.00    -0.418 OA
BRANCH  31  32
ATOM     32  C   UNL     1      63.033 169.293  36.817  0.00  0.00    +0.346 C 
ATOM     33  O   UNL     1      63.429 170.424  37.192  0.00  0.00    -0.244 OA
BRANCH  32  34
ATOM     34  C   UNL     1      61.992 168.613  37.597  0.00  0.00    +0.076 C 
ATOM     35  C   UNL     1      60.728 168.426  37.084  0.00  0.00    +0.010 C 
ATOM     36  C   UNL     1      59.760 167.786  37.825  0.00  0.00    +0.037 C 
ATOM     37  C   UNL     1      60.012 167.312  39.102  0.00  0.00    +0.134 C 
ATOM     38  C   UNL     1      61.282 167.519  39.578  0.00  0.00    +0.037 C 
ATOM     39  C   UNL     1      62.267 168.151  38.863  0.00  0.00    +0.010 C 
BRANCH  37  40
ATOM     40  O   UNL     1      59.024 166.670  39.834  0.00  0.00    -0.506 OA
ATOM     41  H   UNL     1      59.199 166.388  40.710  0.00  0.00    +0.292 HD
ENDBRANCH  37  40
ENDBRANCH  32  34
ENDBRANCH  31  32
ENDBRANCH  29  31
ENDBRANCH   1  29
TORSDOF 7
ENDMDL
