REMARK  Name = =
REMARK  0 active torsions:
REMARK  status: ('A' for Active; 'I' for Inactive)
REMARK                            x       y       z     vdW  Elec       q    Type
REMARK                         _______ _______ _______ _____ _____    ______ ____
ROOT
ATOM      1  C   UNL     1     -13.345 -43.448  27.327  0.00  0.00    +0.294 C 
ATOM      2  O   UNL     1     -13.710 -42.103  27.321  0.00  0.00    -0.324 OA
ATOM      3  C   UNL     1     -14.802 -42.000  26.499  0.00  0.00    +0.177 C 
ATOM      4  C   UNL     1     -14.689 -43.165  25.562  0.00  0.00    +0.177 C 
ATOM      5  O   UNL     1     -13.721 -43.984  26.114  0.00  0.00    -0.324 OA
ENDROOT
TORSDOF 0
