REMARK  Name = =
REMARK  1 active torsions:
REMARK  status: ('A' for Active; 'I' for Inactive)
REMARK    1  A    between atoms: C_1  and  C_4
REMARK                            x       y       z     vdW  Elec       q    Type
REMARK                         _______ _______ _______ _____ _____    ______ ____
ROOT
ATOM      1  C   UNL     1     -13.560 -44.041  28.381  0.00  0.00    +0.277 C 
ATOM      2  O   UNL     1     -13.080 -45.153  28.054  0.00  0.00    -0.270 OA
ATOM      3  N   UNL     1     -14.223 -43.939  29.619  0.00  0.00    -0.325 N 
ATOM      4  H   UNL     1     -14.299 -44.728  30.203  0.00  0.00    +0.145 HD
ATOM      5  H   UNL     1     -14.610 -43.079  29.901  0.00  0.00    +0.145 HD
ENDROOT
BRANCH   1   6
ATOM      6  C   UNL     1     -13.445 -42.855  27.503  0.00  0.00    +0.315 C 
ATOM      7  O   UNL     1     -13.278 -43.171  26.178  0.00  0.00    -0.321 OA
ATOM      8  C   UNL     1     -14.575 -43.240  25.642  0.00  0.00    +0.177 C 
ATOM      9  C   UNL     1     -15.495 -42.634  26.669  0.00  0.00    +0.177 C 
ATOM     10  O   UNL     1     -14.619 -42.116  27.617  0.00  0.00    -0.321 OA
ENDBRANCH   1   6
TORSDOF 1
