REMARK  Name = =
REMARK  0 active torsions:
REMARK  status: ('A' for Active; 'I' for Inactive)
REMARK                            x       y       z     vdW  Elec       q    Type
REMARK                         _______ _______ _______ _____ _____    ______ ____
ROOT
ATOM      1  C   UNL     1      52.284 156.079  28.460  0.00  0.00    +0.000 C 
ATOM      2  C   UNL     1      51.314 155.775  29.548  0.00  0.00    +0.000 C 
ATOM      3  C   UNL     1      51.887 157.175  29.363  0.00  0.00    +0.000 C 
ENDROOT
TORSDOF 0
