REMARK  Name = =
REMARK  1 active torsions:
REMARK  status: ('A' for Active; 'I' for Inactive)
REMARK    1  A    between atoms: N_1  and  N_7
REMARK                            x       y       z     vdW  Elec       q    Type
REMARK                         _______ _______ _______ _____ _____    ______ ____
ROOT
ATOM      1  N   UNL     1      51.087 159.294  29.594  0.00  0.00    -0.218 N 
ATOM      2  C   UNL     1      50.721 160.252  30.590  0.00  0.00    +0.313 C 
ATOM      3  O   UNL     1      51.593 160.642  31.407  0.00  0.00    -0.252 OA
ATOM      4  N   UNL     1      49.382 160.724  30.615  0.00  0.00    -0.312 N 
ATOM      5  H   UNL     1      50.417 158.977  28.946  0.00  0.00    +0.174 HD
ATOM      6  H   UNL     1      48.731 160.392  29.956  0.00  0.00    +0.147 HD
ATOM      7  H   UNL     1      49.105 161.383  31.292  0.00  0.00    +0.147 HD
ENDROOT
BRANCH   1  10
ATOM      8  C   UNL     1      52.695 157.482  29.160  0.00  0.00    +0.316 C 
ATOM      9  O   UNL     1      51.771 156.672  28.852  0.00  0.00    -0.264 OA
ATOM     10  N   UNL     1      52.389 158.810  29.540  0.00  0.00    -0.225 N 
ATOM     11  H   UNL     1      53.128 159.416  29.776  0.00  0.00    +0.173 HD
ENDBRANCH   1  10
TORSDOF 1
