REMARK  Name = =
REMARK  3 active torsions:
REMARK  status: ('A' for Active; 'I' for Inactive)
REMARK    1  A    between atoms: C_2  and  O_11
REMARK    2  A    between atoms: N_6  and  N_7
REMARK    3  A    between atoms: O_11  and  C_12
REMARK                            x       y       z     vdW  Elec       q    Type
REMARK                         _______ _______ _______ _____ _____    ______ ____
ROOT
ATOM      1  N   UNL     1      50.771 158.111  29.254  0.00  0.00    -0.204 N 
ATOM      2  C   UNL     1      52.423 157.905  28.697  0.00  0.00    +0.413 C 
ATOM      3  O   UNL     1      53.215 158.539  29.261  0.00  0.00    -0.226 OA
ATOM      4  C   UNL     1      51.062 158.989  30.246  0.00  0.00    +0.325 C 
ATOM      5  O   UNL     1      52.020 159.537  30.704  0.00  0.00    -0.251 OA
ATOM      6  N   UNL     1      49.746 159.334  30.949  0.00  0.00    -0.217 N 
ATOM      7  H   UNL     1      49.920 157.721  28.949  0.00  0.00    +0.163 HD
ATOM      8  H   UNL     1      48.892 158.963  30.628  0.00  0.00    +0.174 HD
ENDROOT
BRANCH   6   9
ATOM      9  N   UNL     1      49.781 160.159  32.020  0.00  0.00    -0.217 N 
ATOM     10  C   UNL     1      48.526 160.576  32.581  0.00  0.00    +0.313 C 
ATOM     11  O   UNL     1      47.472 160.151  32.030  0.00  0.00    -0.252 OA
ATOM     12  N   UNL     1      48.500 161.428  33.711  0.00  0.00    -0.312 N 
ATOM     13  H   UNL     1      50.636 160.463  32.402  0.00  0.00    +0.174 HD
ATOM     14  H   UNL     1      49.343 161.739  34.113  0.00  0.00    +0.147 HD
ATOM     15  H   UNL     1      47.639 161.710  34.095  0.00  0.00    +0.147 HD
ENDBRANCH   6   9
BRANCH   2  16
ATOM     16  O   UNL     1      52.504 157.030  27.698  0.00  0.00    -0.410 OA
BRANCH  16  17
ATOM     17  C   UNL     1      52.398 155.646  28.012  0.00  0.00    +0.150 C 
ATOM     18  C   UNL     1      52.930 154.693  27.179  0.00  0.00    +0.038 C 
ATOM     19  C   UNL     1      52.798 153.350  27.532  0.00  0.00    +0.003 C 
ATOM     20  C   UNL     1      52.144 152.990  28.700  0.00  0.00    +0.000 C 
ATOM     21  C   UNL     1      51.610 153.943  29.538  0.00  0.00    +0.003 C 
ATOM     22  C   UNL     1      51.758 155.270  29.159  0.00  0.00    +0.038 C 
ENDBRANCH  16  17
ENDBRANCH   2  16
TORSDOF 3
