REMARK  Name = =
REMARK  2 active torsions:
REMARK  status: ('A' for Active; 'I' for Inactive)
REMARK    1  A    between atoms: C_1  and  C_13
REMARK    2  A    between atoms: C_4  and  C_7
REMARK                            x       y       z     vdW  Elec       q    Type
REMARK                         _______ _______ _______ _____ _____    ______ ____
ROOT
ATOM      1  C   UNL     1      51.617 154.937  28.832  0.00  0.00    -0.023 C 
ATOM      2  C   UNL     1      52.376 153.856  29.225  0.00  0.00    -0.004 C 
ATOM      3  C   UNL     1      52.876 152.912  28.368  0.00  0.00    -0.000 C 
ATOM      4  C   UNL     1      52.602 153.053  27.023  0.00  0.00    -0.000 C 
ATOM      5  C   UNL     1      51.838 154.131  26.578  0.00  0.00    -0.000 C 
ATOM      6  C   UNL     1      51.353 155.060  27.475  0.00  0.00    -0.004 C 
ENDROOT
BRANCH   4   7
ATOM      7  C   UNL     1      53.131 152.055  26.112  0.00  0.00    -0.000 C 
ATOM      8  C   UNL     1      52.694 150.750  26.213  0.00  0.00    -0.000 C 
ATOM      9  C   UNL     1      53.199 149.791  25.340  0.00  0.00    +0.000 C 
ATOM     10  C   UNL     1      54.128 150.134  24.380  0.00  0.00    +0.000 C 
ATOM     11  C   UNL     1      54.563 151.437  24.280  0.00  0.00    +0.000 C 
ATOM     12  C   UNL     1      54.059 152.389  25.150  0.00  0.00    -0.000 C 
ENDBRANCH   4   7
BRANCH   1  13
ATOM     13  C   UNL     1      51.135 155.884  29.838  0.00  0.00    +0.022 C 
ATOM     14  C   UNL     1      50.103 156.901  29.529  0.00  0.00    +0.005 C 
ATOM     15  C   UNL     1      51.561 157.358  29.543  0.00  0.00    +0.005 C 
ENDBRANCH   1  13
TORSDOF 2
