REMARK  Name = =
REMARK  10 active torsions:
REMARK  status: ('A' for Active; 'I' for Inactive)
REMARK    1  A    between atoms: P_1  and  C_3
REMARK    2  A    between atoms: P_1  and  O_11
REMARK    3  A    between atoms: P_1  and  O_12
REMARK    4  A    between atoms: C_3  and  P_7
REMARK    5  A    between atoms: C_4  and  C_5
REMARK    6  A    between atoms: P_7  and  O_9
REMARK    7  A    between atoms: P_7  and  O_10
REMARK    8  A    between atoms: O_12  and  O_13
REMARK    9  A    between atoms: O_13  and  C_14
REMARK   10  A    between atoms: C_14  and  C_16
REMARK                            x       y       z     vdW  Elec       q    Type
REMARK                         _______ _______ _______ _____ _____    ______ ____
ROOT
ATOM      1  P   UNL     1      55.725 159.291  36.182  0.00  0.00    +0.406 P 
ATOM      2  O   UNL     1      56.245 158.240  35.242  0.00  0.00    -0.250 OA
ENDROOT
BRANCH   1   3
ATOM      3  C   UNL     1      53.980 158.896  36.491  0.00  0.00    +0.166 C 
ATOM      4  C   UNL     1      53.708 158.090  37.477  0.00  0.00    +0.060 C 
BRANCH   4   5
ATOM      5  C   UNL     1      52.355 157.712  37.806  0.00  0.00    +0.235 C 
ATOM      6  O   UNL     1      51.347 158.122  37.183  0.00  0.00    -0.283 OA
ENDBRANCH   4   5
BRANCH   3   7
ATOM      7  P   UNL     1      52.752 159.614  35.456  0.00  0.00    +0.367 P 
ATOM      8  O   UNL     1      51.823 160.505  36.270  0.00  0.00    -0.253 OA
BRANCH   7   9
ATOM      9  O   UNL     1      51.913 158.378  34.659  0.00  0.00    -0.321 OA
ATOM     10  H   UNL     1      51.476 157.810  35.313  0.00  0.00    +0.220 HD
ENDBRANCH   7   9
BRANCH   7  11
ATOM     11  O   UNL     1      53.500 160.580  34.251  0.00  0.00    -0.321 OA
ATOM     12  H   UNL     1      53.992 161.301  34.674  0.00  0.00    +0.220 HD
ENDBRANCH   7  11
ENDBRANCH   3   7
ENDBRANCH   1   3
BRANCH   1  13
ATOM     13  O   UNL     1      55.785 160.777  35.380  0.00  0.00    -0.318 OA
ATOM     14  H   UNL     1      55.325 160.704  34.529  0.00  0.00    +0.220 HD
ENDBRANCH   1  13
BRANCH   1  15
ATOM     15  O   UNL     1      56.490 159.314  37.659  0.00  0.00    -0.091 OA
BRANCH  15  16
ATOM     16  O   UNL     1      57.575 160.063  37.705  0.00  0.00    -0.283 OA
BRANCH  16  17
ATOM     17  C   UNL     1      58.441 159.952  38.779  0.00  0.00    +0.375 C 
ATOM     18  O   UNL     1      58.154 159.129  39.683  0.00  0.00    -0.242 OA
BRANCH  17  19
ATOM     19  C   UNL     1      59.658 160.746  38.897  0.00  0.00    +0.079 C 
ATOM     20  C   UNL     1      60.488 160.598  39.987  0.00  0.00    +0.007 C 
ATOM     21  C   UNL     1      61.658 161.347  40.121  0.00  0.00    +0.000 C 
ATOM     22  C   UNL     1      62.010 162.262  39.150  0.00  0.00    +0.000 C 
ATOM     23  C   UNL     1      61.194 162.418  38.061  0.00  0.00    +0.000 C 
ATOM     24  C   UNL     1      60.029 161.665  37.940  0.00  0.00    +0.007 C 
ENDBRANCH  17  19
ENDBRANCH  16  17
ENDBRANCH  15  16
ENDBRANCH   1  15
TORSDOF 10
