REMARK  Name = =
REMARK  3 active torsions:
REMARK  status: ('A' for Active; 'I' for Inactive)
REMARK    1  A    between atoms: C_1  and  C_19
REMARK    2  A    between atoms: C_2  and  C_13
REMARK    3  A    between atoms: C_4  and  C_7
REMARK                            x       y       z     vdW  Elec       q    Type
REMARK                         _______ _______ _______ _____ _____    ______ ____
ROOT
ATOM      1  C   UNL     1      52.069 152.882  27.633  0.00  0.00    -0.022 C 
ATOM      2  C   UNL     1      52.160 154.251  27.561  0.00  0.00    -0.004 C 
ATOM      3  C   UNL     1      52.885 154.871  26.527  0.00  0.00    -0.000 C 
ATOM      4  C   UNL     1      53.517 154.117  25.564  0.00  0.00    -0.000 C 
ATOM      5  C   UNL     1      53.414 152.726  25.651  0.00  0.00    -0.000 C 
ATOM      6  C   UNL     1      52.701 152.133  26.669  0.00  0.00    -0.004 C 
ENDROOT
BRANCH   4   7
ATOM      7  C   UNL     1      54.283 154.711  24.476  0.00  0.00    -0.000 C 
ATOM      8  C   UNL     1      55.005 153.963  23.560  0.00  0.00    -0.000 C 
ATOM      9  C   UNL     1      55.737 154.482  22.537  0.00  0.00    +0.000 C 
ATOM     10  C   UNL     1      55.770 155.857  22.390  0.00  0.00    +0.000 C 
ATOM     11  C   UNL     1      55.069 156.652  23.276  0.00  0.00    +0.000 C 
ATOM     12  C   UNL     1      54.331 156.084  24.309  0.00  0.00    -0.000 C 
ENDBRANCH   4   7
BRANCH   2  13
ATOM     13  C   UNL     1      51.437 155.038  28.549  0.00  0.00    -0.000 C 
ATOM     14  C   UNL     1      50.122 155.412  28.265  0.00  0.00    -0.000 C 
ATOM     15  C   UNL     1      49.357 156.130  29.155  0.00  0.00    -0.000 C 
ATOM     16  C   UNL     1      49.868 156.509  30.374  0.00  0.00    -0.000 C 
ATOM     17  C   UNL     1      51.184 156.137  30.663  0.00  0.00    -0.000 C 
ATOM     18  C   UNL     1      51.938 155.418  29.761  0.00  0.00    -0.000 C 
ENDBRANCH   2  13
BRANCH   1  19
ATOM     19  C   UNL     1      51.334 152.212  28.770  0.00  0.00    +0.022 C 
ATOM     20  C   UNL     1      50.843 150.838  28.658  0.00  0.00    +0.005 C 
ATOM     21  C   UNL     1      52.113 151.036  29.386  0.00  0.00    +0.005 C 
ENDBRANCH   1  19
TORSDOF 3
