REMARK  Name = =
REMARK  4 active torsions:
REMARK  status: ('A' for Active; 'I' for Inactive)
REMARK    1  A    between atoms: N_1  and  C_11
REMARK    2  A    between atoms: C_2  and  O_17
REMARK    3  A    between atoms: N_6  and  N_7
REMARK    4  A    between atoms: O_17  and  C_18
REMARK                            x       y       z     vdW  Elec       q    Type
REMARK                         _______ _______ _______ _____ _____    ______ ____
ROOT
ATOM      1  N   UNL     1      52.271 157.062  29.055  0.00  0.00    -0.143 N 
ATOM      2  C   UNL     1      51.488 158.119  29.661  0.00  0.00    +0.419 C 
ATOM      3  O   UNL     1      52.070 159.190  29.930  0.00  0.00    -0.225 OA
ATOM      4  C   UNL     1      51.603 155.845  28.750  0.00  0.00    +0.331 C 
ATOM      5  O   UNL     1      50.368 155.700  28.998  0.00  0.00    -0.250 OA
ATOM      6  N   UNL     1      52.258 154.742  28.164  0.00  0.00    -0.216 N 
ATOM      7  H   UNL     1      53.217 154.805  27.952  0.00  0.00    +0.174 HD
ENDROOT
BRANCH   6   8
ATOM      8  N   UNL     1      51.555 153.539  27.874  0.00  0.00    -0.217 N 
ATOM      9  C   UNL     1      52.274 152.474  27.291  0.00  0.00    +0.313 C 
ATOM     10  O   UNL     1      53.515 152.669  27.063  0.00  0.00    -0.252 OA
ATOM     11  N   UNL     1      51.678 151.226  26.960  0.00  0.00    -0.312 N 
ATOM     12  H   UNL     1      50.595 153.452  28.074  0.00  0.00    +0.174 HD
ATOM     13  H   UNL     1      50.721 151.075  27.136  0.00  0.00    +0.147 HD
ATOM     14  H   UNL     1      52.222 150.513  26.555  0.00  0.00    +0.147 HD
ENDBRANCH   6   8
BRANCH   1  15
ATOM     15  C   UNL     1      53.657 157.325  28.812  0.00  0.00    +0.260 C 
ATOM     16  O   UNL     1      53.885 158.035  27.608  0.00  0.00    -0.432 OA
ATOM     17  C   UNL     1      55.094 158.689  27.784  0.00  0.00    +0.318 C 
ATOM     18  O   UNL     1      56.003 158.813  26.900  0.00  0.00    -0.250 OA
ATOM     19  C   UNL     1      55.074 159.184  29.180  0.00  0.00    +0.115 C 
ATOM     20  C   UNL     1      54.299 158.140  29.911  0.00  0.00    +0.078 C 
ENDBRANCH   1  15
BRANCH   2  21
ATOM     21  O   UNL     1      50.148 157.998  29.952  0.00  0.00    -0.410 OA
BRANCH  21  22
ATOM     22  C   UNL     1      49.418 158.976  30.603  0.00  0.00    +0.150 C 
ATOM     23  C   UNL     1      49.397 158.965  31.990  0.00  0.00    +0.038 C 
ATOM     24  C   UNL     1      48.672 159.936  32.683  0.00  0.00    +0.003 C 
ATOM     25  C   UNL     1      47.985 160.893  32.007  0.00  0.00    +0.000 C 
ATOM     26  C   UNL     1      47.981 160.936  30.611  0.00  0.00    +0.003 C 
ATOM     27  C   UNL     1      48.702 159.969  29.971  0.00  0.00    +0.038 C 
ENDBRANCH  21  22
ENDBRANCH   2  21
TORSDOF 4
