REMARK  Name = =
REMARK  4 active torsions:
REMARK  status: ('A' for Active; 'I' for Inactive)
REMARK    1  A    between atoms: C_1  and  C_19
REMARK    2  A    between atoms: C_2  and  C_13
REMARK    3  A    between atoms: C_4  and  C_7
REMARK    4  A    between atoms: C_19  and  C_22
REMARK                            x       y       z     vdW  Elec       q    Type
REMARK                         _______ _______ _______ _____ _____    ______ ____
ROOT
ATOM      1  C   UNL     1      54.272 153.550  25.369  0.00  0.00    -0.019 C 
ATOM      2  C   UNL     1      53.518 154.532  25.937  0.00  0.00    -0.004 C 
ATOM      3  C   UNL     1      53.514 155.804  25.344  0.00  0.00    -0.000 C 
ATOM      4  C   UNL     1      54.246 156.100  24.215  0.00  0.00    -0.000 C 
ATOM      5  C   UNL     1      55.011 155.125  23.638  0.00  0.00    -0.000 C 
ATOM      6  C   UNL     1      55.007 153.883  24.221  0.00  0.00    -0.004 C 
ENDROOT
BRANCH   4   7
ATOM      7  C   UNL     1      54.217 157.434  23.623  0.00  0.00    -0.000 C 
ATOM      8  C   UNL     1      52.989 158.028  23.356  0.00  0.00    -0.000 C 
ATOM      9  C   UNL     1      53.026 159.293  22.798  0.00  0.00    +0.000 C 
ATOM     10  C   UNL     1      54.200 159.941  22.517  0.00  0.00    +0.000 C 
ATOM     11  C   UNL     1      55.405 159.313  22.800  0.00  0.00    +0.000 C 
ATOM     12  C   UNL     1      55.416 158.043  23.361  0.00  0.00    -0.000 C 
ENDBRANCH   4   7
BRANCH   2  13
ATOM     13  C   UNL     1      52.799 154.386  27.173  0.00  0.00    -0.000 C 
ATOM     14  C   UNL     1      52.486 155.520  27.906  0.00  0.00    -0.000 C 
ATOM     15  C   UNL     1      51.776 155.382  29.071  0.00  0.00    -0.000 C 
ATOM     16  C   UNL     1      51.362 154.153  29.543  0.00  0.00    -0.000 C 
ATOM     17  C   UNL     1      51.670 153.026  28.819  0.00  0.00    -0.000 C 
ATOM     18  C   UNL     1      52.383 153.163  27.646  0.00  0.00    -0.000 C 
ENDBRANCH   2  13
BRANCH   1  19
ATOM     19  C   UNL     1      54.294 152.134  25.809  0.00  0.00    +0.037 C 
ATOM     20  C   UNL     1      53.262 151.137  25.757  0.00  0.00    +0.009 C 
ATOM     21  C   UNL     1      54.130 151.199  24.552  0.00  0.00    +0.009 C 
BRANCH  19  22
ATOM     22  C   UNL     1      55.640 151.762  26.446  0.00  0.00    -0.023 C 
ATOM     23  C   UNL     1      56.740 152.408  26.081  0.00  0.00    -0.005 C 
ENDBRANCH  19  22
ENDBRANCH   1  19
TORSDOF 4
