REMARK  Name = =
REMARK  13 active torsions:
REMARK  status: ('A' for Active; 'I' for Inactive)
REMARK    1  A    between atoms: C_1  and  C_3
REMARK    2  A    between atoms: C_1  and  O_18
REMARK    3  A    between atoms: C_4  and  N_9
REMARK    4  A    between atoms: N_9  and  C_10
REMARK    5  A    between atoms: N_9  and  N_16
REMARK    6  A    between atoms: O_18  and  O_19
REMARK    7  A    between atoms: O_19  and  P_20
REMARK    8  A    between atoms: P_20  and  C_22
REMARK    9  A    between atoms: P_20  and  O_30
REMARK   10  A    between atoms: C_22  and  P_26
REMARK   11  A    between atoms: C_23  and  C_24
REMARK   12  A    between atoms: P_26  and  O_28
REMARK   13  A    between atoms: P_26  and  O_29
REMARK                            x       y       z     vdW  Elec       q    Type
REMARK                         _______ _______ _______ _____ _____    ______ ____
ROOT
ATOM      1  C   UNL     1      59.462 161.866  39.888  0.00  0.00    +0.377 C 
ATOM      2  O   UNL     1      59.429 161.240  38.809  0.00  0.00    -0.242 OA
ENDROOT
BRANCH   1   3
ATOM      3  C   UNL     1      60.675 162.323  40.547  0.00  0.00    +0.094 C 
ATOM      4  C   UNL     1      61.817 162.529  39.833  0.00  0.00    +0.075 C 
ATOM      5  C   UNL     1      62.992 163.024  40.413  0.00  0.00    +0.017 C 
ATOM      6  C   UNL     1      62.992 163.309  41.758  0.00  0.00    +0.001 C 
ATOM      7  C   UNL     1      61.829 163.099  42.491  0.00  0.00    +0.000 C 
ATOM      8  C   UNL     1      60.686 162.615  41.911  0.00  0.00    +0.008 C 
BRANCH   4   9
ATOM      9  N   UNL     1      61.880 162.188  38.456  0.00  0.00    -0.213 N 
BRANCH   9  10
ATOM     10  C   UNL     1      63.099 161.702  37.854  0.00  0.00    +0.096 C 
ATOM     11  C   UNL     1      63.591 160.419  38.439  0.00  0.00    +0.022 C 
ATOM     12  C   UNL     1      65.066 160.303  38.027  0.00  0.00    +0.002 C 
ATOM     13  C   UNL     1      65.112 160.240  36.534  0.00  0.00    +0.000 C 
ATOM     14  C   UNL     1      63.751 160.313  35.876  0.00  0.00    +0.002 C 
ATOM     15  C   UNL     1      62.973 161.545  36.354  0.00  0.00    +0.022 C 
ENDBRANCH   9  10
BRANCH   9  16
ATOM     16  N   UNL     1      60.764 162.306  37.621  0.00  0.00    -0.175 NA
ATOM     17  C   UNL     1      59.900 163.251  37.723  0.00  0.00    +0.140 C 
ENDBRANCH   9  16
ENDBRANCH   4   9
ENDBRANCH   1   3
BRANCH   1  18
ATOM     18  O   UNL     1      58.194 162.117  40.457  0.00  0.00    -0.283 OA
BRANCH  18  19
ATOM     19  O   UNL     1      57.144 162.457  39.701  0.00  0.00    -0.091 OA
BRANCH  19  20
ATOM     20  P   UNL     1      57.344 163.909  38.908  0.00  0.00    +0.406 P 
ATOM     21  O   UNL     1      57.161 163.667  37.427  0.00  0.00    -0.250 OA
BRANCH  20  22
ATOM     22  C   UNL     1      55.991 164.992  39.419  0.00  0.00    +0.166 C 
ATOM     23  C   UNL     1      54.776 164.476  39.438  0.00  0.00    +0.060 C 
BRANCH  23  24
ATOM     24  C   UNL     1      53.570 165.184  39.818  0.00  0.00    +0.235 C 
ATOM     25  O   UNL     1      53.459 166.432  39.869  0.00  0.00    -0.283 OA
ENDBRANCH  23  24
BRANCH  22  26
ATOM     26  P   UNL     1      56.260 166.670  39.877  0.00  0.00    +0.367 P 
ATOM     27  O   UNL     1      55.619 166.979  41.209  0.00  0.00    -0.253 OA
BRANCH  26  28
ATOM     28  O   UNL     1      57.910 167.025  40.041  0.00  0.00    -0.321 OA
ATOM     29  H   UNL     1      58.302 166.440  40.709  0.00  0.00    +0.220 HD
ENDBRANCH  26  28
BRANCH  26  30
ATOM     30  O   UNL     1      55.568 167.695  38.705  0.00  0.00    -0.321 OA
ATOM     31  H   UNL     1      55.967 167.512  37.840  0.00  0.00    +0.220 HD
ENDBRANCH  26  30
ENDBRANCH  22  26
ENDBRANCH  20  22
BRANCH  20  32
ATOM     32  O   UNL     1      58.840 164.621  39.223  0.00  0.00    -0.318 OA
ATOM     33  H   UNL     1      58.907 165.460  38.740  0.00  0.00    +0.220 HD
ENDBRANCH  20  32
ENDBRANCH  19  20
ENDBRANCH  18  19
ENDBRANCH   1  18
TORSDOF 13
