REMARK  Name = =
REMARK  5 active torsions:
REMARK  status: ('A' for Active; 'I' for Inactive)
REMARK    1  A    between atoms: C_1  and  C_30
REMARK    2  A    between atoms: C_2  and  C_24
REMARK    3  A    between atoms: C_4  and  C_7
REMARK    4  A    between atoms: C_11  and  N_13
REMARK    5  A    between atoms: C_30  and  C_33
REMARK                            x       y       z     vdW  Elec       q    Type
REMARK                         _______ _______ _______ _____ _____    ______ ____
ROOT
ATOM      1  C   UNL     1      54.054 155.164  25.044  0.00  0.00    -0.019 C 
ATOM      2  C   UNL     1      53.601 154.173  25.881  0.00  0.00    -0.004 C 
ATOM      3  C   UNL     1      52.884 154.528  27.024  0.00  0.00    -0.000 C 
ATOM      4  C   UNL     1      52.598 155.821  27.376  0.00  0.00    +0.000 C 
ATOM      5  C   UNL     1      53.056 156.809  26.533  0.00  0.00    -0.000 C 
ATOM      6  C   UNL     1      53.778 156.482  25.377  0.00  0.00    -0.004 C 
ENDROOT
BRANCH   4   7
ATOM      7  C   UNL     1      51.838 156.160  28.587  0.00  0.00    +0.001 C 
ATOM      8  C   UNL     1      51.313 155.195  29.415  0.00  0.00    +0.000 C 
ATOM      9  C   UNL     1      50.603 155.485  30.554  0.00  0.00    +0.001 C 
ATOM     10  C   UNL     1      50.413 156.810  30.877  0.00  0.00    +0.015 C 
ATOM     11  C   UNL     1      50.915 157.846  30.087  0.00  0.00    +0.058 C 
ATOM     12  C   UNL     1      51.615 157.466  28.962  0.00  0.00    +0.015 C 
BRANCH  11  13
ATOM     13  N   UNL     1      50.719 159.212  30.425  0.00  0.00    -0.234 N 
ATOM     14  C   UNL     1      49.474 159.632  30.687  0.00  0.00    +0.058 C 
ATOM     15  C   UNL     1      49.265 160.961  31.016  0.00  0.00    +0.014 C 
ATOM     16  C   UNL     1      47.979 161.383  31.283  0.00  0.00    +0.001 C 
ATOM     17  C   UNL     1      46.934 160.513  31.226  0.00  0.00    +0.000 C 
ATOM     18  C   UNL     1      47.097 159.174  30.901  0.00  0.00    +0.001 C 
ATOM     19  C   UNL     1      48.392 158.769  30.636  0.00  0.00    +0.015 C 
ATOM     20  C   UNL     1      50.345 161.826  31.067  0.00  0.00    +0.006 C 
ATOM     21  C   UNL     1      51.602 161.344  30.790  0.00  0.00    +0.059 C 
ATOM     22  C   UNL     1      51.790 160.019  30.465  0.00  0.00    +0.257 C 
ATOM     23  O   UNL     1      52.944 159.576  30.210  0.00  0.00    -0.269 OA
ENDBRANCH  11  13
ENDBRANCH   4   7
BRANCH   2  24
ATOM     24  C   UNL     1      53.885 152.777  25.575  0.00  0.00    -0.000 C 
ATOM     25  C   UNL     1      55.022 152.113  25.924  0.00  0.00    -0.000 C 
ATOM     26  C   UNL     1      55.212 150.785  25.575  0.00  0.00    -0.000 C 
ATOM     27  C   UNL     1      54.258 150.087  24.863  0.00  0.00    -0.000 C 
ATOM     28  C   UNL     1      53.083 150.744  24.494  0.00  0.00    -0.000 C 
ATOM     29  C   UNL     1      52.935 152.053  24.858  0.00  0.00    -0.000 C 
ENDBRANCH   2  24
BRANCH   1  30
ATOM     30  C   UNL     1      54.825 154.911  23.799  0.00  0.00    +0.037 C 
ATOM     31  C   UNL     1      54.074 154.914  22.514  0.00  0.00    +0.009 C 
ATOM     32  C   UNL     1      54.976 156.085  22.859  0.00  0.00    +0.009 C 
BRANCH  30  33
ATOM     33  C   UNL     1      55.974 154.010  23.957  0.00  0.00    -0.023 C 
ATOM     34  C   UNL     1      56.365 153.146  23.038  0.00  0.00    -0.005 C 
ENDBRANCH  30  33
ENDBRANCH   1  30
TORSDOF 5
