REMARK  Name = =
REMARK  16 active torsions:
REMARK  status: ('A' for Active; 'I' for Inactive)
REMARK    1  A    between atoms: C_1  and  C_7
REMARK    2  A    between atoms: C_2  and  N_22
REMARK    3  A    between atoms: C_7  and  O_9
REMARK    4  A    between atoms: O_9  and  O_10
REMARK    5  A    between atoms: O_10  and  P_11
REMARK    6  A    between atoms: P_11  and  O_13
REMARK    7  A    between atoms: P_11  and  C_14
REMARK    8  A    between atoms: C_14  and  P_18
REMARK    9  A    between atoms: C_15  and  C_16
REMARK   10  A    between atoms: P_18  and  O_20
REMARK   11  A    between atoms: P_18  and  O_21
REMARK   12  A    between atoms: N_22  and  C_23
REMARK   13  A    between atoms: N_22  and  N_39
REMARK   14  A    between atoms: C_23  and  C_29
REMARK   15  A    between atoms: C_31  and  C_35
REMARK   16  A    between atoms: C_32  and  O_38
REMARK                            x       y       z     vdW  Elec       q    Type
REMARK                         _______ _______ _______ _____ _____    ______ ____
ROOT
ATOM      1  C   UNL     1      58.563 163.140  39.134  0.00  0.00    +0.094 C 
ATOM      2  C   UNL     1      57.744 164.051  39.729  0.00  0.00    +0.076 C 
ATOM      3  C   UNL     1      56.824 163.610  40.682  0.00  0.00    +0.017 C 
ATOM      4  C   UNL     1      56.729 162.292  41.040  0.00  0.00    +0.001 C 
ATOM      5  C   UNL     1      57.540 161.351  40.466  0.00  0.00    +0.000 C 
ATOM      6  C   UNL     1      58.419 161.789  39.546  0.00  0.00    +0.008 C 
ENDROOT
BRANCH   1   7
ATOM      7  C   UNL     1      59.478 163.382  38.034  0.00  0.00    +0.377 C 
ATOM      8  O   UNL     1      59.311 163.925  36.979  0.00  0.00    -0.242 OA
BRANCH   7   9
ATOM      9  O   UNL     1      60.813 162.907  38.217  0.00  0.00    -0.283 OA
BRANCH   9  10
ATOM     10  O   UNL     1      61.685 163.089  37.180  0.00  0.00    -0.091 OA
BRANCH  10  11
ATOM     11  P   UNL     1      63.213 162.515  37.705  0.00  0.00    +0.406 P 
ATOM     12  O   UNL     1      63.060 161.322  38.611  0.00  0.00    -0.250 OA
BRANCH  11  13
ATOM     13  C   UNL     1      63.968 163.828  38.708  0.00  0.00    +0.166 C 
ATOM     14  C   UNL     1      63.793 163.806  40.002  0.00  0.00    +0.060 C 
BRANCH  13  15
ATOM     15  P   UNL     1      64.891 165.108  37.909  0.00  0.00    +0.367 P 
ATOM     16  O   UNL     1      65.338 164.649  36.504  0.00  0.00    -0.253 OA
BRANCH  15  17
ATOM     17  O   UNL     1      66.238 165.524  38.811  0.00  0.00    -0.321 OA
ATOM     18  H   UNL     1      66.790 164.738  38.949  0.00  0.00    +0.220 HD
ENDBRANCH  15  17
BRANCH  15  19
ATOM     19  O   UNL     1      63.875 166.448  37.630  0.00  0.00    -0.321 OA
ATOM     20  H   UNL     1      63.553 166.792  38.478  0.00  0.00    +0.220 HD
ENDBRANCH  15  19
ENDBRANCH  13  15
BRANCH  14  21
ATOM     21  C   UNL     1      64.315 164.794  40.910  0.00  0.00    +0.235 C 
ATOM     22  O   UNL     1      64.058 164.654  42.154  0.00  0.00    -0.283 OA
ENDBRANCH  14  21
ENDBRANCH  11  13
BRANCH  11  23
ATOM     23  O   UNL     1      64.166 162.105  36.402  0.00  0.00    -0.318 OA
ATOM     24  H   UNL     1      63.732 161.404  35.892  0.00  0.00    +0.220 HD
ENDBRANCH  11  23
ENDBRANCH  10  11
ENDBRANCH   9  10
ENDBRANCH   7   9
ENDBRANCH   1   7
BRANCH   2  25
ATOM     25  N   UNL     1      57.844 165.463  39.490  0.00  0.00    -0.211 N 
BRANCH  25  26
ATOM     26  C   UNL     1      57.952 166.376  40.647  0.00  0.00    +0.098 C 
ATOM     27  C   UNL     1      58.203 167.816  40.090  0.00  0.00    +0.024 C 
ATOM     28  C   UNL     1      58.158 168.685  41.372  0.00  0.00    +0.002 C 
ATOM     29  C   UNL     1      59.462 168.501  42.094  0.00  0.00    +0.000 C 
ATOM     30  C   UNL     1      60.125 167.234  41.636  0.00  0.00    +0.002 C 
ATOM     31  C   UNL     1      59.060 166.129  41.552  0.00  0.00    +0.024 C 
BRANCH  26  32
ATOM     32  C   UNL     1      56.594 166.529  41.221  0.00  0.00    -0.004 C 
ATOM     33  C   UNL     1      55.519 166.697  40.340  0.00  0.00    +0.005 C 
ATOM     34  C   UNL     1      54.230 166.907  40.755  0.00  0.00    +0.086 C 
ATOM     35  C   UNL     1      53.985 166.953  42.110  0.00  0.00    +0.138 C 
ATOM     36  C   UNL     1      55.002 166.793  43.005  0.00  0.00    +0.036 C 
ATOM     37  C   UNL     1      56.293 166.583  42.554  0.00  0.00    +0.000 C 
BRANCH  34  38
ATOM     38  C   UNL     1      53.231 167.110  39.744  0.00  0.00    +0.246 C 
ATOM     39  O   UNL     1      53.555 166.987  38.504  0.00  0.00    -0.270 OA
ATOM     40  N   UNL     1      51.912 167.443  40.015  0.00  0.00    -0.325 N 
ATOM     41  H   UNL     1      51.613 167.549  40.947  0.00  0.00    +0.145 HD
ATOM     42  H   UNL     1      51.275 167.573  39.276  0.00  0.00    +0.145 HD
ENDBRANCH  34  38
BRANCH  35  43
ATOM     43  O   UNL     1      52.700 167.162  42.565  0.00  0.00    -0.505 OA
ATOM     44  H   UNL     1      51.999 167.272  41.954  0.00  0.00    +0.292 HD
ENDBRANCH  35  43
ENDBRANCH  26  32
ENDBRANCH  25  26
BRANCH  25  45
ATOM     45  N   UNL     1      57.808 166.057  38.286  0.00  0.00    -0.175 NA
ATOM     46  C   UNL     1      58.482 166.874  37.616  0.00  0.00    +0.140 C 
ENDBRANCH  25  45
ENDBRANCH   2  25
TORSDOF 16
