REMARK  Name = =
REMARK  6 active torsions:
REMARK  status: ('A' for Active; 'I' for Inactive)
REMARK    1  A    between atoms: C_1  and  C_30
REMARK    2  A    between atoms: C_2  and  C_24
REMARK    3  A    between atoms: C_4  and  C_7
REMARK    4  A    between atoms: C_11  and  N_13
REMARK    5  A    between atoms: C_30  and  C_33
REMARK    6  A    between atoms: C_33  and  S_35
REMARK                            x       y       z     vdW  Elec       q    Type
REMARK                         _______ _______ _______ _____ _____    ______ ____
ROOT
ATOM      1  C   UNL     1      53.895 155.771  25.842  0.00  0.00    -0.019 C 
ATOM      2  C   UNL     1      53.363 154.719  26.515  0.00  0.00    -0.004 C 
ATOM      3  C   UNL     1      52.524 154.937  27.635  0.00  0.00    -0.000 C 
ATOM      4  C   UNL     1      52.221 156.196  28.083  0.00  0.00    +0.000 C 
ATOM      5  C   UNL     1      52.767 157.252  27.394  0.00  0.00    -0.000 C 
ATOM      6  C   UNL     1      53.593 157.065  26.289  0.00  0.00    -0.004 C 
ENDROOT
BRANCH   4   7
ATOM      7  C   UNL     1      51.354 156.352  29.241  0.00  0.00    +0.001 C 
ATOM      8  C   UNL     1      51.184 155.374  30.198  0.00  0.00    +0.000 C 
ATOM      9  C   UNL     1      50.360 155.546  31.287  0.00  0.00    +0.001 C 
ATOM     10  C   UNL     1      49.688 156.742  31.410  0.00  0.00    +0.015 C 
ATOM     11  C   UNL     1      49.820 157.770  30.474  0.00  0.00    +0.058 C 
ATOM     12  C   UNL     1      50.653 157.537  29.416  0.00  0.00    +0.015 C 
BRANCH  11  13
ATOM     13  N   UNL     1      49.091 158.974  30.677  0.00  0.00    -0.234 N 
ATOM     14  C   UNL     1      49.729 160.034  31.196  0.00  0.00    +0.058 C 
ATOM     15  C   UNL     1      49.038 161.232  31.407  0.00  0.00    +0.014 C 
ATOM     16  C   UNL     1      49.715 162.289  31.936  0.00  0.00    +0.001 C 
ATOM     17  C   UNL     1      51.046 162.220  32.267  0.00  0.00    +0.000 C 
ATOM     18  C   UNL     1      51.705 161.025  32.049  0.00  0.00    +0.001 C 
ATOM     19  C   UNL     1      51.064 159.914  31.512  0.00  0.00    +0.015 C 
ATOM     20  C   UNL     1      47.706 161.334  31.086  0.00  0.00    +0.006 C 
ATOM     21  C   UNL     1      47.061 160.252  30.558  0.00  0.00    +0.059 C 
ATOM     22  C   UNL     1      47.783 159.078  30.364  0.00  0.00    +0.257 C 
ATOM     23  O   UNL     1      47.168 158.100  29.878  0.00  0.00    -0.269 OA
ENDBRANCH  11  13
ENDBRANCH   4   7
BRANCH   2  24
ATOM     24  C   UNL     1      53.676 153.345  26.156  0.00  0.00    -0.000 C 
ATOM     25  C   UNL     1      54.951 152.841  26.110  0.00  0.00    -0.000 C 
ATOM     26  C   UNL     1      55.191 151.512  25.744  0.00  0.00    -0.000 C 
ATOM     27  C   UNL     1      54.157 150.666  25.420  0.00  0.00    -0.000 C 
ATOM     28  C   UNL     1      52.878 151.172  25.467  0.00  0.00    -0.000 C 
ATOM     29  C   UNL     1      52.643 152.494  25.831  0.00  0.00    -0.000 C 
ENDBRANCH   2  24
BRANCH   1  30
ATOM     30  C   UNL     1      54.717 155.565  24.619  0.00  0.00    +0.043 C 
ATOM     31  C   UNL     1      55.250 156.829  23.982  0.00  0.00    +0.009 C 
ATOM     32  C   UNL     1      56.163 155.778  24.574  0.00  0.00    +0.009 C 
BRANCH  30  33
ATOM     33  C   UNL     1      54.040 154.673  23.630  0.00  0.00    +0.002 C 
ATOM     34  C   UNL     1      54.738 153.808  22.940  0.00  0.00    +0.002 C 
BRANCH  33  35
ATOM     35  S   UNL     1      52.283 154.851  23.410  0.00  0.00    -0.145 S 
ATOM     36  H   UNL     1      51.816 155.815  24.249  0.00  0.00    +0.107 HD
ENDBRANCH  33  35
ENDBRANCH  30  33
ENDBRANCH   1  30
TORSDOF 6
