REMARK  Name = =
REMARK  8 active torsions:
REMARK  status: ('A' for Active; 'I' for Inactive)
REMARK    1  A    between atoms: C_1  and  C_30
REMARK    2  A    between atoms: C_2  and  C_24
REMARK    3  A    between atoms: C_4  and  C_7
REMARK    4  A    between atoms: C_11  and  N_13
REMARK    5  A    between atoms: C_30  and  C_33
REMARK    6  A    between atoms: C_33  and  S_35
REMARK    7  A    between atoms: S_35  and  S_36
REMARK    8  A    between atoms: S_36  and  C_37
REMARK                            x       y       z     vdW  Elec       q    Type
REMARK                         _______ _______ _______ _____ _____    ______ ____
ROOT
ATOM      1  C   UNL     1      54.077 153.684  25.768  0.00  0.00    -0.019 C 
ATOM      2  C   UNL     1      53.021 152.999  26.275  0.00  0.00    -0.004 C 
ATOM      3  C   UNL     1      52.092 153.635  27.111  0.00  0.00    -0.000 C 
ATOM      4  C   UNL     1      52.189 154.945  27.466  0.00  0.00    +0.000 C 
ATOM      5  C   UNL     1      53.269 155.648  26.948  0.00  0.00    -0.000 C 
ATOM      6  C   UNL     1      54.203 155.055  26.117  0.00  0.00    -0.004 C 
ENDROOT
BRANCH   4   7
ATOM      7  C   UNL     1      51.327 155.562  28.450  0.00  0.00    +0.001 C 
ATOM      8  C   UNL     1      50.213 155.010  28.935  0.00  0.00    +0.000 C 
ATOM      9  C   UNL     1      49.352 155.557  29.895  0.00  0.00    +0.001 C 
ATOM     10  C   UNL     1      49.771 156.855  30.363  0.00  0.00    +0.015 C 
ATOM     11  C   UNL     1      50.845 157.408  29.900  0.00  0.00    +0.058 C 
ATOM     12  C   UNL     1      51.702 156.842  28.934  0.00  0.00    +0.015 C 
BRANCH  11  13
ATOM     13  N   UNL     1      51.234 158.763  30.279  0.00  0.00    -0.234 N 
ATOM     14  C   UNL     1      50.265 159.560  30.803  0.00  0.00    +0.058 C 
ATOM     15  C   UNL     1      50.514 160.899  31.093  0.00  0.00    +0.014 C 
ATOM     16  C   UNL     1      49.501 161.689  31.634  0.00  0.00    +0.001 C 
ATOM     17  C   UNL     1      48.258 161.192  31.896  0.00  0.00    +0.000 C 
ATOM     18  C   UNL     1      47.987 159.852  31.615  0.00  0.00    +0.001 C 
ATOM     19  C   UNL     1      49.002 159.089  31.077  0.00  0.00    +0.015 C 
ATOM     20  C   UNL     1      51.758 161.442  30.857  0.00  0.00    +0.006 C 
ATOM     21  C   UNL     1      52.726 160.619  30.333  0.00  0.00    +0.059 C 
ATOM     22  C   UNL     1      52.410 159.289  30.061  0.00  0.00    +0.257 C 
ATOM     23  O   UNL     1      53.355 158.572  29.579  0.00  0.00    -0.269 OA
ENDBRANCH  11  13
ENDBRANCH   4   7
BRANCH   2  24
ATOM     24  C   UNL     1      52.956 151.563  26.108  0.00  0.00    -0.000 C 
ATOM     25  C   UNL     1      51.957 150.922  26.830  0.00  0.00    -0.000 C 
ATOM     26  C   UNL     1      51.771 149.583  26.782  0.00  0.00    -0.000 C 
ATOM     27  C   UNL     1      52.615 148.802  25.977  0.00  0.00    -0.000 C 
ATOM     28  C   UNL     1      53.628 149.433  25.243  0.00  0.00    -0.000 C 
ATOM     29  C   UNL     1      53.764 150.798  25.334  0.00  0.00    -0.000 C 
ENDBRANCH   2  24
BRANCH   1  30
ATOM     30  C   UNL     1      55.015 153.249  24.747  0.00  0.00    +0.044 C 
ATOM     31  C   UNL     1      56.504 153.344  25.162  0.00  0.00    +0.009 C 
ATOM     32  C   UNL     1      55.825 152.014  24.871  0.00  0.00    +0.009 C 
BRANCH  30  33
ATOM     33  C   UNL     1      54.748 153.680  23.352  0.00  0.00    +0.016 C 
ATOM     34  C   UNL     1      54.050 153.114  22.403  0.00  0.00    +0.003 C 
BRANCH  33  35
ATOM     35  S   UNL     1      55.611 155.250  22.902  0.00  0.00    -0.058 S 
BRANCH  35  36
ATOM     36  S   UNL     1      54.987 156.896  23.984  0.00  0.00    -0.057 S 
BRANCH  36  37
ATOM     37  C   UNL     1      54.503 158.193  23.203  0.00  0.00    +0.177 C 
ATOM     38  N   UNL     1      54.120 159.262  22.546  0.00  0.00    -0.118 NA
ENDBRANCH  36  37
ENDBRANCH  35  36
ENDBRANCH  33  35
ENDBRANCH  30  33
ENDBRANCH   1  30
TORSDOF 8
