REMARK  Name = =
REMARK  0 active torsions:
REMARK  status: ('A' for Active; 'I' for Inactive)
REMARK                            x       y       z     vdW  Elec       q    Type
REMARK                         _______ _______ _______ _____ _____    ______ ____
ROOT
ATOM      1  N   UNL     1     -13.781 -42.416  27.656  0.00  0.00    -0.215 NA
ATOM      2  C   UNL     1     -13.075 -43.425  26.896  0.00  0.00    +0.108 C 
ATOM      3  C   UNL     1     -13.864 -44.061  25.827  0.00  0.00    +0.108 C 
ATOM      4  N   UNL     1     -14.909 -43.319  25.248  0.00  0.00    -0.215 NA
ATOM      5  C   UNL     1     -15.401 -42.204  25.959  0.00  0.00    +0.108 C 
ATOM      6  C   UNL     1     -14.246 -41.459  26.641  0.00  0.00    +0.108 C 
ENDROOT
TORSDOF 0
