MODEL 1
REMARK VINA RESULT:    -7.018      0.000      0.000
REMARK INTER + INTRA:         -12.326
REMARK INTER:                  -9.890
REMARK INTRA:                  -2.435
REMARK UNBOUND:                -2.435
REMARK  Name = =
REMARK  8 active torsions:
REMARK  status: ('A' for Active; 'I' for Inactive)
REMARK    1  A    between atoms: C_1  and  C_24
REMARK    2  A    between atoms: C_2  and  C_6
REMARK    3  A    between atoms: C_4  and  S_38
REMARK    4  A    between atoms: C_8  and  N_12
REMARK    5  A    between atoms: N_12  and  C_15
REMARK    6  A    between atoms: C_18  and  C_21
REMARK    7  A    between atoms: C_21  and  O_23
REMARK    8  A    between atoms: C_25  and  N_30
REMARK                            x       y       z     vdW  Elec       q    Type
REMARK                         _______ _______ _______ _____ _____    ______ ____
ROOT
ATOM      1  C   UNL     1      58.719 160.913  41.271  0.00  0.00    +0.077 A 
ATOM      2  C   UNL     1      58.271 162.226  41.317  0.00  0.00    +0.099 A 
ATOM      3  N   UNL     1      56.935 162.156  41.347  0.00  0.00    -0.222 NA
ATOM      4  C   UNL     1      56.540 160.886  41.322  0.00  0.00    +0.164 A 
ATOM      5  N   UNL     1      57.638 160.110  41.274  0.00  0.00    -0.333 N 
ATOM      6  H   UNL     1      57.649 159.125  41.245  0.00  0.00    +0.168 HD
ENDROOT
BRANCH   2   7
ATOM      7  C   UNL     1      59.086 163.433  41.327  0.00  0.00    +0.020 C 
ATOM      8  C   UNL     1      59.092 164.363  40.313  0.00  0.00    +0.017 C 
ATOM      9  C   UNL     1      59.864 165.502  40.322  0.00  0.00    +0.059 C 
ATOM     10  C   UNL     1      60.689 165.721  41.431  0.00  0.00    +0.015 C 
ATOM     11  C   UNL     1      60.709 164.812  42.463  0.00  0.00    +0.001 C 
ATOM     12  C   UNL     1      59.904 163.670  42.406  0.00  0.00    +0.002 C 
BRANCH   9  13
ATOM     13  N   UNL     1      59.868 166.456  39.262  0.00  0.00    -0.230 N 
ATOM     14  C   UNL     1      59.161 167.679  39.408  0.00  0.00    +0.311 C 
ATOM     15  O   UNL     1      59.163 168.539  38.468  0.00  0.00    -0.264 OA
BRANCH  13  16
ATOM     16  C   UNL     1      60.560 166.210  38.069  0.00  0.00    +0.059 C 
ATOM     17  C   UNL     1      59.953 165.887  36.874  0.00  0.00    +0.015 C 
ATOM     18  C   UNL     1      60.668 165.655  35.719  0.00  0.00    +0.008 C 
ATOM     19  C   UNL     1      62.037 165.746  35.748  0.00  0.00    +0.076 C 
ATOM     20  C   UNL     1      62.681 166.065  36.923  0.00  0.00    +0.008 C 
ATOM     21  C   UNL     1      61.935 166.295  38.072  0.00  0.00    +0.015 C 
BRANCH  19  22
ATOM     22  C   UNL     1      62.845 165.506  34.556  0.00  0.00    +0.338 C 
ATOM     23  O   UNL     1      64.046 165.251  34.679  0.00  0.00    -0.245 OA
BRANCH  22  24
ATOM     24  O   UNL     1      62.291 165.553  33.277  0.00  0.00    -0.477 OA
ATOM     25  H   UNL     1      62.536 166.236  32.685  0.00  0.00    +0.295 HD
ENDBRANCH  22  24
ENDBRANCH  19  22
ENDBRANCH  13  16
ENDBRANCH   9  13
ENDBRANCH   2   7
BRANCH   1  26
ATOM     26  C   UNL     1      60.115 160.550  41.228  0.00  0.00    +0.031 C 
ATOM     27  C   UNL     1      60.781 160.470  40.047  0.00  0.00    +0.061 C 
ATOM     28  C   UNL     1      62.136 160.104  40.011  0.00  0.00    +0.015 C 
ATOM     29  C   UNL     1      62.797 159.827  41.172  0.00  0.00    +0.001 C 
ATOM     30  C   UNL     1      62.121 159.909  42.379  0.00  0.00    +0.000 C 
ATOM     31  C   UNL     1      60.781 160.270  42.392  0.00  0.00    +0.003 C 
BRANCH  27  32
ATOM     32  N   UNL     1      60.123 160.757  38.831  0.00  0.00    -0.220 N 
ATOM     33  C   UNL     1      60.309 161.961  38.266  0.00  0.00    +0.078 C 
ATOM     34  C   UNL     1      59.696 162.322  37.079  0.00  0.00    +0.075 C 
ATOM     35  C   UNL     1      58.865 161.419  36.450  0.00  0.00    +0.254 C 
ATOM     36  O   UNL     1      58.288 161.721  35.359  0.00  0.00    -0.270 OA
ATOM     37  N   UNL     1      58.700 160.224  37.045  0.00  0.00    -0.235 N 
ATOM     38  C   UNL     1      59.305 159.897  38.196  0.00  0.00    +0.318 C 
ATOM     39  O   UNL     1      59.101 158.763  38.687  0.00  0.00    -0.251 OA
ATOM     40  H   UNL     1      58.109 159.561  36.618  0.00  0.00    +0.159 HD
ENDBRANCH  27  32
ENDBRANCH   1  26
BRANCH   4  41
ATOM     41  S   UNL     1      54.839 160.299  41.346  0.00  0.00    -0.105 S 
ATOM     42  H   UNL     1      54.376 160.195  40.071  0.00  0.00    +0.110 HD
ENDBRANCH   4  41
TORSDOF 8
ENDMDL
