REMARK  Name = =
REMARK  0 active torsions:
REMARK  status: ('A' for Active; 'I' for Inactive)
REMARK                            x       y       z     vdW  Elec       q    Type
REMARK                         _______ _______ _______ _____ _____    ______ ____
ROOT
ATOM      1  N   UNL     1      53.022 157.005  27.101  0.00  0.00    -0.263 NA
ATOM      2  C   UNL     1      53.472 156.141  26.221  0.00  0.00    +0.076 C 
ATOM      3  C   UNL     1      53.124 154.862  26.604  0.00  0.00    +0.015 C 
ATOM      4  C   UNL     1      52.443 154.894  27.738  0.00  0.00    +0.005 C 
ATOM      5  C   UNL     1      52.338 156.293  28.128  0.00  0.00    +0.147 C 
ATOM      6  C   UNL     1      51.701 156.656  29.242  0.00  0.00    +0.002 C 
ATOM      7  C   UNL     1      51.081 155.665  30.116  0.00  0.00    -0.002 C 
ATOM      8  C   UNL     1      51.224 154.270  29.666  0.00  0.00    -0.001 C 
ATOM      9  C   UNL     1      51.839 153.883  28.587  0.00  0.00    -0.002 C 
ATOM     10  C   UNL     1      53.519 153.815  25.786  0.00  0.00    +0.001 C 
ATOM     11  C   UNL     1      54.237 154.030  24.629  0.00  0.00    +0.000 C 
ATOM     12  C   UNL     1      54.577 155.315  24.261  0.00  0.00    +0.002 C 
ATOM     13  C   UNL     1      54.190 156.364  25.063  0.00  0.00    +0.019 C 
ENDROOT
TORSDOF 0
