REMARK  Name = =
REMARK  1 active torsions:
REMARK  status: ('A' for Active; 'I' for Inactive)
REMARK    1  A    between atoms: C_15  and  O_22
REMARK                            x       y       z     vdW  Elec       q    Type
REMARK                         _______ _______ _______ _____ _____    ______ ____
ROOT
ATOM      1  C   UNL     1      52.453 155.633  28.607  0.00  0.00    +0.183 C 
ATOM      2  C   UNL     1      51.260 154.952  28.607  0.00  0.00    +0.083 C 
ATOM      3  C   UNL     1      50.144 155.590  29.110  0.00  0.00    +0.202 C 
ATOM      4  O   UNL     1      49.041 155.026  29.138  0.00  0.00    -0.286 OA
ATOM      5  C   UNL     1      50.288 156.877  29.584  0.00  0.00    +0.074 C 
ATOM      6  C   UNL     1      51.511 157.519  29.561  0.00  0.00    +0.152 C 
ATOM      7  C   UNL     1      51.682 158.815  30.032  0.00  0.00    +0.077 C 
ATOM      8  C   UNL     1      50.589 159.505  30.551  0.00  0.00    +0.045 C 
ATOM      9  C   UNL     1      49.353 158.883  30.585  0.00  0.00    +0.004 C 
ATOM     10  C   UNL     1      49.223 157.595  30.108  0.00  0.00    +0.006 C 
ATOM     11  C   UNL     1      50.749 160.872  31.054  0.00  0.00    +0.196 C 
ATOM     12  O   UNL     1      49.792 161.525  31.527  0.00  0.00    -0.287 OA
ATOM     13  C   UNL     1      52.084 161.504  31.001  0.00  0.00    +0.045 C 
ATOM     14  C   UNL     1      53.173 160.830  30.490  0.00  0.00    +0.076 C 
ATOM     15  C   UNL     1      54.407 161.433  30.449  0.00  0.00    +0.137 C 
ATOM     16  C   UNL     1      54.598 162.720  30.913  0.00  0.00    +0.037 C 
ATOM     17  C   UNL     1      53.511 163.421  31.434  0.00  0.00    +0.003 C 
ATOM     18  C   UNL     1      52.284 162.788  31.461  0.00  0.00    +0.003 C 
ATOM     19  C   UNL     1      52.976 159.486  30.006  0.00  0.00    +0.202 C 
ATOM     20  O   UNL     1      53.989 158.882  29.539  0.00  0.00    -0.286 OA
ATOM     21  O   UNL     1      52.533 156.858  29.070  0.00  0.00    -0.450 OA
ENDROOT
BRANCH  15  22
ATOM     22  O   UNL     1      55.485 160.709  29.921  0.00  0.00    -0.505 OA
ATOM     23  H   UNL     1      55.354 159.836  29.607  0.00  0.00    +0.292 HD
ENDBRANCH  15  22
TORSDOF 1
