REMARK  Name = =
REMARK  2 active torsions:
REMARK  status: ('A' for Active; 'I' for Inactive)
REMARK    1  A    between atoms: C_15  and  O_28
REMARK    2  A    between atoms: C_17  and  C_22
REMARK                            x       y       z     vdW  Elec       q    Type
REMARK                         _______ _______ _______ _____ _____    ______ ____
ROOT
ATOM      1  C   UNL     1      54.462 152.777  25.213  0.00  0.00    +0.183 C 
ATOM      2  C   UNL     1      53.625 151.684  25.097  0.00  0.00    +0.083 C 
ATOM      3  C   UNL     1      52.428 151.683  25.767  0.00  0.00    +0.202 C 
ATOM      4  O   UNL     1      51.639 150.712  25.689  0.00  0.00    -0.286 OA
ATOM      5  C   UNL     1      52.102 152.780  26.538  0.00  0.00    +0.074 C 
ATOM      6  C   UNL     1      52.984 153.849  26.617  0.00  0.00    +0.152 C 
ATOM      7  C   UNL     1      52.674 154.961  27.387  0.00  0.00    +0.077 C 
ATOM      8  C   UNL     1      51.491 155.036  28.091  0.00  0.00    +0.045 C 
ATOM      9  C   UNL     1      50.634 153.958  27.993  0.00  0.00    +0.004 C 
ATOM     10  C   UNL     1      50.915 152.836  27.234  0.00  0.00    +0.006 C 
ATOM     11  C   UNL     1      51.184 156.214  28.894  0.00  0.00    +0.196 C 
ATOM     12  O   UNL     1      50.095 156.271  29.535  0.00  0.00    -0.287 OA
ATOM     13  C   UNL     1      52.092 157.351  28.995  0.00  0.00    +0.045 C 
ATOM     14  C   UNL     1      53.273 157.274  28.290  0.00  0.00    +0.076 C 
ATOM     15  C   UNL     1      54.114 158.363  28.403  0.00  0.00    +0.137 C 
ATOM     16  C   UNL     1      53.810 159.472  29.167  0.00  0.00    +0.037 C 
ATOM     17  C   UNL     1      52.629 159.531  29.862  0.00  0.00    +0.003 C 
ATOM     18  C   UNL     1      51.772 158.457  29.767  0.00  0.00    +0.003 C 
ATOM     19  C   UNL     1      53.585 156.098  27.486  0.00  0.00    +0.202 C 
ATOM     20  O   UNL     1      54.674 156.054  26.851  0.00  0.00    -0.286 OA
ATOM     21  O   UNL     1      54.113 153.784  25.950  0.00  0.00    -0.450 OA
ENDROOT
BRANCH  17  22
ATOM     22  C   UNL     1      52.247 160.686  30.695  0.00  0.00    +0.000 C 
ATOM     23  C   UNL     1      51.106 160.729  31.358  0.00  0.00    +0.000 C 
ATOM     24  C   UNL     1      50.697 161.855  32.190  0.00  0.00    +0.000 C 
ATOM     25  C   UNL     1      51.523 162.871  32.270  0.00  0.00    +0.000 C 
ATOM     26  C   UNL     1      52.830 162.961  31.584  0.00  0.00    +0.000 C 
ATOM     27  C   UNL     1      53.216 161.807  30.751  0.00  0.00    +0.000 C 
ENDBRANCH  17  22
BRANCH  15  28
ATOM     28  O   UNL     1      55.313 158.302  27.697  0.00  0.00    -0.505 OA
ATOM     29  H   UNL     1      55.514 157.547  27.180  0.00  0.00    +0.292 HD
ENDBRANCH  15  28
TORSDOF 2
