REMARK  Name = =
REMARK  3 active torsions:
REMARK  status: ('A' for Active; 'I' for Inactive)
REMARK    1  A    between atoms: C_12  and  C_14
REMARK    2  A    between atoms: C_15  and  C_16
REMARK    3  A    between atoms: C_16  and  O_18
REMARK                            x       y       z     vdW  Elec       q    Type
REMARK                         _______ _______ _______ _____ _____    ______ ____
ROOT
ATOM      1  N   UNL     1      52.851 157.182  27.470  0.00  0.00    -0.263 NA
ATOM      2  C   UNL     1      53.392 156.374  26.600  0.00  0.00    +0.076 C 
ATOM      3  C   UNL     1      53.118 155.060  26.897  0.00  0.00    +0.015 C 
ATOM      4  C   UNL     1      52.372 155.017  28.000  0.00  0.00    +0.005 C 
ATOM      5  C   UNL     1      52.160 156.393  28.429  0.00  0.00    +0.147 C 
ATOM      6  C   UNL     1      51.446 156.662  29.510  0.00  0.00    +0.002 C 
ATOM      7  C   UNL     1      50.815 155.632  30.361  0.00  0.00    -0.002 C 
ATOM      8  C   UNL     1      51.056 154.260  29.890  0.00  0.00    -0.001 C 
ATOM      9  C   UNL     1      51.763 153.983  28.817  0.00  0.00    -0.002 C 
ATOM     10  C   UNL     1      53.605 154.057  26.091  0.00  0.00    +0.001 C 
ATOM     11  C   UNL     1      54.378 154.350  24.967  0.00  0.00    +0.000 C 
ATOM     12  C   UNL     1      54.671 155.634  24.633  0.00  0.00    +0.002 C 
ATOM     13  C   UNL     1      54.147 156.630  25.497  0.00  0.00    +0.019 C 
ENDROOT
BRANCH  12  14
ATOM     14  C   UNL     1      55.389 156.043  23.456  0.00  0.00    +0.007 C 
ATOM     15  C   UNL     1      55.705 155.516  22.348  0.00  0.00    +0.082 C 
BRANCH  15  16
ATOM     16  C   UNL     1      55.500 154.255  21.716  0.00  0.00    +0.338 C 
ATOM     17  O   UNL     1      54.698 153.345  21.987  0.00  0.00    -0.245 OA
BRANCH  16  18
ATOM     18  O   UNL     1      56.315 153.910  20.575  0.00  0.00    -0.477 OA
ATOM     19  H   UNL     1      56.963 154.510  20.264  0.00  0.00    +0.295 HD
ENDBRANCH  16  18
ENDBRANCH  15  16
ENDBRANCH  12  14
TORSDOF 3
