REMARK  Name = =
REMARK  4 active torsions:
REMARK  status: ('A' for Active; 'I' for Inactive)
REMARK    1  A    between atoms: C_1  and  N_8
REMARK    2  A    between atoms: C_3  and  C_16
REMARK    3  A    between atoms: C_4  and  O_19
REMARK    4  A    between atoms: C_7  and  C_14
REMARK                            x       y       z     vdW  Elec       q    Type
REMARK                         _______ _______ _______ _____ _____    ______ ____
ROOT
ATOM      1  C   UNL     1      50.450 157.793  29.875  0.00  0.00    +0.058 C 
ATOM      2  C   UNL     1      51.247 158.863  30.197  0.00  0.00    +0.023 C 
ATOM      3  C   UNL     1      50.726 160.063  30.663  0.00  0.00    +0.088 C 
ATOM      4  C   UNL     1      49.363 160.186  30.805  0.00  0.00    +0.138 C 
ATOM      5  C   UNL     1      48.533 159.118  30.486  0.00  0.00    +0.038 C 
ATOM      6  C   UNL     1      49.079 157.942  30.027  0.00  0.00    +0.018 C 
ENDROOT
BRANCH   1   8
ATOM      7  C   UNL     1      51.694 156.367  28.134  0.00  0.00    +0.159 C 
ATOM      8  N   UNL     1      51.026 156.569  29.400  0.00  0.00    -0.218 N 
ATOM      9  C   UNL     1      51.053 155.320  30.063  0.00  0.00    +0.409 C 
ATOM     10  O   UNL     1      50.834 155.153  31.306  0.00  0.00    -0.226 OA
ATOM     11  O   UNL     1      51.362 154.317  29.120  0.00  0.00    -0.432 OA
ATOM     12  C   UNL     1      52.172 154.949  28.164  0.00  0.00    +0.236 C 
BRANCH   7  14
ATOM     13 CL   UNL     1      53.625 157.892  29.438  0.00  0.00    -0.085 Cl
ATOM     14  C   UNL     1      52.873 157.254  28.002  0.00  0.00    +0.058 C 
ATOM     15  C   UNL     1      53.331 157.544  26.802  0.00  0.00    +0.009 C 
ENDBRANCH   7  14
ENDBRANCH   1   8
BRANCH   3  16
ATOM     16  C   UNL     1      51.622 161.133  30.988  0.00  0.00    +0.246 C 
ATOM     17  O   UNL     1      52.850 161.029  30.660  0.00  0.00    -0.270 OA
ATOM     18  N   UNL     1      51.277 162.323  31.656  0.00  0.00    -0.325 N 
ATOM     19  H   UNL     1      50.347 162.476  31.941  0.00  0.00    +0.145 HD
ATOM     20  H   UNL     1      51.966 163.003  31.838  0.00  0.00    +0.145 HD
ENDBRANCH   3  16
BRANCH   4  21
ATOM     21  O   UNL     1      48.798 161.390  31.274  0.00  0.00    -0.505 OA
ATOM     22  H   UNL     1      49.352 162.114  31.491  0.00  0.00    +0.292 HD
ENDBRANCH   4  21
TORSDOF 4
