REMARK  Name = =
REMARK  5 active torsions:
REMARK  status: ('A' for Active; 'I' for Inactive)
REMARK    1  A    between atoms: C_10  and  N_14
REMARK    2  A    between atoms: C_12  and  C_24
REMARK    3  A    between atoms: C_19  and  O_23
REMARK    4  A    between atoms: C_25  and  C_26
REMARK    5  A    between atoms: C_26  and  O_28
REMARK                            x       y       z     vdW  Elec       q    Type
REMARK                         _______ _______ _______ _____ _____    ______ ____
ROOT
ATOM      1  N   UNL     1      53.946 157.101  25.881  0.00  0.00    -0.263 NA
ATOM      2  C   UNL     1      54.142 155.983  25.279  0.00  0.00    +0.078 C 
ATOM      3  C   UNL     1      53.400 154.954  25.879  0.00  0.00    +0.029 C 
ATOM      4  C   UNL     1      52.715 155.456  26.893  0.00  0.00    +0.007 C 
ATOM      5  C   UNL     1      53.026 156.902  26.966  0.00  0.00    +0.148 C 
ATOM      6  C   UNL     1      52.501 157.695  27.874  0.00  0.00    +0.002 C 
ATOM      7  C   UNL     1      51.563 157.207  28.892  0.00  0.00    -0.002 C 
ATOM      8  C   UNL     1      51.285 155.769  28.781  0.00  0.00    -0.001 C 
ATOM      9  C   UNL     1      51.791 154.940  27.885  0.00  0.00    -0.002 C 
ATOM     10  C   UNL     1      53.492 153.689  25.361  0.00  0.00    +0.060 C 
ATOM     11  C   UNL     1      54.312 153.430  24.253  0.00  0.00    +0.015 C 
ATOM     12  C   UNL     1      55.052 154.440  23.649  0.00  0.00    +0.003 C 
ATOM     13  C   UNL     1      54.940 155.704  24.193  0.00  0.00    +0.019 C 
ENDROOT
BRANCH  10  14
ATOM     14  N   UNL     1      52.759 152.621  25.935  0.00  0.00    -0.232 N 
ATOM     15  C   UNL     1      52.487 152.507  27.244  0.00  0.00    +0.165 C 
ATOM     16  N   UNL     1      52.745 153.251  28.324  0.00  0.00    -0.207 NA
ATOM     17  C   UNL     1      52.354 152.915  29.567  0.00  0.00    +0.203 C 
ATOM     18  N   UNL     1      51.667 151.771  29.728  0.00  0.00    -0.188 NA
ATOM     19  C   UNL     1      51.371 150.969  28.668  0.00  0.00    +0.244 C 
ATOM     20  C   UNL     1      51.780 151.331  27.409  0.00  0.00    +0.168 C 
ATOM     21  N   UNL     1      51.642 150.761  26.203  0.00  0.00    -0.220 NA
ATOM     22  C   UNL     1      52.252 151.562  25.280  0.00  0.00    +0.173 C 
BRANCH  19  23
ATOM     23  O   UNL     1      50.663 149.784  28.814  0.00  0.00    -0.491 OA
ATOM     24  H   UNL     1      50.372 149.514  29.663  0.00  0.00    +0.294 HD
ENDBRANCH  19  23
ENDBRANCH  10  14
BRANCH  12  25
ATOM     25  C   UNL     1      55.884 154.133  22.514  0.00  0.00    +0.007 C 
ATOM     26  C   UNL     1      56.103 154.973  21.530  0.00  0.00    +0.082 C 
BRANCH  26  27
ATOM     27  C   UNL     1      56.947 154.630  20.401  0.00  0.00    +0.338 C 
ATOM     28  O   UNL     1      57.410 155.513  19.659  0.00  0.00    -0.245 OA
BRANCH  27  29
ATOM     29  O   UNL     1      57.232 153.304  20.156  0.00  0.00    -0.477 OA
ATOM     30  H   UNL     1      56.883 152.639  20.716  0.00  0.00    +0.295 HD
ENDBRANCH  27  29
ENDBRANCH  26  27
ENDBRANCH  12  25
TORSDOF 5
