REMARK  Name = =
REMARK  3 active torsions:
REMARK  status: ('A' for Active; 'I' for Inactive)
REMARK    1  A    between atoms: C_10  and  C_28
REMARK    2  A    between atoms: C_15  and  O_33
REMARK    3  A    between atoms: C_17  and  C_22
REMARK                            x       y       z     vdW  Elec       q    Type
REMARK                         _______ _______ _______ _____ _____    ______ ____
ROOT
ATOM      1  C   UNL     1      55.626 153.942  24.497  0.00  0.00    +0.183 C 
ATOM      2  C   UNL     1      55.557 152.572  24.311  0.00  0.00    +0.083 C 
ATOM      3  C   UNL     1      54.639 151.825  25.062  0.00  0.00    +0.201 C 
ATOM      4  O   UNL     1      54.566 150.594  24.909  0.00  0.00    -0.286 OA
ATOM      5  C   UNL     1      53.834 152.472  25.961  0.00  0.00    +0.070 C 
ATOM      6  C   UNL     1      53.973 153.865  26.086  0.00  0.00    +0.151 C 
ATOM      7  C   UNL     1      53.187 154.553  26.979  0.00  0.00    +0.077 C 
ATOM      8  C   UNL     1      52.267 153.901  27.756  0.00  0.00    +0.045 C 
ATOM      9  C   UNL     1      52.149 152.542  27.618  0.00  0.00    -0.001 C 
ATOM     10  C   UNL     1      52.900 151.781  26.742  0.00  0.00    -0.016 C 
ATOM     11  C   UNL     1      51.419 154.622  28.714  0.00  0.00    +0.196 C 
ATOM     12  O   UNL     1      50.595 153.949  29.393  0.00  0.00    -0.287 OA
ATOM     13  C   UNL     1      51.573 156.052  28.830  0.00  0.00    +0.045 C 
ATOM     14  C   UNL     1      52.484 156.760  28.073  0.00  0.00    +0.076 C 
ATOM     15  C   UNL     1      52.596 158.115  28.214  0.00  0.00    +0.137 C 
ATOM     16  C   UNL     1      51.758 158.749  29.146  0.00  0.00    +0.037 C 
ATOM     17  C   UNL     1      50.841 158.092  29.918  0.00  0.00    +0.003 C 
ATOM     18  C   UNL     1      50.769 156.720  29.736  0.00  0.00    +0.003 C 
ATOM     19  C   UNL     1      53.308 156.017  27.134  0.00  0.00    +0.202 C 
ATOM     20  O   UNL     1      54.164 156.555  26.399  0.00  0.00    -0.286 OA
ATOM     21  O   UNL     1      54.846 154.545  25.364  0.00  0.00    -0.450 OA
ENDROOT
BRANCH  17  22
ATOM     22  C   UNL     1      49.959 158.750  30.892  0.00  0.00    +0.000 C 
ATOM     23  C   UNL     1      50.378 159.765  31.576  0.00  0.00    +0.000 C 
ATOM     24  C   UNL     1      49.538 160.443  32.546  0.00  0.00    +0.000 C 
ATOM     25  C   UNL     1      48.311 160.033  32.752  0.00  0.00    +0.000 C 
ATOM     26  C   UNL     1      47.742 158.904  32.031  0.00  0.00    +0.000 C 
ATOM     27  C   UNL     1      48.606 158.204  31.063  0.00  0.00    +0.000 C 
ENDBRANCH  17  22
BRANCH  10  28
ATOM     28  C   UNL     1      52.761 150.347  26.569  0.00  0.00    +0.023 C 
ATOM     29  C   UNL     1      51.222 150.063  26.699  0.00  0.00    +0.004 C 
ATOM     30  C   UNL     1      51.192 148.556  26.431  0.00  0.00    +0.000 C 
ATOM     31  C   UNL     1      52.102 148.477  25.217  0.00  0.00    +0.000 C 
ATOM     32  C   UNL     1      52.859 149.820  25.165  0.00  0.00    +0.004 C 
ENDBRANCH  10  28
BRANCH  15  33
ATOM     33  O   UNL     1      53.480 158.855  27.490  0.00  0.00    -0.505 OA
ATOM     34  H   UNL     1      54.041 158.437  26.867  0.00  0.00    +0.292 HD
ENDBRANCH  15  33
TORSDOF 3
