REMARK  Name = =
REMARK  3 active torsions:
REMARK  status: ('A' for Active; 'I' for Inactive)
REMARK    1  A    between atoms: P_1  and  N_3
REMARK    2  A    between atoms: P_1  and  O_4
REMARK    3  A    between atoms: P_1  and  O_5
REMARK                            x       y       z     vdW  Elec       q    Type
REMARK                         _______ _______ _______ _____ _____    ______ ____
ROOT
ATOM      1  P   UNL     1      -5.341  -2.845  32.269  0.00  0.00    +0.400 P 
ATOM      2  O   UNL     1      -5.003  -4.330  32.378  0.00  0.00    -0.240 OA
ENDROOT
BRANCH   1   3
ATOM      3  N   UNL     1      -5.690  -2.247  33.868  0.00  0.00    -0.237 NA
ATOM      4  H   UNL     1      -6.507  -2.730  34.241  0.00  0.00    +0.130 HD
ATOM      5  H   UNL     1      -5.878  -1.246  33.823  0.00  0.00    +0.130 HD
ENDBRANCH   1   3
BRANCH   1   6
ATOM      6  O   UNL     1      -6.706  -2.724  31.307  0.00  0.00    -0.312 OA
ATOM      7  H   UNL     1      -7.437  -3.210  31.720  0.00  0.00    +0.221 HD
ENDBRANCH   1   6
BRANCH   1   8
ATOM      8  O   UNL     1      -4.011  -2.053  31.672  0.00  0.00    -0.312 OA
ATOM      9  H   UNL     1      -3.265  -2.169  32.281  0.00  0.00    +0.221 HD
ENDBRANCH   1   8
TORSDOF 3
