REMARK  Name = =
REMARK  6 active torsions:
REMARK  status: ('A' for Active; 'I' for Inactive)
REMARK    1  A    between atoms: P_1  and  O_2
REMARK    2  A    between atoms: P_1  and  C_3
REMARK    3  A    between atoms: P_1  and  N_5
REMARK    4  A    between atoms: P_1  and  O_7
REMARK    5  A    between atoms: O_2  and  O_6
REMARK    6  A    between atoms: C_3  and  N_4
REMARK                            x       y       z     vdW  Elec       q    Type
REMARK                         _______ _______ _______ _____ _____    ______ ____
ROOT
ATOM      1  P   UNL     1      -6.208  -1.069  32.073  0.00  0.00    +0.147 P 
ATOM      2  H   UNL     1      -6.583  -0.171  33.051  0.00  0.00    +0.123 HD
ENDROOT
BRANCH   1   3
ATOM      3  N   UNL     1      -7.410  -1.789  31.050  0.00  0.00    -0.277 NA
ATOM      4  H   UNL     1      -6.959  -2.422  30.390  0.00  0.00    +0.126 HD
ATOM      5  H   UNL     1      -7.903  -1.058  30.537  0.00  0.00    +0.126 HD
ENDBRANCH   1   3
BRANCH   1   6
ATOM      6  O   UNL     1      -4.727  -1.051  31.265  0.00  0.00    -0.349 OA
ATOM      7  H   UNL     1      -4.699  -1.779  30.625  0.00  0.00    +0.217 HD
ENDBRANCH   1   6
BRANCH   1   8
ATOM      8  O   UNL     1      -6.763  -2.347  32.613  0.00  0.00    -0.189 OA
BRANCH   8   9
ATOM      9  O   UNL     1      -5.997  -1.524  33.647  0.00  0.00    -0.244 OA
ATOM     10  H   UNL     1      -6.004  -1.988  34.499  0.00  0.00    +0.253 HD
ENDBRANCH   8   9
ENDBRANCH   1   8
BRANCH   1  11
ATOM     11  C   UNL     1      -6.093   0.714  32.018  0.00  0.00    +0.161 C 
BRANCH  11  12
ATOM     12  N   UNL     1      -6.483   1.171  30.928  0.00  0.00    -0.236 NA
ATOM     13  H   UNL     1      -6.402   2.188  30.937  0.00  0.00    +0.142 HD
ENDBRANCH  11  12
ENDBRANCH   1  11
TORSDOF 6
