REMARK  Name = =
REMARK  5 active torsions:
REMARK  status: ('A' for Active; 'I' for Inactive)
REMARK    1  A    between atoms: P_1  and  O_2
REMARK    2  A    between atoms: P_1  and  C_3
REMARK    3  A    between atoms: P_1  and  N_5
REMARK    4  A    between atoms: O_2  and  O_7
REMARK    5  A    between atoms: O_7  and  S_8
REMARK                            x       y       z     vdW  Elec       q    Type
REMARK                         _______ _______ _______ _____ _____    ______ ____
ROOT
ATOM      1  P   UNL     1      -6.173  -1.423  32.263  0.00  0.00    +0.120 P 
ATOM      2  H   UNL     1      -5.063  -1.993  32.853  0.00  0.00    +0.106 HD
ENDROOT
BRANCH   1   3
ATOM      3  C   UNL     1      -5.556   0.226  32.029  0.00  0.00    +0.118 C 
ATOM      4  N   UNL     1      -4.764   0.526  31.074  0.00  0.00    -0.294 NA
ATOM      5  H   UNL     1      -4.441   1.451  30.974  0.00  0.00    +0.187 HD
ENDBRANCH   1   3
BRANCH   1   6
ATOM      6  N   UNL     1      -7.899  -1.188  32.555  0.00  0.00    -0.288 NA
ATOM      7  H   UNL     1      -8.309  -0.674  31.775  0.00  0.00    +0.125 HD
ATOM      8  H   UNL     1      -8.029  -0.658  33.417  0.00  0.00    +0.125 HD
ENDBRANCH   1   6
BRANCH   1   9
ATOM      9  O   UNL     1      -7.075  -2.090  31.219  0.00  0.00    -0.189 OA
BRANCH   9  10
ATOM     10  O   UNL     1      -5.845  -2.256  30.812  0.00  0.00    -0.146 OA
BRANCH  10  11
ATOM     11  S   UNL     1      -4.803  -3.266  30.870  0.00  0.00    +0.087 S 
ATOM     12  N   UNL     1      -4.504  -4.685  29.959  0.00  0.00    -0.195 NA
ATOM     13  C   UNL     1      -3.459  -5.212  30.454  0.00  0.00    +0.105 C 
ATOM     14  C   UNL     1      -2.837  -4.566  31.549  0.00  0.00    +0.010 C 
ATOM     15  C   UNL     1      -3.370  -3.464  31.987  0.00  0.00    +0.129 C 
ENDBRANCH  10  11
ENDBRANCH   9  10
ENDBRANCH   1   9
TORSDOF 5
REMARK  Name = =
REMARK  5 active torsions:
REMARK  status: ('A' for Active; 'I' for Inactive)
REMARK    1  A    between atoms: P_1  and  O_2
REMARK    2  A    between atoms: P_1  and  C_3
REMARK    3  A    between atoms: P_1  and  N_5
REMARK    4  A    between atoms: O_2  and  O_7
REMARK    5  A    between atoms: O_7  and  S_8
REMARK                            x       y       z     vdW  Elec       q    Type
REMARK                         _______ _______ _______ _____ _____    ______ ____
ROOT
ATOM      1  O   HOH     1      -5.675  -2.146  33.720  0.00  0.00    -0.253 OA
ATOM      2  H   HOH     0      -4.705  -2.146  33.720  0.00  0.00    +0.253 HD
ENDROOT
TORSDOF 0
REMARK  Name = =
REMARK  5 active torsions:
REMARK  status: ('A' for Active; 'I' for Inactive)
REMARK    1  A    between atoms: P_1  and  O_2
REMARK    2  A    between atoms: P_1  and  C_3
REMARK    3  A    between atoms: P_1  and  N_5
REMARK    4  A    between atoms: O_2  and  O_7
REMARK    5  A    between atoms: O_7  and  S_8
REMARK                            x       y       z     vdW  Elec       q    Type
REMARK                         _______ _______ _______ _____ _____    ______ ____
ROOT
ATOM      1  H   UNK     1      -5.998  -4.553  32.250  0.00  0.00    +0.000 HD
ENDROOT
TORSDOF 0
