REMARK  Name = =
REMARK  5 active torsions:
REMARK  status: ('A' for Active; 'I' for Inactive)
REMARK    1  A    between atoms: O_2  and  O_13
REMARK    2  A    between atoms: N_8  and  N_9
REMARK    3  A    between atoms: N_9  and  C_10
REMARK    4  A    between atoms: C_10  and  N_12
REMARK    5  A    between atoms: O_13  and  S_14
REMARK                            x       y       z     vdW  Elec       q    Type
REMARK                         _______ _______ _______ _____ _____    ______ ____
ROOT
ATOM      1  P   UNL     1      -6.012  -1.760  32.120  0.00  0.00    +0.000 P 
ENDROOT
TORSDOF 0
REMARK  Name = =
REMARK  5 active torsions:
REMARK  status: ('A' for Active; 'I' for Inactive)
REMARK    1  A    between atoms: O_2  and  O_13
REMARK    2  A    between atoms: N_8  and  N_9
REMARK    3  A    between atoms: N_9  and  C_10
REMARK    4  A    between atoms: C_10  and  N_12
REMARK    5  A    between atoms: O_13  and  S_14
REMARK                            x       y       z     vdW  Elec       q    Type
REMARK                         _______ _______ _______ _____ _____    ______ ____
ROOT
ATOM      1  S   UNL     1      -7.331   0.528  31.894  0.00  0.00    +0.096 S 
ATOM      2  N   UNL     1      -8.887   0.372  31.485  0.00  0.00    -0.159 NA
ATOM      3  C   UNL     1      -9.308   1.469  30.960  0.00  0.00    +0.096 C 
ATOM      4  C   UNL     1      -8.352   2.520  30.864  0.00  0.00    +0.028 C 
ATOM      5  C   UNL     1      -7.158   2.295  31.304  0.00  0.00    +0.073 C 
ENDROOT
BRANCH   1   6
ATOM      6  O   UNL     1      -6.194  -0.192  32.604  0.00  0.00    -0.151 OA
BRANCH   6   7
ATOM      7  O   UNL     1      -5.334  -0.530  31.570  0.00  0.00    -0.237 OA
ATOM      8  H   UNL     1      -4.566  -1.001  31.929  0.00  0.00    +0.254 HD
ENDBRANCH   6   7
ENDBRANCH   1   6
TORSDOF 2
REMARK  Name = =
REMARK  5 active torsions:
REMARK  status: ('A' for Active; 'I' for Inactive)
REMARK    1  A    between atoms: O_2  and  O_13
REMARK    2  A    between atoms: N_8  and  N_9
REMARK    3  A    between atoms: N_9  and  C_10
REMARK    4  A    between atoms: C_10  and  N_12
REMARK    5  A    between atoms: O_13  and  S_14
REMARK                            x       y       z     vdW  Elec       q    Type
REMARK                         _______ _______ _______ _____ _____    ______ ____
ROOT
ATOM      1  C   UNL     1      -7.504  -2.182  31.269  0.00  0.00    +0.109 C 
ATOM      2  N   UNL     1      -8.284  -2.994  31.833  0.00  0.00    -0.295 NA
ATOM      3  H   UNL     1      -8.286  -3.074  32.814  0.00  0.00    +0.187 HD
ENDROOT
TORSDOF 0
REMARK  Name = =
REMARK  5 active torsions:
REMARK  status: ('A' for Active; 'I' for Inactive)
REMARK    1  A    between atoms: O_2  and  O_13
REMARK    2  A    between atoms: N_8  and  N_9
REMARK    3  A    between atoms: N_9  and  C_10
REMARK    4  A    between atoms: C_10  and  N_12
REMARK    5  A    between atoms: O_13  and  S_14
REMARK                            x       y       z     vdW  Elec       q    Type
REMARK                         _______ _______ _______ _____ _____    ______ ____
ROOT
ATOM      1  N   UNL     1      -6.258  -1.698  33.847  0.00  0.00    -0.273 NA
ATOM      2  H   UNL     1      -5.238  -1.698  33.847  0.00  0.00    +0.137 HD
ATOM      3  H   UNL     1      -6.598  -1.567  32.894  0.00  0.00    +0.137 HD
ENDROOT
TORSDOF 0
REMARK  Name = =
REMARK  5 active torsions:
REMARK  status: ('A' for Active; 'I' for Inactive)
REMARK    1  A    between atoms: O_2  and  O_13
REMARK    2  A    between atoms: N_8  and  N_9
REMARK    3  A    between atoms: N_9  and  C_10
REMARK    4  A    between atoms: C_10  and  N_12
REMARK    5  A    between atoms: O_13  and  S_14
REMARK                            x       y       z     vdW  Elec       q    Type
REMARK                         _______ _______ _______ _____ _____    ______ ____
ROOT
ATOM      1  N   UNL     1      -2.088  -3.080  30.936  0.00  0.00    -0.215 N 
ATOM      2  H   UNL     1      -1.431  -3.646  31.403  0.00  0.00    +0.176 HD
ENDROOT
BRANCH   1   5
ATOM      3  O   UNL     1      -5.543  -3.385  31.970  0.00  0.00    -0.258 OA
ATOM      4  C   UNL     1      -4.286  -3.609  31.407  0.00  0.00    +0.353 C 
ATOM      5  N   UNL     1      -3.312  -2.783  31.527  0.00  0.00    -0.134 NA
ENDBRANCH   1   5
BRANCH   1   6
ATOM      6  C   UNL     1      -1.804  -2.559  29.662  0.00  0.00    +0.147 C 
ATOM      7  S   UNL     1      -0.712  -3.287  28.708  0.00  0.00    -0.017 S 
BRANCH   6   8
ATOM      8  N   UNL     1      -2.458  -1.405  29.198  0.00  0.00    -0.339 N 
ATOM      9  H   UNL     1      -3.123  -0.954  29.767  0.00  0.00    +0.144 HD
ATOM     10  H   UNL     1      -2.251  -1.048  28.304  0.00  0.00    +0.144 HD
ENDBRANCH   6   8
ENDBRANCH   1   6
TORSDOF 3
REMARK  Name = =
REMARK  5 active torsions:
REMARK  status: ('A' for Active; 'I' for Inactive)
REMARK    1  A    between atoms: O_2  and  O_13
REMARK    2  A    between atoms: N_8  and  N_9
REMARK    3  A    between atoms: N_9  and  C_10
REMARK    4  A    between atoms: C_10  and  N_12
REMARK    5  A    between atoms: O_13  and  S_14
REMARK                            x       y       z     vdW  Elec       q    Type
REMARK                         _______ _______ _______ _____ _____    ______ ____
ROOT
ATOM      1  H   UNK     1      -8.005   1.384  33.865  0.00  0.00    +0.000 HD
ENDROOT
TORSDOF 0
