REMARK  Name = =
REMARK  5 active torsions:
REMARK  status: ('A' for Active; 'I' for Inactive)
REMARK    1  A    between atoms: N_8  and  N_9
REMARK    2  A    between atoms: N_9  and  C_10
REMARK    3  A    between atoms: C_10  and  N_12
REMARK    4  A    between atoms: C_17  and  C_20
REMARK    5  A    between atoms: C_20  and  O_21
REMARK                            x       y       z     vdW  Elec       q    Type
REMARK                         _______ _______ _______ _____ _____    ______ ____
ROOT
ATOM      1  P   UNL     1      -5.130  -3.253  32.309  0.00  0.00    +0.000 P 
ENDROOT
TORSDOF 0
REMARK  Name = =
REMARK  5 active torsions:
REMARK  status: ('A' for Active; 'I' for Inactive)
REMARK    1  A    between atoms: N_8  and  N_9
REMARK    2  A    between atoms: N_9  and  C_10
REMARK    3  A    between atoms: C_10  and  N_12
REMARK    4  A    between atoms: C_17  and  C_20
REMARK    5  A    between atoms: C_20  and  O_21
REMARK                            x       y       z     vdW  Elec       q    Type
REMARK                         _______ _______ _______ _____ _____    ______ ____
ROOT
ATOM      1  O   UNL     1      -5.280  -3.220  33.766  0.00  0.00    -0.038 OA
ATOM      2  O   UNL     1      -5.609  -2.037  33.340  0.00  0.00    -0.218 OA
ATOM      3  H   UNL     1      -6.278  -2.119  32.642  0.00  0.00    +0.256 HD
ENDROOT
TORSDOF 0
REMARK  Name = =
REMARK  5 active torsions:
REMARK  status: ('A' for Active; 'I' for Inactive)
REMARK    1  A    between atoms: N_8  and  N_9
REMARK    2  A    between atoms: N_9  and  C_10
REMARK    3  A    between atoms: C_10  and  N_12
REMARK    4  A    between atoms: C_17  and  C_20
REMARK    5  A    between atoms: C_20  and  O_21
REMARK                            x       y       z     vdW  Elec       q    Type
REMARK                         _______ _______ _______ _____ _____    ______ ____
ROOT
ATOM      1  C   UNL     1      -3.847  -2.761  31.200  0.00  0.00    +0.109 C 
ATOM      2  N   UNL     1      -3.949  -1.652  30.597  0.00  0.00    -0.295 NA
ATOM      3  H   UNL     1      -3.687  -0.819  31.051  0.00  0.00    +0.187 HD
ENDROOT
TORSDOF 0
REMARK  Name = =
REMARK  5 active torsions:
REMARK  status: ('A' for Active; 'I' for Inactive)
REMARK    1  A    between atoms: N_8  and  N_9
REMARK    2  A    between atoms: N_9  and  C_10
REMARK    3  A    between atoms: C_10  and  N_12
REMARK    4  A    between atoms: C_17  and  C_20
REMARK    5  A    between atoms: C_20  and  O_21
REMARK                            x       y       z     vdW  Elec       q    Type
REMARK                         _______ _______ _______ _____ _____    ______ ____
ROOT
ATOM      1  N   UNL     1      -6.608  -3.197  31.376  0.00  0.00    -0.273 NA
ATOM      2  H   UNL     1      -5.588  -3.197  31.376  0.00  0.00    +0.137 HD
ATOM      3  H   UNL     1      -6.948  -3.970  30.804  0.00  0.00    +0.137 HD
ENDROOT
TORSDOF 0
REMARK  Name = =
REMARK  5 active torsions:
REMARK  status: ('A' for Active; 'I' for Inactive)
REMARK    1  A    between atoms: N_8  and  N_9
REMARK    2  A    between atoms: N_9  and  C_10
REMARK    3  A    between atoms: C_10  and  N_12
REMARK    4  A    between atoms: C_17  and  C_20
REMARK    5  A    between atoms: C_20  and  O_21
REMARK                            x       y       z     vdW  Elec       q    Type
REMARK                         _______ _______ _______ _____ _____    ______ ____
ROOT
ATOM      1  N   UNL     1      -1.815  -6.388  32.615  0.00  0.00    -0.215 N 
ATOM      2  H   UNL     1      -1.039  -5.892  32.266  0.00  0.00    +0.176 HD
ENDROOT
BRANCH   1   5
ATOM      3  O   UNL     1      -5.063  -4.931  32.669  0.00  0.00    -0.258 OA
ATOM      4  C   UNL     1      -3.944  -5.621  32.238  0.00  0.00    +0.353 C 
ATOM      5  N   UNL     1      -2.938  -5.700  33.039  0.00  0.00    -0.134 NA
ENDBRANCH   1   5
BRANCH   1   6
ATOM      6  C   UNL     1      -1.777  -7.794  32.681  0.00  0.00    +0.147 C 
ATOM      7  S   UNL     1      -3.039  -8.588  33.363  0.00  0.00    -0.017 S 
BRANCH   6   8
ATOM      8  N   UNL     1      -0.676  -8.548  32.177  0.00  0.00    -0.339 N 
ATOM      9  H   UNL     1       0.089  -8.086  31.765  0.00  0.00    +0.144 HD
ATOM     10  H   UNL     1      -0.681  -9.530  32.242  0.00  0.00    +0.144 HD
ENDBRANCH   6   8
ENDBRANCH   1   6
TORSDOF 3
REMARK  Name = =
REMARK  5 active torsions:
REMARK  status: ('A' for Active; 'I' for Inactive)
REMARK    1  A    between atoms: N_8  and  N_9
REMARK    2  A    between atoms: N_9  and  C_10
REMARK    3  A    between atoms: C_10  and  N_12
REMARK    4  A    between atoms: C_17  and  C_20
REMARK    5  A    between atoms: C_20  and  O_21
REMARK                            x       y       z     vdW  Elec       q    Type
REMARK                         _______ _______ _______ _____ _____    ______ ____
ROOT
ATOM      1  S   UNL     1      -6.260  -0.752  32.905  0.00  0.00    +0.013 S 
ATOM      2  N   UNL     1      -8.025  -0.342  33.245  0.00  0.00    -0.208 NA
ATOM      3  C   UNL     1      -8.286   0.506  32.349  0.00  0.00    +0.106 C 
ATOM      4  C   UNL     1      -7.284   0.885  31.419  0.00  0.00    +0.035 C 
ATOM      5  C   UNL     1      -6.110   0.317  31.547  0.00  0.00    +0.054 C 
ENDROOT
BRANCH   4   6
ATOM      6  C   UNL     1      -7.539   1.901  30.317  0.00  0.00    +0.166 C 
BRANCH   6   7
ATOM      7  O   UNL     1      -6.677   3.000  30.500  0.00  0.00    -0.377 OA
ATOM      8  H   UNL     1      -6.833   3.654  29.800  0.00  0.00    +0.211 HD
ENDBRANCH   6   7
ENDBRANCH   4   6
TORSDOF 2
REMARK  Name = =
REMARK  5 active torsions:
REMARK  status: ('A' for Active; 'I' for Inactive)
REMARK    1  A    between atoms: N_8  and  N_9
REMARK    2  A    between atoms: N_9  and  C_10
REMARK    3  A    between atoms: C_10  and  N_12
REMARK    4  A    between atoms: C_17  and  C_20
REMARK    5  A    between atoms: C_20  and  O_21
REMARK                            x       y       z     vdW  Elec       q    Type
REMARK                         _______ _______ _______ _____ _____    ______ ____
ROOT
ATOM      1  H   UNK     1      -5.621   0.470  34.345  0.00  0.00    +0.000 HD
ENDROOT
TORSDOF 0
