REMARK  Name = =
REMARK  9 active torsions:
REMARK  status: ('A' for Active; 'I' for Inactive)
REMARK    1  A    between atoms: O_2  and  O_18
REMARK    2  A    between atoms: C_7  and  N_8
REMARK    3  A    between atoms: C_7  and  C_9
REMARK    4  A    between atoms: N_8  and  N_14
REMARK    5  A    between atoms: N_14  and  C_15
REMARK    6  A    between atoms: C_15  and  N_17
REMARK    7  A    between atoms: O_18  and  S_19
REMARK    8  A    between atoms: C_22  and  C_25
REMARK    9  A    between atoms: C_25  and  O_26
REMARK                            x       y       z     vdW  Elec       q    Type
REMARK                         _______ _______ _______ _____ _____    ______ ____
ROOT
ATOM      1  P   UNL     1      -0.422  -7.521  29.249  0.00  0.00    +0.000 P 
ENDROOT
TORSDOF 0
REMARK  Name = =
REMARK  9 active torsions:
REMARK  status: ('A' for Active; 'I' for Inactive)
REMARK    1  A    between atoms: O_2  and  O_18
REMARK    2  A    between atoms: C_7  and  N_8
REMARK    3  A    between atoms: C_7  and  C_9
REMARK    4  A    between atoms: N_8  and  N_14
REMARK    5  A    between atoms: N_14  and  C_15
REMARK    6  A    between atoms: C_15  and  N_17
REMARK    7  A    between atoms: O_18  and  S_19
REMARK    8  A    between atoms: C_22  and  C_25
REMARK    9  A    between atoms: C_25  and  O_26
REMARK                            x       y       z     vdW  Elec       q    Type
REMARK                         _______ _______ _______ _____ _____    ______ ____
ROOT
ATOM      1  S   UNL     1      -1.033  -4.773  29.442  0.00  0.00    +0.086 S 
ATOM      2  N   UNL     1      -0.855  -3.161  29.119  0.00  0.00    -0.195 NA
ATOM      3  C   UNL     1      -1.866  -2.524  29.566  0.00  0.00    +0.103 C 
ATOM      4  C   UNL     1      -2.881  -3.299  30.216  0.00  0.00    +0.019 C 
ATOM      5  C   UNL     1      -2.743  -4.556  30.321  0.00  0.00    +0.127 C 
ENDROOT
BRANCH   1   6
ATOM      6  O   UNL     1      -0.300  -5.915  29.245  0.00  0.00    -0.153 OA
BRANCH   6   7
ATOM      7  O   UNL     1      -1.378  -6.928  28.353  0.00  0.00    -0.237 OA
ATOM      8  H   UNL     1      -0.943  -7.774  28.162  0.00  0.00    +0.254 HD
ENDBRANCH   6   7
ENDBRANCH   1   6
BRANCH   4   9
ATOM      9  C   UNL     1      -4.123  -2.601  30.779  0.00  0.00    +0.162 C 
BRANCH   9  10
ATOM     10  O   UNL     1      -3.797  -2.367  32.128  0.00  0.00    -0.377 OA
ATOM     11  H   UNL     1      -4.538  -1.922  32.567  0.00  0.00    +0.211 HD
ENDBRANCH   9  10
ENDBRANCH   4   9
TORSDOF 4
REMARK  Name = =
REMARK  9 active torsions:
REMARK  status: ('A' for Active; 'I' for Inactive)
REMARK    1  A    between atoms: O_2  and  O_18
REMARK    2  A    between atoms: C_7  and  N_8
REMARK    3  A    between atoms: C_7  and  C_9
REMARK    4  A    between atoms: N_8  and  N_14
REMARK    5  A    between atoms: N_14  and  C_15
REMARK    6  A    between atoms: C_15  and  N_17
REMARK    7  A    between atoms: O_18  and  S_19
REMARK    8  A    between atoms: C_22  and  C_25
REMARK    9  A    between atoms: C_25  and  O_26
REMARK                            x       y       z     vdW  Elec       q    Type
REMARK                         _______ _______ _______ _____ _____    ______ ____
ROOT
ATOM      1  C   UNL     1      -1.381  -8.966  29.649  0.00  0.00    +0.109 C 
ATOM      2  N   UNL     1      -1.042  -9.954  28.947  0.00  0.00    -0.295 NA
ATOM      3  H   UNL     1      -0.389 -10.603  29.294  0.00  0.00    +0.187 HD
ENDROOT
TORSDOF 0
REMARK  Name = =
REMARK  9 active torsions:
REMARK  status: ('A' for Active; 'I' for Inactive)
REMARK    1  A    between atoms: O_2  and  O_18
REMARK    2  A    between atoms: C_7  and  N_8
REMARK    3  A    between atoms: C_7  and  C_9
REMARK    4  A    between atoms: N_8  and  N_14
REMARK    5  A    between atoms: N_14  and  C_15
REMARK    6  A    between atoms: C_15  and  N_17
REMARK    7  A    between atoms: O_18  and  S_19
REMARK    8  A    between atoms: C_22  and  C_25
REMARK    9  A    between atoms: C_25  and  O_26
REMARK                            x       y       z     vdW  Elec       q    Type
REMARK                         _______ _______ _______ _____ _____    ______ ____
ROOT
ATOM      1  N   UNL     1       0.110  -7.013  30.863  0.00  0.00    -0.273 NA
ATOM      2  H   UNL     1       1.130  -7.013  30.863  0.00  0.00    +0.137 HD
ATOM      3  H   UNL     1      -0.230  -7.955  30.667  0.00  0.00    +0.137 HD
ENDROOT
TORSDOF 0
REMARK  Name = =
REMARK  9 active torsions:
REMARK  status: ('A' for Active; 'I' for Inactive)
REMARK    1  A    between atoms: O_2  and  O_18
REMARK    2  A    between atoms: C_7  and  N_8
REMARK    3  A    between atoms: C_7  and  C_9
REMARK    4  A    between atoms: N_8  and  N_14
REMARK    5  A    between atoms: N_14  and  C_15
REMARK    6  A    between atoms: C_15  and  N_17
REMARK    7  A    between atoms: O_18  and  S_19
REMARK    8  A    between atoms: C_22  and  C_25
REMARK    9  A    between atoms: C_25  and  O_26
REMARK                            x       y       z     vdW  Elec       q    Type
REMARK                         _______ _______ _______ _____ _____    ______ ____
ROOT
ATOM      1  O   UNL     1       0.984  -8.208  28.507  0.00  0.00    -0.269 OA
ATOM      2  C   UNL     1       1.170  -8.181  27.132  0.00  0.00    +0.289 C 
ENDROOT
BRANCH   2   3
ATOM      3  C   UNL     1       1.090  -9.363  26.271  0.00  0.00    +0.194 C 
ATOM      4  N   UNL     1       1.354 -10.600  26.977  0.00  0.00    -0.277 NA
ATOM      5  C   UNL     1       0.997 -11.597  25.967  0.00  0.00    +0.087 C 
ATOM      6  C   UNL     1      -0.144 -10.934  25.227  0.00  0.00    +0.087 C 
ATOM      7  N   UNL     1      -0.278  -9.607  25.801  0.00  0.00    -0.277 NA
ATOM      8  H   UNL     1       0.769 -10.686  27.808  0.00  0.00    +0.125 HD
ATOM      9  H   UNL     1      -0.946  -9.599  26.572  0.00  0.00    +0.125 HD
ENDBRANCH   2   3
BRANCH   2  10
ATOM     10  N   UNL     1       1.425  -7.032  26.604  0.00  0.00    -0.109 NA
BRANCH  10  11
ATOM     11  N   UNL     1       1.632  -6.866  25.231  0.00  0.00    -0.225 N 
ATOM     12  H   UNL     1       0.937  -7.174  24.605  0.00  0.00    +0.174 HD
BRANCH  11  13
ATOM     13  C   UNL     1       2.812  -6.268  24.707  0.00  0.00    +0.146 C 
ATOM     14  S   UNL     1       3.811  -5.407  25.684  0.00  0.00    -0.018 S 
BRANCH  13  15
ATOM     15  N   UNL     1       3.163  -6.394  23.336  0.00  0.00    -0.339 N 
ATOM     16  H   UNL     1       2.584  -6.904  22.725  0.00  0.00    +0.144 HD
ATOM     17  H   UNL     1       3.985  -5.971  22.997  0.00  0.00    +0.144 HD
ENDBRANCH  13  15
ENDBRANCH  11  13
ENDBRANCH  10  11
ENDBRANCH   2  10
TORSDOF 5
REMARK  Name = =
REMARK  9 active torsions:
REMARK  status: ('A' for Active; 'I' for Inactive)
REMARK    1  A    between atoms: O_2  and  O_18
REMARK    2  A    between atoms: C_7  and  N_8
REMARK    3  A    between atoms: C_7  and  C_9
REMARK    4  A    between atoms: N_8  and  N_14
REMARK    5  A    between atoms: N_14  and  C_15
REMARK    6  A    between atoms: C_15  and  N_17
REMARK    7  A    between atoms: O_18  and  S_19
REMARK    8  A    between atoms: C_22  and  C_25
REMARK    9  A    between atoms: C_25  and  O_26
REMARK                            x       y       z     vdW  Elec       q    Type
REMARK                         _______ _______ _______ _____ _____    ______ ____
ROOT
ATOM      1  H   UNK     1      -0.137  -4.379  31.480  0.00  0.00    +0.000 HD
ENDROOT
TORSDOF 0
