REMARK  Name = =
REMARK  13 active torsions:
REMARK  status: ('A' for Active; 'I' for Inactive)
REMARK    1  A    between atoms: P_1  and  O_2
REMARK    2  A    between atoms: P_1  and  C_5
REMARK    3  A    between atoms: P_1  and  O_13
REMARK    4  A    between atoms: O_2  and  O_25
REMARK    5  A    between atoms: N_6  and  C_7
REMARK    6  A    between atoms: O_13  and  C_14
REMARK    7  A    between atoms: C_14  and  C_16
REMARK    8  A    between atoms: N_15  and  N_21
REMARK    9  A    between atoms: N_21  and  C_22
REMARK   10  A    between atoms: C_22  and  N_24
REMARK   11  A    between atoms: O_25  and  S_26
REMARK   12  A    between atoms: C_29  and  C_32
REMARK   13  A    between atoms: C_32  and  O_33
REMARK                            x       y       z     vdW  Elec       q    Type
REMARK                         _______ _______ _______ _____ _____    ______ ____
ROOT
ATOM      1  P   UNL     1       1.760  -4.553  27.987  0.00  0.00    +0.226 P 
ATOM      2  H   UNL     1       2.320  -3.430  28.543  0.00  0.00    +0.133 HD
ENDROOT
BRANCH   1   3
ATOM      3  C   UNL     1       3.260  -4.328  27.113  0.00  0.00    +0.147 C 
ATOM      4  N   UNL     1       3.237  -3.661  26.011  0.00  0.00    -0.266 NA
BRANCH   4   5
ATOM      5  C   UNL     1       4.407  -3.416  25.215  0.00  0.00    +0.111 C 
ATOM      6  C   UNL     1       5.466  -2.845  26.123  0.00  0.00    +0.089 C 
ATOM      7  C   UNL     1       6.161  -1.839  25.268  0.00  0.00    +0.153 C 
ATOM      8  O   UNL     1       7.344  -1.607  25.388  0.00  0.00    -0.296 OA
ATOM      9  C   UNL     1       5.129  -1.286  24.358  0.00  0.00    +0.067 C 
ATOM     10  C   UNL     1       4.142  -2.407  24.156  0.00  0.00    +0.032 C 
ENDBRANCH   4   5
ENDBRANCH   1   3
BRANCH   1  11
ATOM     11  O   UNL     1       0.653  -4.712  26.970  0.00  0.00    -0.163 OA
BRANCH  11  12
ATOM     12  O   UNL     1       0.606  -3.584  27.442  0.00  0.00    -0.140 OA
BRANCH  12  13
ATOM     13  S   UNL     1      -0.672  -3.154  28.012  0.00  0.00    +0.107 S 
ATOM     14  N   UNL     1      -0.653  -2.590  29.856  0.00  0.00    -0.191 NA
ATOM     15  C   UNL     1      -1.743  -3.028  30.286  0.00  0.00    +0.108 C 
ATOM     16  C   UNL     1      -2.633  -3.747  29.434  0.00  0.00    +0.036 C 
ATOM     17  C   UNL     1      -2.263  -3.925  28.203  0.00  0.00    +0.074 C 
BRANCH  16  18
ATOM     18  C   UNL     1      -3.975  -4.302  29.905  0.00  0.00    +0.166 C 
BRANCH  18  19
ATOM     19  O   UNL     1      -4.736  -3.216  30.359  0.00  0.00    -0.377 OA
ATOM     20  H   UNL     1      -5.599  -3.533  30.667  0.00  0.00    +0.211 HD
ENDBRANCH  18  19
ENDBRANCH  16  18
ENDBRANCH  12  13
ENDBRANCH  11  12
ENDBRANCH   1  11
BRANCH   1  21
ATOM     21  O   UNL     1       1.744  -6.105  27.226  0.00  0.00    -0.431 OA
BRANCH  21  22
ATOM     22  C   UNL     1       1.090  -7.088  27.900  0.00  0.00    +0.249 C 
ATOM     23  N   UNL     1       0.186  -6.721  28.718  0.00  0.00    -0.144 NA
BRANCH  22  24
ATOM     24  C   UNL     1       1.419  -8.515  27.688  0.00  0.00    +0.192 C 
ATOM     25  N   UNL     1       0.348  -9.432  27.869  0.00  0.00    -0.277 NA
ATOM     26  C   UNL     1       0.330 -10.360  26.775  0.00  0.00    +0.087 C 
ATOM     27  C   UNL     1       1.695 -10.178  26.150  0.00  0.00    +0.087 C 
ATOM     28  N   UNL     1       1.896  -8.729  26.304  0.00  0.00    -0.277 NA
ATOM     29  H   UNL     1      -0.535  -8.923  27.899  0.00  0.00    +0.125 HD
ATOM     30  H   UNL     1       1.339  -8.201  25.632  0.00  0.00    +0.125 HD
ENDBRANCH  22  24
BRANCH  23  31
ATOM     31  N   UNL     1      -0.613  -7.457  29.509  0.00  0.00    -0.215 N 
ATOM     32  H   UNL     1      -0.203  -8.280  29.158  0.00  0.00    +0.176 HD
BRANCH  31  33
ATOM     33  C   UNL     1      -1.405  -8.185  30.293  0.00  0.00    +0.147 C 
ATOM     34  S   UNL     1      -1.535  -8.071  31.930  0.00  0.00    -0.017 S 
BRANCH  33  35
ATOM     35  N   UNL     1      -2.278  -9.218  29.719  0.00  0.00    -0.339 N 
ATOM     36  H   UNL     1      -2.283  -9.374  28.747  0.00  0.00    +0.144 HD
ATOM     37  H   UNL     1      -2.858  -9.754  30.306  0.00  0.00    +0.144 HD
ENDBRANCH  33  35
ENDBRANCH  31  33
ENDBRANCH  23  31
ENDBRANCH  21  22
ENDBRANCH   1  21
TORSDOF 13
REMARK  Name = =
REMARK  13 active torsions:
REMARK  status: ('A' for Active; 'I' for Inactive)
REMARK    1  A    between atoms: P_1  and  O_2
REMARK    2  A    between atoms: P_1  and  C_5
REMARK    3  A    between atoms: P_1  and  O_13
REMARK    4  A    between atoms: O_2  and  O_25
REMARK    5  A    between atoms: N_6  and  C_7
REMARK    6  A    between atoms: O_13  and  C_14
REMARK    7  A    between atoms: C_14  and  C_16
REMARK    8  A    between atoms: N_15  and  N_21
REMARK    9  A    between atoms: N_21  and  C_22
REMARK   10  A    between atoms: C_22  and  N_24
REMARK   11  A    between atoms: O_25  and  S_26
REMARK   12  A    between atoms: C_29  and  C_32
REMARK   13  A    between atoms: C_32  and  O_33
REMARK                            x       y       z     vdW  Elec       q    Type
REMARK                         _______ _______ _______ _____ _____    ______ ____
ROOT
ATOM      1  N   UNL     1       2.172  -4.687  29.713  0.00  0.00    -0.273 NA
ATOM      2  H   UNL     1       3.192  -4.687  29.713  0.00  0.00    +0.137 HD
ATOM      3  H   UNL     1       1.832  -5.424  30.330  0.00  0.00    +0.137 HD
ENDROOT
TORSDOF 0
REMARK  Name = =
REMARK  13 active torsions:
REMARK  status: ('A' for Active; 'I' for Inactive)
REMARK    1  A    between atoms: P_1  and  O_2
REMARK    2  A    between atoms: P_1  and  C_5
REMARK    3  A    between atoms: P_1  and  O_13
REMARK    4  A    between atoms: O_2  and  O_25
REMARK    5  A    between atoms: N_6  and  C_7
REMARK    6  A    between atoms: O_13  and  C_14
REMARK    7  A    between atoms: C_14  and  C_16
REMARK    8  A    between atoms: N_15  and  N_21
REMARK    9  A    between atoms: N_21  and  C_22
REMARK   10  A    between atoms: C_22  and  N_24
REMARK   11  A    between atoms: O_25  and  S_26
REMARK   12  A    between atoms: C_29  and  C_32
REMARK   13  A    between atoms: C_32  and  O_33
REMARK                            x       y       z     vdW  Elec       q    Type
REMARK                         _______ _______ _______ _____ _____    ______ ____
ROOT
ATOM      1  H   UNK     1      -1.040  -1.509  27.302  0.00  0.00    +0.000 HD
ENDROOT
TORSDOF 0
