MODEL 1
REMARK VINA RESULT:    -5.756      0.000      0.000
REMARK INTER + INTRA:         -14.726
REMARK INTER:                 -10.971
REMARK INTRA:                  -3.755
REMARK UNBOUND:                -3.755
REMARK  Name = =
REMARK  18 active torsions:
REMARK  status: ('A' for Active; 'I' for Inactive)
REMARK    1  A    between atoms: C_1  and  N_3
REMARK    2  A    between atoms: C_1  and  S_25
REMARK    3  A    between atoms: N_3  and  C_4
REMARK    4  A    between atoms: C_4  and  O_22
REMARK    5  A    between atoms: O_22  and  C_23
REMARK    6  A    between atoms: S_25  and  O_26
REMARK    7  A    between atoms: O_26  and  P_27
REMARK    8  A    between atoms: P_27  and  O_29
REMARK    9  A    between atoms: P_27  and  O_30
REMARK   10  A    between atoms: O_30  and  P_31
REMARK   11  A    between atoms: P_31  and  O_33
REMARK   12  A    between atoms: P_31  and  O_34
REMARK   13  A    between atoms: O_34  and  P_35
REMARK   14  A    between atoms: P_35  and  O_37
REMARK   15  A    between atoms: P_35  and  O_38
REMARK   16  A    between atoms: O_38  and  P_39
REMARK   17  A    between atoms: P_39  and  O_41
REMARK   18  A    between atoms: P_39  and  O_42
REMARK                            x       y       z     vdW  Elec       q    Type
REMARK                         _______ _______ _______ _____ _____    ______ ____
ROOT
ATOM      1  C   UNL     1      61.291 165.643  38.904  0.00  0.00    +0.137 C 
ATOM      2  S   UNL     1      62.116 167.032  39.157  0.00  0.00    -0.026 S 
ENDROOT
BRANCH   1   3
ATOM      3  N   UNL     1      61.438 164.590  39.841  0.00  0.00    -0.290 N 
ATOM      4  H   UNL     1      60.807 164.525  40.593  0.00  0.00    +0.151 HD
BRANCH   3   5
ATOM      5  C   UNL     1      62.466 163.636  39.720  0.00  0.00    +0.208 C 
ATOM      6  C   UNL     1      63.369 163.771  38.505  0.00  0.00    +0.064 C 
ATOM      7  C   UNL     1      64.225 162.499  38.476  0.00  0.00    +0.006 C 
ATOM      8  C   UNL     1      64.478 161.967  39.871  0.00  0.00    +0.004 C 
ATOM      9  C   UNL     1      63.236 161.428  40.513  0.00  0.00    +0.023 C 
ATOM     10  C   UNL     1      63.079 160.004  40.672  0.00  0.00    +0.009 C 
ATOM     11  C   UNL     1      61.668 159.505  40.845  0.00  0.00    +0.026 C 
ATOM     12  C   UNL     1      60.794 160.237  39.887  0.00  0.00    -0.024 C 
ATOM     13  C   UNL     1      59.830 159.538  39.324  0.00  0.00    +0.033 C 
ATOM     14  C   UNL     1      58.917 160.166  38.370  0.00  0.00    +0.173 C 
ATOM     15  O   UNL     1      57.867 159.624  37.947  0.00  0.00    -0.291 OA
ATOM     16  C   UNL     1      59.228 161.523  37.852  0.00  0.00    +0.074 C 
ATOM     17  C   UNL     1      59.884 162.362  38.966  0.00  0.00    +0.034 C 
ATOM     18  C   UNL     1      61.016 161.678  39.602  0.00  0.00    -0.029 C 
ATOM     19  C   UNL     1      62.140 162.222  39.932  0.00  0.00    +0.005 C 
ATOM     20  C   UNL     1      65.602 161.030  39.694  0.00  0.00    +0.000 C 
ATOM     21  C   UNL     1      66.516 161.795  38.730  0.00  0.00    +0.000 C 
ATOM     22  C   UNL     1      65.634 162.787  38.011  0.00  0.00    +0.000 C 
BRANCH   5  23
ATOM     23  O   UNL     1      63.370 164.037  40.798  0.00  0.00    -0.460 OA
BRANCH  23  24
ATOM     24  C   UNL     1      62.820 164.546  41.968  0.00  0.00    +0.174 C 
ATOM     25  C   UNL     1      63.551 165.273  42.796  0.00  0.00    +0.043 C 
ENDBRANCH  23  24
ENDBRANCH   5  23
ENDBRANCH   3   5
ENDBRANCH   1   3
BRANCH   1  26
ATOM     26  S   UNL     1      60.219 165.460  37.468  0.00  0.00    +0.064 S 
BRANCH  26  27
ATOM     27  O   UNL     1      61.179 165.148  36.107  0.00  0.00    -0.208 OA
BRANCH  27  28
ATOM     28  P   UNL     1      60.603 166.015  34.799  0.00  0.00    +0.495 P 
ATOM     29  O   UNL     1      59.302 165.356  34.353  0.00  0.00    -0.226 OA
BRANCH  28  30
ATOM     30  O   UNL     1      61.657 165.962  33.492  0.00  0.00    -0.302 OA
ATOM     31  H   UNL     1      61.233 165.496  32.754  0.00  0.00    +0.222 HD
ENDBRANCH  28  30
BRANCH  28  32
ATOM     32  O   UNL     1      60.246 167.613  35.221  0.00  0.00    -0.185 OA
BRANCH  32  33
ATOM     33  P   UNL     1      61.678 168.513  35.122  0.00  0.00    +0.492 P 
ATOM     34  O   UNL     1      61.551 169.784  35.941  0.00  0.00    -0.226 OA
BRANCH  33  35
ATOM     35  O   UNL     1      61.923 168.942  33.504  0.00  0.00    -0.302 OA
ATOM     36  H   UNL     1      61.332 168.421  32.938  0.00  0.00    +0.222 HD
ENDBRANCH  33  35
BRANCH  33  37
ATOM     37  O   UNL     1      62.971 167.626  35.717  0.00  0.00    -0.186 OA
BRANCH  37  38
ATOM     38  P   UNL     1      64.415 168.044  34.956  0.00  0.00    +0.492 P 
ATOM     39  O   UNL     1      64.505 169.561  34.919  0.00  0.00    -0.226 OA
BRANCH  38  40
ATOM     40  O   UNL     1      65.764 167.462  35.781  0.00  0.00    -0.302 OA
ATOM     41  H   UNL     1      66.176 168.185  36.280  0.00  0.00    +0.222 HD
ENDBRANCH  38  40
BRANCH  38  42
ATOM     42  O   UNL     1      64.471 167.473  33.361  0.00  0.00    -0.186 OA
BRANCH  42  43
ATOM     43  P   UNL     1      64.884 165.825  33.442  0.00  0.00    +0.481 P 
ATOM     44  O   UNL     1      66.392 165.647  33.518  0.00  0.00    -0.227 OA
BRANCH  43  45
ATOM     45  O   UNL     1      64.326 165.019  32.061  0.00  0.00    -0.302 OA
ATOM     46  H   UNL     1      64.508 165.559  31.276  0.00  0.00    +0.222 HD
ENDBRANCH  43  45
BRANCH  43  47
ATOM     47  O   UNL     1      64.162 165.117  34.806  0.00  0.00    -0.302 OA
ATOM     48  H   UNL     1      64.620 165.418  35.607  0.00  0.00    +0.222 HD
ENDBRANCH  43  47
ENDBRANCH  42  43
ENDBRANCH  38  42
ENDBRANCH  37  38
ENDBRANCH  33  37
ENDBRANCH  32  33
ENDBRANCH  28  32
ENDBRANCH  27  28
ENDBRANCH  26  27
ENDBRANCH   1  26
TORSDOF 18
ENDMDL
