REMARK  Name = =
REMARK  2 active torsions:
REMARK  status: ('A' for Active; 'I' for Inactive)
REMARK    1  A    between atoms: C_1  and  C_3
REMARK    2  A    between atoms: C_1  and  O_5
REMARK                            x       y       z     vdW  Elec       q    Type
REMARK                         _______ _______ _______ _____ _____    ______ ____
ROOT
ATOM      1  C   UNL     1      52.200 155.315  28.051  0.00  0.00    +0.381 C 
ATOM      2  O   UNL     1      52.152 155.402  26.811  0.00  0.00    -0.241 OA
ENDROOT
BRANCH   1   3
ATOM      3  C   UNL     1      50.979 155.090  28.783  0.00  0.00    +0.315 C 
ATOM      4  O   UNL     1      50.845 155.547  29.954  0.00  0.00    -0.276 OA
ENDBRANCH   1   3
BRANCH   1   5
ATOM      5  O   UNL     1      53.383 155.429  28.724  0.00  0.00    -0.475 OA
ATOM      6  H   UNL     1      53.399 155.361  29.658  0.00  0.00    +0.296 HD
ENDBRANCH   1   5
TORSDOF 2
