REMARK  Name = =
REMARK  0 active torsions:
REMARK  status: ('A' for Active; 'I' for Inactive)
REMARK                            x       y       z     vdW  Elec       q    Type
REMARK                         _______ _______ _______ _____ _____    ______ ____
ROOT
ATOM      1  C   UNL     1      52.026 155.911  28.010  0.00  0.00    +0.116 C 
ATOM      2  C   UNL     1      53.091 155.307  27.126  0.00  0.00    +0.133 C 
ATOM      3  S   UNL     1      52.560 155.034  25.389  0.00  0.00    -0.119 S 
ATOM      4  C   UNL     1      52.707 153.201  25.401  0.00  0.00    +0.081 C 
ATOM      5  C   UNL     1      53.364 152.995  26.765  0.00  0.00    +0.106 C 
ATOM      6  N   UNL     1      52.803 153.976  27.648  0.00  0.00    -0.271 N 
ATOM      7  C   UNL     1      52.128 154.592  28.728  0.00  0.00    +0.229 C 
ATOM      8  O   UNL     1      51.715 154.289  29.881  0.00  0.00    -0.275 OA
ENDROOT
TORSDOF 0
