REMARK  Name = =
REMARK  0 active torsions:
REMARK  status: ('A' for Active; 'I' for Inactive)
REMARK                            x       y       z     vdW  Elec       q    Type
REMARK                         _______ _______ _______ _____ _____    ______ ____
ROOT
ATOM      1  C   UNL     1      52.755 156.931  27.675  0.00  0.00    +0.008 C 
ATOM      2  C   UNL     1      52.581 155.489  27.260  0.00  0.00    +0.008 C 
ATOM      3  C   UNL     1      51.273 155.135  27.955  0.00  0.00    +0.065 C 
ATOM      4  C   UNL     1      51.528 155.713  29.281  0.00  0.00    +0.151 C 
ATOM      5  O   UNL     1      51.312 155.191  30.328  0.00  0.00    -0.296 OA
ATOM      6  C   UNL     1      52.096 157.047  29.055  0.00  0.00    +0.065 C 
ENDROOT
TORSDOF 0
