REMARK  Name = =
REMARK  1 active torsions:
REMARK  status: ('A' for Active; 'I' for Inactive)
REMARK    1  A    between atoms: C_1  and  N_7
REMARK                            x       y       z     vdW  Elec       q    Type
REMARK                         _______ _______ _______ _____ _____    ______ ____
ROOT
ATOM      1  C   UNL     1      51.859 155.559  28.479  0.00  0.00    +0.066 C 
ATOM      2  C   UNL     1      53.253 154.997  28.623  0.00  0.00    +0.024 C 
ATOM      3  C   UNL     1      53.120 153.501  28.359  0.00  0.00    +0.066 C 
ATOM      4  C   UNL     1      51.828 153.218  29.040  0.00  0.00    +0.152 C 
ATOM      5  O   UNL     1      51.489 152.177  29.526  0.00  0.00    -0.296 OA
ATOM      6  C   UNL     1      50.993 154.474  29.023  0.00  0.00    +0.080 C 
ENDROOT
BRANCH   1   7
ATOM      7  N   UNL     1      51.766 156.789  29.234  0.00  0.00    -0.270 NA
ATOM      8  C   UNL     1      52.749 157.754  28.872  0.00  0.00    +0.077 C 
ATOM      9  C   UNL     1      52.343 159.190  29.120  0.00  0.00    +0.043 C 
ATOM     10  C   UNL     1      51.332 159.333  30.201  0.00  0.00    -0.028 C 
ATOM     11  C   UNL     1      50.373 158.412  30.234  0.00  0.00    -0.013 C 
ATOM     12  C   UNL     1      50.439 157.359  29.184  0.00  0.00    +0.099 C 
ENDBRANCH   1   7
TORSDOF 1
