REMARK  Name = =
REMARK  2 active torsions:
REMARK  status: ('A' for Active; 'I' for Inactive)
REMARK    1  A    between atoms: C_1  and  C_4
REMARK    2  A    between atoms: C_1  and  O_6
REMARK                            x       y       z     vdW  Elec       q    Type
REMARK                         _______ _______ _______ _____ _____    ______ ____
ROOT
ATOM      1  C   UNL     1      51.631 155.416  28.739  0.00  0.00    +0.407 C 
ATOM      2  O   UNL     1      51.206 155.376  29.921  0.00  0.00    -0.239 OA
ENDROOT
BRANCH   1   4
ATOM      3  F   UNL     1      52.563 157.661  29.001  0.00  0.00    -0.152 F 
ATOM      4  C   UNL     1      52.453 156.522  28.279  0.00  0.00    +0.408 C 
ATOM      5  O   UNL     1      53.094 156.467  27.200  0.00  0.00    -0.247 OA
ENDBRANCH   1   4
BRANCH   1   6
ATOM      6  O   UNL     1      51.279 154.365  27.903  0.00  0.00    -0.473 OA
ATOM      7  H   UNL     1      51.574 154.355  27.014  0.00  0.00    +0.296 HD
ENDBRANCH   1   6
TORSDOF 2
