REMARK  Name = =
REMARK  4 active torsions:
REMARK  status: ('A' for Active; 'I' for Inactive)
REMARK    1  A    between atoms: C_1  and  C_4
REMARK    2  A    between atoms: C_1  and  O_6
REMARK    3  A    between atoms: O_6  and  S_7
REMARK    4  A    between atoms: S_7  and  P_8
REMARK                            x       y       z     vdW  Elec       q    Type
REMARK                         _______ _______ _______ _____ _____    ______ ____
ROOT
ATOM      1  C   UNL     1      52.260 155.537  27.982  0.00  0.00    +0.420 C 
ATOM      2  O   UNL     1      53.276 156.130  27.535  0.00  0.00    -0.238 OA
ENDROOT
BRANCH   1   4
ATOM      3  F   UNL     1      51.894 157.268  29.629  0.00  0.00    -0.152 F 
ATOM      4  C   UNL     1      51.535 156.061  29.132  0.00  0.00    +0.410 C 
ATOM      5  O   UNL     1      50.608 155.442  29.663  0.00  0.00    -0.247 OA
ENDBRANCH   1   4
BRANCH   1   6
ATOM      6  O   UNL     1      51.882 154.376  27.324  0.00  0.00    -0.395 OA
BRANCH   6   7
ATOM      7  S   UNL     1      53.034 153.146  26.896  0.00  0.00    -0.014 S 
ATOM      8  H   UNL     1      52.439 151.923  26.909  0.00  0.00    +0.139 HD
BRANCH   7   9
ATOM      9  P   UNL     1      53.665 153.563  25.107  0.00  0.00    +0.000 P 
ATOM     10  H   UNL     1      54.266 154.805  25.109  0.00  0.00    +0.076 HD
ENDBRANCH   7   9
ENDBRANCH   6   7
ENDBRANCH   1   6
TORSDOF 4
