REMARK  Name = =
REMARK  2 active torsions:
REMARK  status: ('A' for Active; 'I' for Inactive)
REMARK    1  A    between atoms: C_1  and  N_7
REMARK    2  A    between atoms: C_1  and  S_13
REMARK                            x       y       z     vdW  Elec       q    Type
REMARK                         _______ _______ _______ _____ _____    ______ ____
ROOT
ATOM      1  C   UNL     1      51.787 155.345  28.665  0.00  0.00    +0.161 C 
ATOM      2  C   UNL     1      52.207 156.130  27.456  0.00  0.00    +0.045 C 
ATOM      3  C   UNL     1      51.825 155.318  26.243  0.00  0.00    +0.068 C 
ATOM      4  C   UNL     1      51.519 153.972  26.779  0.00  0.00    +0.154 C 
ATOM      5  O   UNL     1      51.737 152.912  26.217  0.00  0.00    -0.296 OA
ATOM      6  C   UNL     1      50.908 154.224  28.115  0.00  0.00    +0.101 C 
ENDROOT
BRANCH   1   7
ATOM      7  N   UNL     1      51.009 156.138  29.560  0.00  0.00    -0.258 NA
ATOM      8  C   UNL     1      51.229 157.535  29.536  0.00  0.00    +0.073 C 
ATOM      9  C   UNL     1      50.345 158.136  30.649  0.00  0.00    +0.017 C 
ATOM     10  C   UNL     1      48.990 158.124  30.026  0.00  0.00    +0.003 C 
ATOM     11  C   UNL     1      48.694 156.987  29.413  0.00  0.00    +0.017 C 
ATOM     12  C   UNL     1      49.624 155.833  29.350  0.00  0.00    +0.073 C 
ENDBRANCH   1   7
BRANCH   1  13
ATOM     13  S   UNL     1      53.169 154.513  29.385  0.00  0.00    -0.021 S 
ATOM     14  O   UNL     1      53.731 153.596  28.309  0.00  0.00    -0.175 OA
ATOM     15  O   UNL     1      54.258 155.367  29.869  0.00  0.00    -0.175 OA
ATOM     16  H   UNL     1      52.703 153.877  30.493  0.00  0.00    +0.211 HD
ENDBRANCH   1  13
TORSDOF 2
