REMARK  Name = =
REMARK  5 active torsions:
REMARK  status: ('A' for Active; 'I' for Inactive)
REMARK    1  A    between atoms: C_1  and  N_7
REMARK    2  A    between atoms: C_1  and  S_13
REMARK    3  A    between atoms: S_13  and  N_16
REMARK    4  A    between atoms: N_16  and  C_17
REMARK    5  A    between atoms: C_17  and  S_19
REMARK                            x       y       z     vdW  Elec       q    Type
REMARK                         _______ _______ _______ _____ _____    ______ ____
ROOT
ATOM      1  C   UNL     1      52.107 155.489  28.276  0.00  0.00    +0.183 C 
ATOM      2  C   UNL     1      51.184 154.356  27.806  0.00  0.00    +0.047 C 
ATOM      3  C   UNL     1      51.544 153.203  28.684  0.00  0.00    +0.068 C 
ATOM      4  C   UNL     1      52.945 153.476  29.084  0.00  0.00    +0.154 C 
ATOM      5  O   UNL     1      53.811 152.633  29.273  0.00  0.00    -0.296 OA
ATOM      6  C   UNL     1      53.086 154.946  29.211  0.00  0.00    +0.104 C 
ENDROOT
BRANCH   1   7
ATOM      7  N   UNL     1      51.218 156.477  28.834  0.00  0.00    -0.256 NA
ATOM      8  C   UNL     1      49.939 156.036  29.263  0.00  0.00    +0.074 C 
ATOM      9  C   UNL     1      49.395 156.949  30.350  0.00  0.00    +0.017 C 
ATOM     10  C   UNL     1      49.698 158.370  30.052  0.00  0.00    +0.003 C 
ATOM     11  C   UNL     1      50.973 158.618  29.747  0.00  0.00    +0.017 C 
ATOM     12  C   UNL     1      51.826 157.368  29.779  0.00  0.00    +0.074 C 
ENDBRANCH   1   7
BRANCH   1  13
ATOM     13  S   UNL     1      52.841 156.147  26.822  0.00  0.00    +0.065 S 
ATOM     14  O   UNL     1      52.796 157.670  26.817  0.00  0.00    -0.153 OA
ATOM     15  O   UNL     1      54.345 155.749  26.918  0.00  0.00    -0.153 OA
BRANCH  13  16
ATOM     16  N   UNL     1      52.275 155.627  25.328  0.00  0.00    -0.206 N 
ATOM     17  H   UNL     1      51.371 155.952  25.111  0.00  0.00    +0.174 HD
BRANCH  16  18
ATOM     18  C   UNL     1      52.821 154.848  24.366  0.00  0.00    +0.123 C 
ATOM     19  S   UNL     1      52.126 154.905  22.832  0.00  0.00    -0.027 S 
BRANCH  18  20
ATOM     20  S   UNL     1      54.182 153.756  24.480  0.00  0.00    -0.119 S 
ATOM     21  H   UNL     1      54.675 153.777  25.747  0.00  0.00    +0.109 HD
ENDBRANCH  18  20
ENDBRANCH  16  18
ENDBRANCH  13  16
ENDBRANCH   1  13
TORSDOF 5
