REMARK  Name = =
REMARK  5 active torsions:
REMARK  status: ('A' for Active; 'I' for Inactive)
REMARK    1  A    between atoms: S_1  and  P_2
REMARK    2  A    between atoms: S_1  and  O_8
REMARK    3  A    between atoms: P_2  and  C_3
REMARK    4  A    between atoms: O_8  and  C_9
REMARK    5  A    between atoms: C_9  and  C_12
REMARK                            x       y       z     vdW  Elec       q    Type
REMARK                         _______ _______ _______ _____ _____    ______ ____
ROOT
ATOM      1  S   UNL     1      52.001 153.921  26.368  0.00  0.00    -0.009 S 
ATOM      2  H   UNL     1      51.064 153.086  26.891  0.00  0.00    +0.139 HD
ENDROOT
BRANCH   1   3
ATOM      3  P   UNL     1      53.760 153.259  26.782  0.00  0.00    +0.039 P 
BRANCH   3   4
ATOM      4  C   UNL     1      54.357 151.613  26.238  0.00  0.00    +0.097 C 
ATOM      5  S   UNL     1      54.978 151.785  24.514  0.00  0.00    -0.117 S 
ATOM      6  C   UNL     1      53.951 150.437  23.795  0.00  0.00    +0.128 C 
ATOM      7  N   UNL     1      53.734 149.659  25.027  0.00  0.00    -0.287 NA
ATOM      8  C   UNL     1      53.200 150.641  25.964  0.00  0.00    +0.086 C 
ATOM      9  H   UNL     1      54.611 149.268  25.370  0.00  0.00    +0.124 HD
ENDBRANCH   3   4
ENDBRANCH   1   3
BRANCH   1  10
ATOM     10  O   UNL     1      51.824 155.490  27.052  0.00  0.00    -0.394 OA
BRANCH  10  11
ATOM     11  C   UNL     1      51.875 155.657  28.435  0.00  0.00    +0.420 C 
ATOM     12  O   UNL     1      51.702 154.641  29.131  0.00  0.00    -0.238 OA
BRANCH  11  14
ATOM     13  F   UNL     1      52.013 157.041  30.403  0.00  0.00    -0.152 F 
ATOM     14  C   UNL     1      52.115 156.939  29.061  0.00  0.00    +0.410 C 
ATOM     15  O   UNL     1      52.415 157.943  28.362  0.00  0.00    -0.247 OA
ENDBRANCH  11  14
ENDBRANCH  10  11
ENDBRANCH   1  10
TORSDOF 5
