REMARK  Name = =
REMARK  6 active torsions:
REMARK  status: ('A' for Active; 'I' for Inactive)
REMARK    1  A    between atoms: C_1  and  C_6
REMARK    2  A    between atoms: C_1  and  P_13
REMARK    3  A    between atoms: S_12  and  P_13
REMARK    4  A    between atoms: S_12  and  O_14
REMARK    5  A    between atoms: O_14  and  C_15
REMARK    6  A    between atoms: C_15  and  C_18
REMARK                            x       y       z     vdW  Elec       q    Type
REMARK                         _______ _______ _______ _____ _____    ______ ____
ROOT
ATOM      1  C   UNL     1      52.192 154.712  27.277  0.00  0.00    +0.135 C 
ATOM      2  S   UNL     1      50.721 155.307  28.202  0.00  0.00    -0.111 S 
ATOM      3  C   UNL     1      51.659 155.800  29.709  0.00  0.00    +0.129 C 
ATOM      4  N   UNL     1      52.921 156.021  29.157  0.00  0.00    -0.287 NA
ATOM      5  C   UNL     1      53.299 155.153  28.166  0.00  0.00    +0.092 C 
ATOM      6  H   UNL     1      53.607 155.956  29.909  0.00  0.00    +0.124 HD
ENDROOT
BRANCH   1   7
ATOM      7  C   UNL     1      52.075 153.225  27.294  0.00  0.00    +0.154 C 
ATOM      8  N   UNL     1      52.412 152.525  26.201  0.00  0.00    -0.228 NA
ATOM      9  C   UNL     1      52.349 151.188  26.113  0.00  0.00    +0.102 C 
ATOM     10  C   UNL     1      51.913 150.465  27.206  0.00  0.00    +0.041 C 
ATOM     11  C   UNL     1      51.569 151.179  28.325  0.00  0.00    +0.102 C 
ATOM     12  N   UNL     1      51.650 152.527  28.361  0.00  0.00    -0.228 NA
ENDBRANCH   1   7
BRANCH   1  13
ATOM     13  P   UNL     1      52.201 155.421  25.588  0.00  0.00    +0.046 P 
BRANCH  13  14
ATOM     14  S   UNL     1      53.217 154.680  24.146  0.00  0.00    -0.009 S 
ATOM     15  H   UNL     1      52.369 154.328  23.143  0.00  0.00    +0.139 HD
BRANCH  14  16
ATOM     16  O   UNL     1      54.098 153.293  24.644  0.00  0.00    -0.394 OA
BRANCH  16  17
ATOM     17  C   UNL     1      55.448 153.442  24.967  0.00  0.00    +0.420 C 
ATOM     18  O   UNL     1      56.009 154.517  24.672  0.00  0.00    -0.238 OA
BRANCH  17  20
ATOM     19  F   UNL     1      57.377 152.574  26.223  0.00  0.00    -0.152 F 
ATOM     20  C   UNL     1      56.181 152.371  25.631  0.00  0.00    +0.410 C 
ATOM     21  O   UNL     1      55.697 151.220  25.659  0.00  0.00    -0.247 OA
ENDBRANCH  17  20
ENDBRANCH  16  17
ENDBRANCH  14  16
ENDBRANCH  13  14
ENDBRANCH   1  13
TORSDOF 6
