REMARK  Name = =
REMARK  0 active torsions:
REMARK  status: ('A' for Active; 'I' for Inactive)
REMARK                            x       y       z     vdW  Elec       q    Type
REMARK                         _______ _______ _______ _____ _____    ______ ____
ROOT
ATOM      1  C   UNL     1      52.389 155.072  28.200  0.00  0.00    +0.000 C 
ATOM      2  C   UNL     1      52.462 156.154  27.112  0.00  0.00    +0.000 C 
ATOM      3  C   UNL     1      53.393 155.658  26.066  0.00  0.00    +0.000 C 
ATOM      4  C   UNL     1      53.266 154.129  26.030  0.00  0.00    +0.000 C 
ATOM      5  C   UNL     1      51.772 153.838  26.212  0.00  0.00    +0.000 C 
ATOM      6  C   UNL     1      51.395 154.062  27.682  0.00  0.00    +0.000 C 
ATOM      7  C   UNL     1      52.967 157.314  27.909  0.00  0.00    +0.000 C 
ATOM      8  C   UNL     1      51.968 157.295  29.076  0.00  0.00    +0.000 C 
ATOM      9  C   UNL     1      51.946 155.805  29.407  0.00  0.00    +0.000 C 
ENDROOT
TORSDOF 0
