REMARK  Name = =
REMARK  0 active torsions:
REMARK  status: ('A' for Active; 'I' for Inactive)
REMARK                            x       y       z     vdW  Elec       q    Type
REMARK                         _______ _______ _______ _____ _____    ______ ____
ROOT
ATOM      1  C   UNL     1      51.578 155.450  28.416  0.00  0.00    +0.019 C 
ATOM      2  C   UNL     1      52.778 155.806  27.528  0.00  0.00    +0.069 C 
ATOM      3  N   UNL     1      53.031 154.596  26.797  0.00  0.00    -0.297 NA
ATOM      4  C   UNL     1      52.457 153.501  27.553  0.00  0.00    +0.069 C 
ATOM      5  C   UNL     1      52.093 154.092  28.922  0.00  0.00    +0.019 C 
ATOM      6  H   UNL     1      54.036 154.457  26.691  0.00  0.00    +0.123 HD
ENDROOT
TORSDOF 0
