REMARK  Name = =
REMARK  2 active torsions:
REMARK  status: ('A' for Active; 'I' for Inactive)
REMARK    1  A    between atoms: C_1  and  C_11
REMARK    2  A    between atoms: C_9  and  O_16
REMARK                            x       y       z     vdW  Elec       q    Type
REMARK                         _______ _______ _______ _____ _____    ______ ____
ROOT
ATOM      1  C   UNL     1      51.310 156.990  28.552  0.00  0.00    +0.023 C 
ATOM      2  C   UNL     1      51.253 155.685  29.339  0.00  0.00    +0.005 C 
ATOM      3  C   UNL     1      50.109 155.623  30.289  0.00  0.00    +0.005 C 
ATOM      4  C   UNL     1      49.124 156.756  30.132  0.00  0.00    +0.026 C 
ATOM      5  C   UNL     1      49.961 158.007  30.282  0.00  0.00    -0.023 C 
ATOM      6  C   UNL     1      51.083 158.101  29.452  0.00  0.00    -0.026 C 
ATOM      7  C   UNL     1      51.886 159.219  29.535  0.00  0.00    -0.001 C 
ATOM      8  C   UNL     1      51.564 160.214  30.431  0.00  0.00    +0.036 C 
ATOM      9  C   UNL     1      50.443 160.099  31.245  0.00  0.00    +0.133 C 
ATOM     10  C   UNL     1      49.630 158.985  31.173  0.00  0.00    +0.032 C 
ENDROOT
BRANCH   1  11
ATOM     11  C   UNL     1      52.335 157.041  27.530  0.00  0.00    +0.021 C 
ATOM     12  C   UNL     1      53.742 157.315  27.800  0.00  0.00    +0.069 C 
ATOM     13  N   UNL     1      54.402 156.921  26.534  0.00  0.00    -0.297 NA
ATOM     14  C   UNL     1      53.573 155.969  25.884  0.00  0.00    +0.069 C 
ATOM     15  C   UNL     1      52.404 155.681  26.823  0.00  0.00    +0.019 C 
ATOM     16  H   UNL     1      55.313 156.508  26.733  0.00  0.00    +0.123 HD
ENDBRANCH   1  11
BRANCH   9  17
ATOM     17  O   UNL     1      50.123 161.103  32.147  0.00  0.00    -0.506 OA
ATOM     18  H   UNL     1      50.663 161.866  32.210  0.00  0.00    +0.292 HD
ENDBRANCH   9  17
TORSDOF 2
