REMARK  Name = =
REMARK  2 active torsions:
REMARK  status: ('A' for Active; 'I' for Inactive)
REMARK    1  A    between atoms: C_1  and  N_10
REMARK    2  A    between atoms: N_10  and  O_11
REMARK                            x       y       z     vdW  Elec       q    Type
REMARK                         _______ _______ _______ _____ _____    ______ ____
ROOT
ATOM      1  C   UNL     1      51.684 155.030  28.296  0.00  0.00    +0.070 C 
ATOM      2  C   UNL     1      51.828 155.214  26.839  0.00  0.00    +0.020 C 
ATOM      3  C   UNL     1      52.052 153.931  26.118  0.00  0.00    +0.027 C 
ATOM      4  C   UNL     1      53.310 153.297  26.613  0.00  0.00    -0.031 C 
ATOM      5  C   UNL     1      53.466 153.249  28.083  0.00  0.00    -0.029 C 
ATOM      6  C   UNL     1      52.458 153.931  28.909  0.00  0.00    +0.042 C 
ATOM      7  C   UNL     1      52.798 156.293  26.552  0.00  0.00    +0.002 C 
ATOM      8  C   UNL     1      53.161 156.869  27.903  0.00  0.00    +0.001 C 
ATOM      9  C   UNL     1      52.073 156.406  28.846  0.00  0.00    +0.017 C 
ENDROOT
BRANCH   1  10
ATOM     10  N   UNL     1      50.260 154.838  28.561  0.00  0.00    -0.196 NA
ATOM     11  H   UNL     1      50.141 153.976  29.093  0.00  0.00    +0.154 HD
BRANCH  10  12
ATOM     12  O   UNL     1      49.723 155.837  29.249  0.00  0.00    -0.314 OA
ATOM     13  H   UNL     1      49.829 156.664  28.754  0.00  0.00    +0.236 HD
ENDBRANCH  10  12
ENDBRANCH   1  10
TORSDOF 2
