REMARK  Name = =
REMARK  3 active torsions:
REMARK  status: ('A' for Active; 'I' for Inactive)
REMARK    1  A    between atoms: C_1  and  N_11
REMARK    2  A    between atoms: C_1  and  C_18
REMARK    3  A    between atoms: C_9  and  O_23
REMARK                            x       y       z     vdW  Elec       q    Type
REMARK                         _______ _______ _______ _____ _____    ______ ____
ROOT
ATOM      1  C   UNL     1      51.852 155.316  27.633  0.00  0.00    +0.065 C 
ATOM      2  C   UNL     1      50.405 154.894  27.732  0.00  0.00    +0.019 C 
ATOM      3  C   UNL     1      49.783 155.036  29.084  0.00  0.00    +0.006 C 
ATOM      4  C   UNL     1      49.658 156.548  29.311  0.00  0.00    +0.026 C 
ATOM      5  C   UNL     1      51.043 157.140  29.182  0.00  0.00    -0.022 C 
ATOM      6  C   UNL     1      52.031 156.542  28.435  0.00  0.00    -0.013 C 
ATOM      7  C   UNL     1      53.274 157.193  28.478  0.00  0.00    -0.000 C 
ATOM      8  C   UNL     1      53.485 158.337  29.202  0.00  0.00    +0.036 C 
ATOM      9  C   UNL     1      52.468 158.904  29.936  0.00  0.00    +0.133 C 
ATOM     10  C   UNL     1      51.226 158.294  29.924  0.00  0.00    +0.032 C 
ENDROOT
BRANCH   1  11
ATOM     11  N   UNL     1      52.742 154.300  28.164  0.00  0.00    -0.270 NA
ATOM     12  C   UNL     1      52.548 152.975  27.749  0.00  0.00    +0.091 C 
ATOM     13  C   UNL     1      53.836 152.296  27.256  0.00  0.00    +0.106 C 
ATOM     14  N   UNL     1      55.010 152.809  27.924  0.00  0.00    -0.217 NA
ATOM     15  C   UNL     1      54.807 152.795  29.348  0.00  0.00    +0.090 C 
ATOM     16  C   UNL     1      54.570 154.236  29.779  0.00  0.00    +0.036 C 
ATOM     17  C   UNL     1      53.074 154.480  29.536  0.00  0.00    +0.074 C 
ENDBRANCH   1  11
BRANCH   1  18
ATOM     18  C   UNL     1      52.115 155.397  26.187  0.00  0.00    +0.034 C 
ATOM     19  C   UNL     1      53.298 156.163  25.703  0.00  0.00    +0.070 C 
ATOM     20  N   UNL     1      53.166 155.991  24.239  0.00  0.00    -0.297 NA
ATOM     21  C   UNL     1      52.399 154.784  24.011  0.00  0.00    +0.069 C 
ATOM     22  C   UNL     1      52.315 154.122  25.417  0.00  0.00    +0.020 C 
ATOM     23  H   UNL     1      54.089 155.903  23.814  0.00  0.00    +0.123 HD
ENDBRANCH   1  18
BRANCH   9  24
ATOM     24  O   UNL     1      52.660 160.062  30.677  0.00  0.00    -0.506 OA
ATOM     25  H   UNL     1      53.500 160.478  30.687  0.00  0.00    +0.292 HD
ENDBRANCH   9  24
TORSDOF 3
