REMARK  Name = =
REMARK  6 active torsions:
REMARK  status: ('A' for Active; 'I' for Inactive)
REMARK    1  A    between atoms: N_1  and  C_2
REMARK    2  A    between atoms: N_1  and  S_11
REMARK    3  A    between atoms: N_1  and  O_14
REMARK    4  A    between atoms: S_11  and  S_12
REMARK    5  A    between atoms: S_12  and  S_13
REMARK    6  A    between atoms: O_14  and  C_15
REMARK                            x       y       z     vdW  Elec       q    Type
REMARK                         _______ _______ _______ _____ _____    ______ ____
ROOT
ATOM      1  N   UNL     1      52.106 156.119  26.734  0.00  0.00    -0.065 NA
ENDROOT
BRANCH   1   2
ATOM      2  C   UNL     1      51.642 156.127  28.116  0.00  0.00    +0.092 C 
ATOM      3  C   UNL     1      52.790 155.910  29.011  0.00  0.00    +0.018 C 
ATOM      4  C   UNL     1      52.490 155.349  30.359  0.00  0.00    +0.001 C 
ATOM      5  C   UNL     1      51.333 154.433  30.429  0.00  0.00    +0.000 C 
ATOM      6  C   UNL     1      50.931 153.997  29.054  0.00  0.00    +0.001 C 
ATOM      7  C   UNL     1      50.457 155.265  28.335  0.00  0.00    +0.019 C 
ATOM      8  C   UNL     1      53.474 157.252  29.213  0.00  0.00    +0.001 C 
ATOM      9  C   UNL     1      52.432 158.289  28.885  0.00  0.00    +0.002 C 
ATOM     10  C   UNL     1      51.217 157.575  28.392  0.00  0.00    +0.019 C 
ENDBRANCH   1   2
BRANCH   1  11
ATOM     11  S   UNL     1      52.057 154.547  26.000  0.00  0.00    +0.042 S 
BRANCH  11  12
ATOM     12  S   UNL     1      52.270 154.792  23.898  0.00  0.00    -0.008 S 
BRANCH  12  13
ATOM     13  S   UNL     1      50.413 155.463  23.137  0.00  0.00    -0.098 S 
ATOM     14  H   UNL     1      50.509 155.632  21.791  0.00  0.00    +0.115 HD
ENDBRANCH  12  13
ENDBRANCH  11  12
ENDBRANCH   1  11
BRANCH   1  15
ATOM     15  O   UNL     1      53.375 156.637  26.629  0.00  0.00    -0.387 OA
BRANCH  15  16
ATOM     16  C   UNL     1      53.994 156.540  25.396  0.00  0.00    +0.215 C 
ATOM     17  C   UNL     1      54.774 155.525  25.114  0.00  0.00    +0.111 C 
ATOM     18 CL   UNL     1      55.585 155.343  23.581  0.00  0.00    -0.078 Cl
ENDBRANCH  15  16
ENDBRANCH   1  15
TORSDOF 6
