REMARK  Name = =
REMARK  5 active torsions:
REMARK  status: ('A' for Active; 'I' for Inactive)
REMARK    1  A    between atoms: S_2  and  N_3
REMARK    2  A    between atoms: N_3  and  S_4
REMARK    3  A    between atoms: S_4  and  N_7
REMARK    4  A    between atoms: N_11  and  O_21
REMARK    5  A    between atoms: O_21  and  C_22
REMARK                            x       y       z     vdW  Elec       q    Type
REMARK                         _______ _______ _______ _____ _____    ______ ____
ROOT
ATOM      1  S   UNL     1      52.779 155.587  28.059  0.00  0.00    +0.033 S 
ATOM      2  S   UNL     1      52.958 157.110  27.870  0.00  0.00    -0.073 S 
ATOM      3  S   UNL     1      54.216 157.239  26.740  0.00  0.00    -0.152 S 
ATOM      4  N   UNL     1      52.980 154.312  27.052  0.00  0.00    -0.065 NA
ATOM      5  C   UNL     1      53.669 154.457  25.801  0.00  0.00    +0.105 C 
ATOM      6  C   UNL     1      53.007 153.537  24.820  0.00  0.00    +0.023 C 
ATOM      7  C   UNL     1      53.726 153.288  23.565  0.00  0.00    +0.027 C 
ATOM      8  C   UNL     1      55.101 153.790  23.427  0.00  0.00    -0.031 C 
ATOM      9  C   UNL     1      55.864 154.107  24.646  0.00  0.00    -0.029 C 
ATOM     10  C   UNL     1      55.101 154.126  25.924  0.00  0.00    +0.046 C 
ATOM     11  C   UNL     1      51.661 154.231  24.603  0.00  0.00    +0.003 C 
ATOM     12  C   UNL     1      51.854 155.673  25.009  0.00  0.00    +0.012 C 
ATOM     13  C   UNL     1      53.365 155.810  25.245  0.00  0.00    +0.063 C 
ATOM     14  H   UNL     1      53.420 157.932  28.850  0.00  0.00    +0.121 HD
ATOM     15  H   UNL     1      55.411 156.823  27.239  0.00  0.00    +0.103 HD
ENDROOT
BRANCH   2  16
ATOM     16  N   UNL     1      51.729 157.921  28.036  0.00  0.00    -0.123 NA
ATOM     17  H   UNL     1      50.966 157.321  27.723  0.00  0.00    +0.163 HD
BRANCH  16  18
ATOM     18  S   UNL     1      51.186 158.614  29.499  0.00  0.00    +0.121 S 
ATOM     19  O   UNL     1      49.972 159.454  29.249  0.00  0.00    -0.137 OA
ATOM     20  O   UNL     1      52.295 159.460  30.057  0.00  0.00    -0.137 OA
BRANCH  18  21
ATOM     21  N   UNL     1      50.768 157.336  30.584  0.00  0.00    -0.167 N 
ATOM     22  C   UNL     1      49.907 156.275  30.194  0.00  0.00    +0.320 C 
ATOM     23  O   UNL     1      49.428 156.251  29.034  0.00  0.00    -0.263 OA
ATOM     24  H   UNL     1      51.136 157.343  31.497  0.00  0.00    +0.178 HD
ENDBRANCH  18  21
ENDBRANCH  16  18
ENDBRANCH   2  16
BRANCH   4  25
ATOM     25  O   UNL     1      53.327 153.143  27.719  0.00  0.00    -0.387 OA
BRANCH  25  26
ATOM     26  C   UNL     1      52.379 152.142  27.682  0.00  0.00    +0.215 C 
ATOM     27  C   UNL     1      52.539 151.135  26.856  0.00  0.00    +0.111 C 
ATOM     28 CL   UNL     1      51.378 149.822  26.748  0.00  0.00    -0.078 Cl
ENDBRANCH  25  26
ENDBRANCH   4  25
TORSDOF 5
