REMARK  Name = =
REMARK  11 active torsions:
REMARK  status: ('A' for Active; 'I' for Inactive)
REMARK    1  A    between atoms: S_1  and  S_2
REMARK    2  A    between atoms: S_1  and  N_3
REMARK    3  A    between atoms: S_1  and  S_14
REMARK    4  A    between atoms: N_3  and  N_6
REMARK    5  A    between atoms: N_3  and  S_8
REMARK    6  A    between atoms: C_4  and  S_7
REMARK    7  A    between atoms: S_8  and  N_11
REMARK    8  A    between atoms: S_14  and  N_15
REMARK    9  A    between atoms: N_15  and  C_16
REMARK   10  A    between atoms: N_15  and  O_25
REMARK   11  A    between atoms: O_25  and  C_26
REMARK                            x       y       z     vdW  Elec       q    Type
REMARK                         _______ _______ _______ _____ _____    ______ ____
ROOT
ATOM      1  S   UNL     1      52.978 158.624  28.563  0.00  0.00    -0.044 S 
ATOM      2  H   UNL     1      52.678 159.043  27.304  0.00  0.00    +0.123 HD
ENDROOT
BRANCH   1   3
ATOM      3  S   UNL     1      54.571 158.827  28.821  0.00  0.00    -0.105 S 
ATOM      4  H   UNL     1      54.883 158.411  30.078  0.00  0.00    +0.114 HD
ENDBRANCH   1   3
BRANCH   1   5
ATOM      5  N   UNL     1      52.366 159.181  30.088  0.00  0.00    -0.023 NA
BRANCH   5   8
ATOM      6  C   UNL     1      52.396 161.233  31.371  0.00  0.00    +0.285 C 
ATOM      7  O   UNL     1      51.638 160.709  32.223  0.00  0.00    -0.262 OA
ATOM      8  N   UNL     1      52.821 160.509  30.224  0.00  0.00    -0.210 N 
ATOM      9  H   UNL     1      53.410 160.919  29.550  0.00  0.00    +0.173 HD
BRANCH   6  10
ATOM     10  S   UNL     1      53.005 162.920  31.526  0.00  0.00    -0.084 S 
ATOM     11  H   UNL     1      52.514 163.476  32.666  0.00  0.00    +0.112 HD
ENDBRANCH   6  10
ENDBRANCH   5   8
BRANCH   5  12
ATOM     12  S   UNL     1      50.659 159.207  30.012  0.00  0.00    +0.139 S 
ATOM     13  O   UNL     1      50.084 159.078  31.439  0.00  0.00    -0.136 OA
ATOM     14  O   UNL     1      50.105 157.979  29.311  0.00  0.00    -0.136 OA
BRANCH  12  15
ATOM     15  N   UNL     1      49.944 160.624  29.384  0.00  0.00    -0.166 N 
ATOM     16  C   UNL     1      48.793 161.136  30.070  0.00  0.00    +0.320 C 
ATOM     17  O   UNL     1      48.336 160.581  31.092  0.00  0.00    -0.263 OA
ATOM     18  H   UNL     1      50.306 161.071  28.585  0.00  0.00    +0.178 HD
ENDBRANCH  12  15
ENDBRANCH   5  12
ENDBRANCH   1   5
BRANCH   1  19
ATOM     19  S   UNL     1      52.395 156.900  29.177  0.00  0.00    +0.035 S 
BRANCH  19  20
ATOM     20  N   UNL     1      52.105 155.916  27.946  0.00  0.00    -0.066 NA
BRANCH  20  21
ATOM     21  C   UNL     1      51.514 154.620  28.082  0.00  0.00    +0.092 C 
ATOM     22  C   UNL     1      52.349 153.608  28.766  0.00  0.00    +0.018 C 
ATOM     23  C   UNL     1      52.349 152.299  27.970  0.00  0.00    +0.001 C 
ATOM     24  C   UNL     1      52.809 152.469  26.564  0.00  0.00    +0.000 C 
ATOM     25  C   UNL     1      52.141 153.662  25.934  0.00  0.00    +0.001 C 
ATOM     26  C   UNL     1      50.981 154.140  26.772  0.00  0.00    +0.019 C 
ATOM     27  C   UNL     1      51.623 153.261  30.058  0.00  0.00    +0.001 C 
ATOM     28  C   UNL     1      50.754 154.434  30.380  0.00  0.00    +0.002 C 
ATOM     29  C   UNL     1      50.277 154.820  28.989  0.00  0.00    +0.019 C 
ENDBRANCH  20  21
BRANCH  20  30
ATOM     30  O   UNL     1      53.226 155.715  27.114  0.00  0.00    -0.387 OA
BRANCH  30  31
ATOM     31  C   UNL     1      53.493 156.596  26.095  0.00  0.00    +0.215 C 
ATOM     32  C   UNL     1      54.347 156.252  25.151  0.00  0.00    +0.111 C 
ATOM     33 CL   UNL     1      54.684 157.358  23.872  0.00  0.00    -0.078 Cl
ENDBRANCH  30  31
ENDBRANCH  20  30
ENDBRANCH  19  20
ENDBRANCH   1  19
TORSDOF 11
