REMARK  Name = =
REMARK  0 active torsions:
REMARK  status: ('A' for Active; 'I' for Inactive)
REMARK                            x       y       z     vdW  Elec       q    Type
REMARK                         _______ _______ _______ _____ _____    ______ ____
ROOT
ATOM      1  C   UNL     1      52.796 156.563  28.302  0.00  0.00    +0.000 C 
ATOM      2  C   UNL     1      51.914 157.074  29.370  0.00  0.00    +0.000 C 
ATOM      3  C   UNL     1      50.704 156.315  29.672  0.00  0.00    +0.000 C 
ATOM      4  C   UNL     1      50.447 155.325  28.529  0.00  0.00    +0.000 C 
ATOM      5  C   UNL     1      51.635 154.358  28.637  0.00  0.00    +0.000 C 
ATOM      6  C   UNL     1      52.821 155.099  28.088  0.00  0.00    +0.000 C 
ATOM      7  C   UNL     1      49.478 157.028  30.029  0.00  0.00    +0.000 C 
ATOM      8  C   UNL     1      49.605 158.411  30.529  0.00  0.00    +0.000 C 
ATOM      9  C   UNL     1      50.894 159.092  30.247  0.00  0.00    +0.000 C 
ATOM     10  C   UNL     1      51.527 158.512  29.015  0.00  0.00    +0.000 C 
ENDROOT
TORSDOF 0
