REMARK  Name = =
REMARK  1 active torsions:
REMARK  status: ('A' for Active; 'I' for Inactive)
REMARK    1  A    between atoms: C_1  and  C_12
REMARK                            x       y       z     vdW  Elec       q    Type
REMARK                         _______ _______ _______ _____ _____    ______ ____
ROOT
ATOM      1  C   UNL     1      53.468 153.938  24.038  0.00  0.00    +0.000 C 
ATOM      2  C   UNL     1      54.300 155.087  24.524  0.00  0.00    +0.004 C 
ATOM      3  C   UNL     1      54.503 155.953  23.260  0.00  0.00    +0.018 C 
ATOM      4  C   UNL     1      55.160 155.178  22.174  0.00  0.00    +0.004 C 
ATOM      5  C   UNL     1      54.867 153.737  22.069  0.00  0.00    +0.000 C 
ATOM      6  C   UNL     1      54.443 153.027  23.316  0.00  0.00    +0.000 C 
ATOM      7  C   UNL     1      55.308 157.136  23.667  0.00  0.00    -0.045 C 
ATOM      8  C   UNL     1      54.942 158.326  23.257  0.00  0.00    -0.009 C 
ATOM      9  C   UNL     1      56.518 157.009  24.532  0.00  0.00    +0.022 C 
ATOM     10  C   UNL     1      56.291 155.974  25.614  0.00  0.00    +0.004 C 
ATOM     11  C   UNL     1      55.701 154.729  24.931  0.00  0.00    +0.001 C 
ENDROOT
BRANCH   1  12
ATOM     12  C   UNL     1      52.609 153.271  25.047  0.00  0.00    +0.000 C 
ATOM     13  C   UNL     1      52.500 154.181  26.239  0.00  0.00    +0.000 C 
ATOM     14  C   UNL     1      52.118 153.501  27.506  0.00  0.00    +0.000 C 
ATOM     15  C   UNL     1      53.029 152.403  27.937  0.00  0.00    +0.000 C 
ATOM     16  C   UNL     1      53.793 151.857  26.750  0.00  0.00    +0.000 C 
ATOM     17  C   UNL     1      52.980 151.909  25.479  0.00  0.00    +0.000 C 
ATOM     18  C   UNL     1      51.943 154.584  28.562  0.00  0.00    +0.000 C 
ATOM     19  C   UNL     1      52.649 155.865  28.163  0.00  0.00    +0.000 C 
ATOM     20  C   UNL     1      52.104 156.478  26.911  0.00  0.00    +0.000 C 
ATOM     21  C   UNL     1      51.570 155.339  26.036  0.00  0.00    +0.000 C 
ENDBRANCH   1  12
TORSDOF 1
