REMARK  Name = =
REMARK  2 active torsions:
REMARK  status: ('A' for Active; 'I' for Inactive)
REMARK    1  A    between atoms: C_1  and  C_12
REMARK    2  A    between atoms: C_1  and  C_23
REMARK                            x       y       z     vdW  Elec       q    Type
REMARK                         _______ _______ _______ _____ _____    ______ ____
ROOT
ATOM      1  C   UNL     1      54.745 153.226  25.217  0.00  0.00    +0.014 C 
ATOM      2  C   UNL     1      54.864 154.725  25.022  0.00  0.00    +0.005 C 
ATOM      3  C   UNL     1      54.038 155.313  23.962  0.00  0.00    +0.018 C 
ATOM      4  C   UNL     1      54.236 154.803  22.583  0.00  0.00    +0.004 C 
ATOM      5  C   UNL     1      55.134 153.552  22.738  0.00  0.00    +0.000 C 
ATOM      6  C   UNL     1      54.445 152.709  23.786  0.00  0.00    +0.001 C 
ATOM      7  C   UNL     1      54.152 156.781  24.033  0.00  0.00    -0.045 C 
ATOM      8  C   UNL     1      54.671 157.602  23.167  0.00  0.00    -0.009 C 
ATOM      9  C   UNL     1      53.591 157.358  25.309  0.00  0.00    +0.022 C 
ATOM     10  C   UNL     1      54.108 156.617  26.505  0.00  0.00    +0.004 C 
ATOM     11  C   UNL     1      55.098 155.538  26.229  0.00  0.00    +0.001 C 
ENDROOT
BRANCH   1  12
ATOM     12  C   UNL     1      53.507 152.959  25.953  0.00  0.00    +0.001 C 
ATOM     13  C   UNL     1      53.109 153.818  27.097  0.00  0.00    +0.000 C 
ATOM     14  C   UNL     1      51.558 153.822  27.065  0.00  0.00    +0.000 C 
ATOM     15  C   UNL     1      50.999 152.441  27.125  0.00  0.00    +0.000 C 
ATOM     16  C   UNL     1      51.704 151.389  26.358  0.00  0.00    +0.000 C 
ATOM     17  C   UNL     1      53.211 151.513  26.303  0.00  0.00    +0.000 C 
ATOM     18  C   UNL     1      51.000 154.692  28.131  0.00  0.00    +0.000 C 
ATOM     19  C   UNL     1      51.595 154.529  29.484  0.00  0.00    +0.000 C 
ATOM     20  C   UNL     1      53.112 154.379  29.453  0.00  0.00    +0.000 C 
ATOM     21  C   UNL     1      53.383 153.241  28.469  0.00  0.00    +0.000 C 
ENDBRANCH   1  12
BRANCH   1  23
ATOM     22  N   UNL     1      56.701 153.163  26.764  0.00  0.00    -0.299 NA
ATOM     23  C   UNL     1      56.034 152.697  25.563  0.00  0.00    +0.054 C 
ATOM     24  C   UNL     1      56.285 151.239  25.667  0.00  0.00    +0.017 C 
ATOM     25  C   UNL     1      57.823 151.287  25.812  0.00  0.00    +0.018 C 
ATOM     26  C   UNL     1      58.053 152.630  26.475  0.00  0.00    +0.069 C 
ATOM     27  H   UNL     1      56.300 152.758  27.610  0.00  0.00    +0.123 HD
ENDBRANCH   1  23
TORSDOF 2
