REMARK  Name = =
REMARK  3 active torsions:
REMARK  status: ('A' for Active; 'I' for Inactive)
REMARK    1  A    between atoms: N_1  and  S_13
REMARK    2  A    between atoms: S_13  and  S_14
REMARK    3  A    between atoms: S_13  and  C_19
REMARK                            x       y       z     vdW  Elec       q    Type
REMARK                         _______ _______ _______ _____ _____    ______ ____
ROOT
ATOM      1  N   UNL     1     -13.776 -43.067  28.123  0.00  0.00    -0.251 N 
ATOM      2  C   UNL     1     -12.618 -43.751  27.468  0.00  0.00    +0.144 C 
ATOM      3  N   UNL     1     -11.425 -43.456  28.285  0.00  0.00    -0.282 NA
ATOM      4  C   UNL     1     -10.648 -44.642  28.329  0.00  0.00    +0.070 C 
ATOM      5  C   UNL     1     -11.522 -45.770  27.953  0.00  0.00    +0.025 C 
ATOM      6  C   UNL     1     -12.915 -45.217  27.931  0.00  0.00    +0.059 C 
ATOM      7  C   UNL     1     -13.292 -44.940  29.372  0.00  0.00    -0.005 C 
ATOM      8  C   UNL     1     -13.801 -43.660  29.389  0.00  0.00    +0.054 C 
ATOM      9  C   UNL     1     -14.254 -43.121  30.616  0.00  0.00    +0.015 C 
ATOM     10  C   UNL     1     -14.176 -43.883  31.753  0.00  0.00    +0.001 C 
ATOM     11  C   UNL     1     -13.673 -45.144  31.737  0.00  0.00    -0.000 C 
ATOM     12  C   UNL     1     -13.229 -45.661  30.508  0.00  0.00    -0.003 C 
ATOM     13  H   UNL     1     -11.704 -43.185  29.228  0.00  0.00    +0.125 HD
ENDROOT
BRANCH   1  14
ATOM     14  S   UNL     1     -14.740 -41.946  27.489  0.00  0.00    -0.059 S 
ATOM     15  H   UNL     1     -14.309 -40.677  27.720  0.00  0.00    +0.125 HD
BRANCH  14  16
ATOM     16  S   UNL     1     -14.888 -42.316  25.615  0.00  0.00    -0.162 S 
ATOM     17  C   UNL     1     -14.465 -43.875  25.006  0.00  0.00    +0.066 C 
ATOM     18  C   UNL     1     -14.925 -43.639  23.538  0.00  0.00    +0.100 C 
ATOM     19  N   UNL     1     -16.304 -43.303  23.798  0.00  0.00    -0.206 NA
ATOM     20  C   UNL     1     -16.360 -42.286  24.821  0.00  0.00    +0.135 C 
ATOM     21  H   UNL     1     -14.047 -41.272  25.388  0.00  0.00    +0.096 HD
ENDBRANCH  14  16
BRANCH  14  22
ATOM     22  C   UNL     1     -16.273 -42.319  28.141  0.00  0.00    +0.136 C 
ATOM     23  N   UNL     1     -17.313 -42.588  28.600  0.00  0.00    -0.183 NA
ENDBRANCH  14  22
ENDBRANCH   1  14
TORSDOF 3
