REMARK  Name = =
REMARK  5 active torsions:
REMARK  status: ('A' for Active; 'I' for Inactive)
REMARK    1  A    between atoms: C_1  and  O_20
REMARK    2  A    between atoms: C_5  and  C_16
REMARK    3  A    between atoms: C_10  and  O_19
REMARK    4  A    between atoms: C_16  and  O_18
REMARK    5  A    between atoms: O_20  and  C_21
REMARK                            x       y       z     vdW  Elec       q    Type
REMARK                         _______ _______ _______ _____ _____    ______ ____
ROOT
ATOM      1  C   UNL     1      55.485 151.805  25.160  0.00  0.00    +0.152 C 
ATOM      2  C   UNL     1      54.675 152.936  25.084  0.00  0.00    +0.070 C 
ATOM      3  C   UNL     1      53.318 152.869  25.189  0.00  0.00    -0.012 C 
ATOM      4  C   UNL     1      52.764 151.604  25.379  0.00  0.00    +0.003 C 
ATOM      5  C   UNL     1      53.516 150.462  25.460  0.00  0.00    +0.078 C 
ATOM      6  C   UNL     1      54.903 150.572  25.349  0.00  0.00    +0.044 C 
ATOM      7  C   UNL     1      52.414 154.027  25.116  0.00  0.00    +0.053 C 
ATOM      8  C   UNL     1      53.089 155.314  24.913  0.00  0.00    -0.012 C 
ATOM      9  C   UNL     1      54.474 155.442  24.799  0.00  0.00    +0.069 C 
ATOM     10  C   UNL     1      55.026 156.690  24.610  0.00  0.00    +0.136 C 
ATOM     11  C   UNL     1      54.189 157.824  24.534  0.00  0.00    +0.037 C 
ATOM     12  C   UNL     1      52.848 157.656  24.650  0.00  0.00    +0.003 C 
ATOM     13  C   UNL     1      52.286 156.433  24.837  0.00  0.00    -0.004 C 
ATOM     14  C   UNL     1      55.295 154.251  24.882  0.00  0.00    +0.201 C 
ATOM     15  O   UNL     1      56.565 154.315  24.784  0.00  0.00    -0.286 OA
ENDROOT
BRANCH   5  16
ATOM     16  C   UNL     1      52.882 149.158  25.660  0.00  0.00    +0.338 C 
ATOM     17  O   UNL     1      51.950 149.068  26.497  0.00  0.00    -0.245 OA
BRANCH  16  18
ATOM     18  O   UNL     1      53.255 148.033  24.980  0.00  0.00    -0.477 OA
ATOM     19  H   UNL     1      53.948 148.074  24.350  0.00  0.00    +0.295 HD
ENDBRANCH  16  18
ENDBRANCH   5  16
BRANCH  10  20
ATOM     20  O   UNL     1      56.367 156.866  24.493  0.00  0.00    -0.505 OA
ATOM     21  H   UNL     1      56.942 156.128  24.540  0.00  0.00    +0.292 HD
ENDBRANCH  10  20
BRANCH   1  22
ATOM     22  O   UNL     1      56.851 151.986  25.042  0.00  0.00    -0.416 OA
BRANCH  22  23
ATOM     23  C   UNL     1      57.692 151.922  26.170  0.00  0.00    +0.423 C 
ATOM     24  O   UNL     1      57.148 152.245  27.270  0.00  0.00    -0.237 OA
ENDBRANCH  22  23
ENDBRANCH   1  22
TORSDOF 5
