REMARK  Name = =
REMARK  5 active torsions:
REMARK  status: ('A' for Active; 'I' for Inactive)
REMARK    1  A    between atoms: C_1  and  O_20
REMARK    2  A    between atoms: C_5  and  C_16
REMARK    3  A    between atoms: C_10  and  O_19
REMARK    4  A    between atoms: C_16  and  O_18
REMARK    5  A    between atoms: O_20  and  C_38
REMARK                            x       y       z     vdW  Elec       q    Type
REMARK                         _______ _______ _______ _____ _____    ______ ____
ROOT
ATOM      1  C   UNL     1      53.700 155.546  25.804  0.00  0.00    +0.153 C 
ATOM      2  C   UNL     1      53.627 154.204  25.495  0.00  0.00    +0.070 C 
ATOM      3  C   UNL     1      54.135 153.684  24.325  0.00  0.00    -0.012 C 
ATOM      4  C   UNL     1      54.747 154.570  23.427  0.00  0.00    +0.003 C 
ATOM      5  C   UNL     1      54.837 155.909  23.701  0.00  0.00    +0.078 C 
ATOM      6  C   UNL     1      54.311 156.375  24.889  0.00  0.00    +0.044 C 
ATOM      7  C   UNL     1      54.091 152.284  23.939  0.00  0.00    +0.053 C 
ATOM      8  C   UNL     1      53.441 151.376  24.905  0.00  0.00    -0.012 C 
ATOM      9  C   UNL     1      52.912 151.826  26.092  0.00  0.00    +0.069 C 
ATOM     10  C   UNL     1      52.318 150.920  26.951  0.00  0.00    +0.136 C 
ATOM     11  C   UNL     1      52.260 149.553  26.606  0.00  0.00    +0.037 C 
ATOM     12  C   UNL     1      52.779 149.092  25.432  0.00  0.00    +0.003 C 
ATOM     13  C   UNL     1      53.362 150.004  24.598  0.00  0.00    -0.004 C 
ATOM     14  C   UNL     1      52.994 153.244  26.409  0.00  0.00    +0.201 C 
ATOM     15  O   UNL     1      52.539 153.737  27.466  0.00  0.00    -0.286 OA
ENDROOT
BRANCH   5  16
ATOM     16  C   UNL     1      55.474 156.829  22.769  0.00  0.00    +0.338 C 
ATOM     17  O   UNL     1      55.763 157.987  23.139  0.00  0.00    -0.245 OA
BRANCH  16  18
ATOM     18  O   UNL     1      55.766 156.457  21.480  0.00  0.00    -0.477 OA
ATOM     19  H   UNL     1      55.557 155.593  21.183  0.00  0.00    +0.295 HD
ENDBRANCH  16  18
ENDBRANCH   5  16
BRANCH  10  20
ATOM     20  O   UNL     1      51.785 151.331  28.132  0.00  0.00    -0.505 OA
ATOM     21  H   UNL     1      51.818 152.236  28.371  0.00  0.00    +0.292 HD
ENDBRANCH  10  20
BRANCH   1  22
ATOM     22  O   UNL     1      53.160 155.968  27.002  0.00  0.00    -0.407 OA
BRANCH  22  40
ATOM     23  N   UNL     1      52.489 157.768  28.538  0.00  0.00    -0.163 N 
ATOM     24  N   UNL     1      52.626 158.948  29.145  0.00  0.00    -0.160 NA
ATOM     25  C   UNL     1      51.566 159.109  29.977  0.00  0.00    +0.103 A 
ATOM     26  C   UNL     1      51.113 160.137  30.903  0.00  0.00    +0.022 C 
ATOM     27  C   UNL     1      49.923 159.950  31.618  0.00  0.00    +0.040 C 
ATOM     28  C   UNL     1      49.125 158.752  31.459  0.00  0.00    +0.196 C 
ATOM     29  O   UNL     1      48.075 158.600  32.097  0.00  0.00    -0.287 OA
ATOM     30  C   UNL     1      49.617 157.754  30.523  0.00  0.00    +0.042 C 
ATOM     31  C   UNL     1      50.788 157.989  29.850  0.00  0.00    +0.040 A 
ATOM     32  C   UNL     1      51.368 157.151  28.950  0.00  0.00    +0.091 A 
ATOM     33  C   UNL     1      50.706 155.960  28.701  0.00  0.00    +0.019 C 
ATOM     34  C   UNL     1      49.507 155.684  29.368  0.00  0.00    +0.002 C 
ATOM     35  C   UNL     1      48.957 156.569  30.277  0.00  0.00    +0.003 C 
ATOM     36  C   UNL     1      49.531 160.949  32.483  0.00  0.00    +0.003 C 
ATOM     37  C   UNL     1      50.294 162.110  32.644  0.00  0.00    +0.000 C 
ATOM     38  C   UNL     1      51.459 162.265  31.928  0.00  0.00    +0.000 C 
ATOM     39  C   UNL     1      51.879 161.285  31.054  0.00  0.00    +0.002 C 
ATOM     40  C   UNL     1      53.386 157.194  27.573  0.00  0.00    +0.442 C 
ATOM     41  O   UNL     1      54.428 157.819  27.224  0.00  0.00    -0.221 OA
ENDBRANCH  22  40
ENDBRANCH   1  22
TORSDOF 5
