REMARK  Name = =
REMARK  4 active torsions:
REMARK  status: ('A' for Active; 'I' for Inactive)
REMARK    1  A    between atoms: C_1  and  C_24
REMARK    2  A    between atoms: C_9  and  N_11
REMARK    3  A    between atoms: S_22  and  C_24
REMARK    4  A    between atoms: S_22  and  N_32
REMARK                            x       y       z     vdW  Elec       q    Type
REMARK                         _______ _______ _______ _____ _____    ______ ____
ROOT
ATOM      1  C   UNL     1     -13.927 -42.848  27.252  0.00  0.00    +0.072 C 
ATOM      2  N   UNL     1     -13.121 -43.029  26.192  0.00  0.00    -0.247 NA
ATOM      3  C   UNL     1     -13.528 -42.927  24.907  0.00  0.00    +0.098 C 
ATOM      4  C   UNL     1     -14.826 -42.621  24.578  0.00  0.00    +0.021 C 
ATOM      5  C   UNL     1     -15.701 -42.423  25.624  0.00  0.00    +0.004 C 
ATOM      6  C   UNL     1     -15.253 -42.536  26.936  0.00  0.00    +0.015 C 
ATOM      7  C   UNL     1     -16.121 -42.337  27.969  0.00  0.00    +0.002 C 
ATOM      8  C   UNL     1     -17.436 -42.023  27.693  0.00  0.00    +0.015 C 
ATOM      9  C   UNL     1     -17.875 -41.910  26.383  0.00  0.00    +0.061 C 
ATOM     10  C   UNL     1     -17.020 -42.108  25.321  0.00  0.00    +0.015 C 
ENDROOT
BRANCH   9  11
ATOM     11  N   UNL     1     -19.221 -41.579  26.121  0.00  0.00    -0.201 N 
ATOM     12  C   UNL     1     -19.699 -40.851  25.004  0.00  0.00    +0.259 C 
ATOM     13  O   UNL     1     -19.053 -40.360  24.038  0.00  0.00    -0.269 OA
ATOM     14  C   UNL     1     -21.146 -40.729  25.115  0.00  0.00    +0.059 C 
ATOM     15  C   UNL     1     -21.546 -41.372  26.280  0.00  0.00    +0.059 C 
ATOM     16  C   UNL     1     -22.865 -41.409  26.629  0.00  0.00    +0.005 C 
ATOM     17  C   UNL     1     -23.794 -40.798  25.807  0.00  0.00    +0.000 C 
ATOM     18  C   UNL     1     -23.439 -40.157  24.655  0.00  0.00    +0.000 C 
ATOM     19  C   UNL     1     -22.099 -40.128  24.313  0.00  0.00    +0.005 C 
ATOM     20  C   UNL     1     -20.333 -41.913  26.924  0.00  0.00    +0.259 C 
ATOM     21  O   UNL     1     -20.319 -42.563  28.011  0.00  0.00    -0.269 OA
ENDBRANCH   9  11
BRANCH   1  22
ATOM     22  C   UNL     1     -13.456 -42.962  28.599  0.00  0.00    +0.128 C 
BRANCH  22  23
ATOM     23  S   UNL     1     -12.664 -44.353  28.899  0.00  0.00    -0.014 S 
ATOM     24  O   UNL     1     -13.912 -45.134  29.355  0.00  0.00    -0.156 OA
ATOM     25  H   UNL     1     -11.926 -44.893  27.892  0.00  0.00    +0.133 HD
BRANCH  23  33
ATOM     26  N   UNL     1      -9.956 -42.491  29.158  0.00  0.00    -0.247 N 
ATOM     27  C   UNL     1      -8.649 -41.744  29.123  0.00  0.00    +0.169 C 
ATOM     28  N   UNL     1      -8.340 -41.660  27.712  0.00  0.00    -0.279 NA
ATOM     29  C   UNL     1      -9.499 -42.114  26.964  0.00  0.00    +0.092 C 
ATOM     30  C   UNL     1     -10.607 -41.932  28.006  0.00  0.00    +0.113 C 
ATOM     31  C   UNL     1     -10.349 -43.397  30.121  0.00  0.00    +0.324 C 
ATOM     32  O   UNL     1      -9.545 -43.521  31.146  0.00  0.00    -0.251 OA
ATOM     33  N   UNL     1     -11.503 -44.186  30.118  0.00  0.00    -0.154 N 
ATOM     34  C   UNL     1     -11.758 -44.906  31.349  0.00  0.00    +0.320 C 
ATOM     35  O   UNL     1     -12.769 -45.585  31.522  0.00  0.00    -0.264 OA
ATOM     36  H   UNL     1      -7.538 -42.253  27.499  0.00  0.00    +0.125 HD
ENDBRANCH  23  33
ENDBRANCH  22  23
ENDBRANCH   1  22
TORSDOF 4
