REMARK  Name = =
REMARK  0 active torsions:
REMARK  status: ('A' for Active; 'I' for Inactive)
REMARK                            x       y       z     vdW  Elec       q    Type
REMARK                         _______ _______ _______ _____ _____    ______ ____
ROOT
ATOM      1  C   UNL     1      52.047 156.637  28.156  0.00  0.00    +0.000 C 
ATOM      2  C   UNL     1      51.531 157.533  29.065  0.00  0.00    +0.000 C 
ATOM      3  C   UNL     1      50.445 157.220  29.874  0.00  0.00    +0.000 C 
ATOM      4  C   UNL     1      49.853 155.973  29.773  0.00  0.00    +0.000 C 
ATOM      5  C   UNL     1      50.353 155.066  28.873  0.00  0.00    +0.000 C 
ATOM      6  C   UNL     1      51.430 155.387  28.077  0.00  0.00    +0.000 C 
ATOM      7  C   UNL     1      51.917 154.446  27.171  0.00  0.00    +0.000 C 
ATOM      8  C   UNL     1      52.993 154.736  26.362  0.00  0.00    +0.000 C 
ATOM      9  C   UNL     1      53.565 155.976  26.475  0.00  0.00    +0.000 C 
ATOM     10  C   UNL     1      53.123 156.942  27.353  0.00  0.00    +0.000 C 
ATOM     11  C   UNL     1      49.961 158.161  30.776  0.00  0.00    +0.000 C 
ATOM     12  C   UNL     1      50.518 159.409  30.907  0.00  0.00    +0.000 C 
ATOM     13  C   UNL     1      51.587 159.705  30.106  0.00  0.00    +0.000 C 
ATOM     14  C   UNL     1      52.095 158.778  29.190  0.00  0.00    +0.000 C 
ENDROOT
TORSDOF 0
