REMARK  Name = =
REMARK  10 active torsions:
REMARK  status: ('A' for Active; 'I' for Inactive)
REMARK    1  A    between atoms: S_1  and  P_2
REMARK    2  A    between atoms: S_1  and  C_14
REMARK    3  A    between atoms: P_2  and  O_18
REMARK    4  A    between atoms: P_2  and  O_19
REMARK    5  A    between atoms: O_19  and  P_20
REMARK    6  A    between atoms: P_20  and  O_22
REMARK    7  A    between atoms: P_20  and  O_23
REMARK    8  A    between atoms: O_23  and  P_24
REMARK    9  A    between atoms: P_24  and  O_26
REMARK   10  A    between atoms: P_24  and  O_27
REMARK                            x       y       z     vdW  Elec       q    Type
REMARK                         _______ _______ _______ _____ _____    ______ ____
ROOT
ATOM      1  S   UNL     1      48.704 158.532  31.288  0.00  0.00    -0.082 S 
ATOM      2  H   UNL     1      47.587 158.969  30.647  0.00  0.00    +0.108 HD
ENDROOT
BRANCH   1  13
ATOM      3  C   UNL     1      52.063 156.403  28.097  0.00  0.00    +0.000 C 
ATOM      4  C   UNL     1      51.640 157.565  28.729  0.00  0.00    +0.000 C 
ATOM      5  C   UNL     1      50.542 157.470  29.568  0.00  0.00    +0.005 C 
ATOM      6  C   UNL     1      49.875 156.257  29.780  0.00  0.00    +0.000 C 
ATOM      7  C   UNL     1      50.303 155.137  29.155  0.00  0.00    +0.000 C 
ATOM      8  C   UNL     1      51.388 155.198  28.317  0.00  0.00    +0.000 C 
ATOM      9  C   UNL     1      51.814 154.045  27.684  0.00  0.00    +0.000 C 
ATOM     10  C   UNL     1      52.891 154.092  26.849  0.00  0.00    +0.000 C 
ATOM     11  C   UNL     1      53.561 155.253  26.621  0.00  0.00    +0.000 C 
ATOM     12  C   UNL     1      53.146 156.432  27.252  0.00  0.00    +0.000 C 
ATOM     13  C   UNL     1      50.105 158.607  30.206  0.00  0.00    +0.023 C 
ATOM     14  C   UNL     1      50.728 159.813  30.026  0.00  0.00    +0.006 C 
ATOM     15  C   UNL     1      51.817 159.877  29.186  0.00  0.00    +0.000 C 
ATOM     16  C   UNL     1      52.291 158.762  28.525  0.00  0.00    +0.000 C 
ENDBRANCH   1  13
BRANCH   1  17
ATOM     17  P   UNL     1      49.125 159.692  32.773  0.00  0.00    +0.389 P 
ATOM     18  O   UNL     1      49.563 160.984  32.080  0.00  0.00    -0.246 OA
BRANCH  17  19
ATOM     19  O   UNL     1      50.306 159.049  33.738  0.00  0.00    -0.316 OA
ATOM     20  H   UNL     1      51.098 158.873  33.206  0.00  0.00    +0.221 HD
ENDBRANCH  17  19
BRANCH  17  21
ATOM     21  O   UNL     1      47.692 160.044  33.581  0.00  0.00    -0.200 OA
BRANCH  21  22
ATOM     22  P   UNL     1      46.597 160.622  32.427  0.00  0.00    +0.491 P 
ATOM     23  O   UNL     1      47.230 161.703  31.564  0.00  0.00    -0.226 OA
BRANCH  22  24
ATOM     24  O   UNL     1      46.063 159.316  31.501  0.00  0.00    -0.302 OA
ATOM     25  H   UNL     1      45.433 159.629  30.833  0.00  0.00    +0.222 HD
ENDBRANCH  22  24
BRANCH  22  26
ATOM     26  O   UNL     1      45.251 161.323  33.171  0.00  0.00    -0.186 OA
BRANCH  26  27
ATOM     27  P   UNL     1      44.778 160.296  34.429  0.00  0.00    +0.481 P 
ATOM     28  O   UNL     1      45.131 158.880  34.043  0.00  0.00    -0.227 OA
BRANCH  27  29
ATOM     29  O   UNL     1      45.619 160.781  35.817  0.00  0.00    -0.302 OA
ATOM     30  H   UNL     1      45.374 161.692  36.042  0.00  0.00    +0.222 HD
ENDBRANCH  27  29
BRANCH  27  31
ATOM     31  O   UNL     1      43.111 160.474  34.638  0.00  0.00    -0.302 OA
ATOM     32  H   UNL     1      42.912 161.391  34.885  0.00  0.00    +0.222 HD
ENDBRANCH  27  31
ENDBRANCH  26  27
ENDBRANCH  22  26
ENDBRANCH  21  22
ENDBRANCH  17  21
ENDBRANCH   1  17
TORSDOF 10
