REMARK  Name = =
REMARK  11 active torsions:
REMARK  status: ('A' for Active; 'I' for Inactive)
REMARK    1  A    between atoms: S_1  and  P_2
REMARK    2  A    between atoms: S_1  and  C_14
REMARK    3  A    between atoms: P_2  and  O_18
REMARK    4  A    between atoms: P_2  and  O_27
REMARK    5  A    between atoms: O_18  and  P_19
REMARK    6  A    between atoms: P_19  and  O_21
REMARK    7  A    between atoms: P_19  and  O_22
REMARK    8  A    between atoms: O_22  and  P_23
REMARK    9  A    between atoms: P_23  and  O_25
REMARK   10  A    between atoms: P_23  and  O_26
REMARK   11  A    between atoms: O_27  and  S_28
REMARK                            x       y       z     vdW  Elec       q    Type
REMARK                         _______ _______ _______ _____ _____    ______ ____
ROOT
ATOM      1  P   UNL     1      50.878 160.257  31.191  0.00  0.00    +0.403 P 
ATOM      2  O   UNL     1      51.020 161.074  29.929  0.00  0.00    -0.245 OA
ENDROOT
BRANCH   1   3
ATOM      3  S   UNL     1      50.161 158.583  30.556  0.00  0.00    -0.081 S 
ATOM      4  H   UNL     1      48.936 158.758  29.993  0.00  0.00    +0.108 HD
BRANCH   3  15
ATOM      5  C   UNL     1      52.107 154.981  27.533  0.00  0.00    +0.000 C 
ATOM      6  C   UNL     1      52.194 156.295  27.955  0.00  0.00    +0.000 C 
ATOM      7  C   UNL     1      51.292 156.765  28.903  0.00  0.00    +0.005 C 
ATOM      8  C   UNL     1      50.324 155.921  29.411  0.00  0.00    +0.000 C 
ATOM      9  C   UNL     1      50.215 154.625  29.015  0.00  0.00    +0.000 C 
ATOM     10  C   UNL     1      51.111 154.156  28.072  0.00  0.00    +0.000 C 
ATOM     11  C   UNL     1      51.021 152.858  27.658  0.00  0.00    +0.000 C 
ATOM     12  C   UNL     1      51.906 152.380  26.722  0.00  0.00    +0.000 C 
ATOM     13  C   UNL     1      52.880 153.177  26.191  0.00  0.00    +0.000 C 
ATOM     14  C   UNL     1      52.979 154.485  26.600  0.00  0.00    +0.000 C 
ATOM     15  C   UNL     1      51.355 158.075  29.344  0.00  0.00    +0.023 C 
ATOM     16  C   UNL     1      52.309 158.920  28.847  0.00  0.00    +0.006 C 
ATOM     17  C   UNL     1      53.201 158.450  27.908  0.00  0.00    +0.000 C 
ATOM     18  C   UNL     1      53.156 157.144  27.454  0.00  0.00    +0.000 C 
ENDBRANCH   3  15
ENDBRANCH   1   3
BRANCH   1  19
ATOM     19  O   UNL     1      49.923 160.950  32.347  0.00  0.00    -0.200 OA
BRANCH  19  20
ATOM     20  P   UNL     1      49.216 162.395  31.910  0.00  0.00    +0.491 P 
ATOM     21  O   UNL     1      50.313 163.442  31.782  0.00  0.00    -0.226 OA
BRANCH  20  22
ATOM     22  O   UNL     1      48.366 162.320  30.477  0.00  0.00    -0.302 OA
ATOM     23  H   UNL     1      48.958 162.031  29.765  0.00  0.00    +0.222 HD
ENDBRANCH  20  22
BRANCH  20  24
ATOM     24  O   UNL     1      48.216 162.901  33.201  0.00  0.00    -0.186 OA
BRANCH  24  25
ATOM     25  P   UNL     1      48.151 161.621  34.304  0.00  0.00    +0.481 P 
ATOM     26  O   UNL     1      46.782 160.948  34.227  0.00  0.00    -0.227 OA
BRANCH  25  27
ATOM     27  O   UNL     1      49.294 160.432  33.854  0.00  0.00    -0.302 OA
ATOM     28  H   UNL     1      50.186 160.812  33.887  0.00  0.00    +0.222 HD
ENDBRANCH  25  27
BRANCH  25  29
ATOM     29  O   UNL     1      48.434 162.143  35.885  0.00  0.00    -0.302 OA
ATOM     30  H   UNL     1      47.778 162.816  36.125  0.00  0.00    +0.222 HD
ENDBRANCH  25  29
ENDBRANCH  24  25
ENDBRANCH  20  24
ENDBRANCH  19  20
ENDBRANCH   1  19
BRANCH   1  31
ATOM     31  O   UNL     1      52.413 159.973  31.802  0.00  0.00    -0.232 OA
BRANCH  31  32
ATOM     32  S   UNL     1      53.562 161.096  31.188  0.00  0.00    -0.014 S 
ATOM     33  H   UNL     1      54.787 160.824  31.712  0.00  0.00    +0.134 HD
ENDBRANCH  31  32
ENDBRANCH   1  31
TORSDOF 11
