REMARK  Name = =
REMARK  0 active torsions:
REMARK  status: ('A' for Active; 'I' for Inactive)
REMARK                            x       y       z     vdW  Elec       q    Type
REMARK                         _______ _______ _______ _____ _____    ______ ____
ROOT
ATOM      1  C   UNL     1      -3.871  -3.948  31.269  0.00  0.00    +0.000 C 
ATOM      2  C   UNL     1      -4.238  -2.987  32.110  0.00  0.00    +0.000 C 
ATOM      3  C   UNL     1      -4.596  -3.890  33.231  0.00  0.00    +0.000 C 
ATOM      4  C   UNL     1      -4.181  -4.977  32.277  0.00  0.00    +0.000 C 
ENDROOT
TORSDOF 0
