REMARK  Name = =
REMARK  2 active torsions:
REMARK  status: ('A' for Active; 'I' for Inactive)
REMARK    1  A    between atoms: C_2  and  N_6
REMARK    2  A    between atoms: N_6  and  O_9
REMARK                            x       y       z     vdW  Elec       q    Type
REMARK                         _______ _______ _______ _____ _____    ______ ____
ROOT
ATOM      1  C   UNL     1      -0.515  -7.186  29.698  0.00  0.00    -0.004 C 
ATOM      2  C   UNL     1       0.595  -6.839  30.332  0.00  0.00    +0.077 C 
ATOM      3  C   UNL     1       0.410  -7.139  31.738  0.00  0.00    +0.013 C 
ATOM      4  C   UNL     1      -0.774  -7.654  31.968  0.00  0.00    -0.020 C 
ATOM      5  C   UNL     1      -1.500  -7.742  30.682  0.00  0.00    +0.053 C 
ENDROOT
BRANCH   2   6
ATOM      6  N   UNL     1       1.760  -6.273  29.745  0.00  0.00    -0.142 N 
ATOM      7  C   UNL     1       2.212  -5.003  30.142  0.00  0.00    +0.331 C 
ATOM      8  O   UNL     1       3.234  -4.506  29.628  0.00  0.00    -0.262 OA
BRANCH   6   9
ATOM      9  O   UNL     1       2.461  -6.928  28.799  0.00  0.00    -0.287 OA
ATOM     10  H   UNL     1       3.216  -6.386  28.523  0.00  0.00    +0.242 HD
ENDBRANCH   6   9
ENDBRANCH   2   6
TORSDOF 2
