REMARK  Name = =
REMARK  1 active torsions:
REMARK  status: ('A' for Active; 'I' for Inactive)
REMARK    1  A    between atoms: N_1  and  C_9
REMARK                            x       y       z     vdW  Elec       q    Type
REMARK                         _______ _______ _______ _____ _____    ______ ____
ROOT
ATOM      1  N   UNL     1      -7.673   0.365  31.017  0.00  0.00    -0.272 NA
ATOM      2  C   UNL     1      -6.415   0.244  31.601  0.00  0.00    +0.091 C 
ATOM      3  C   UNL     1      -6.631  -0.121  33.078  0.00  0.00    +0.106 C 
ATOM      4  N   UNL     1      -7.256  -1.431  33.050  0.00  0.00    -0.215 NA
ATOM      5  C   UNL     1      -8.551  -1.428  32.442  0.00  0.00    +0.106 C 
ATOM      6  C   UNL     1      -8.573  -0.692  31.109  0.00  0.00    +0.091 C 
ENDROOT
BRANCH   1   9
ATOM      7  C   UNL     1      -7.475   3.429  31.006  0.00  0.00    +0.003 C 
ATOM      8  C   UNL     1      -6.957   2.507  30.262  0.00  0.00    +0.016 C 
ATOM      9  C   UNL     1      -8.082   1.585  30.443  0.00  0.00    +0.058 C 
ATOM     10  C   UNL     1      -8.670   2.637  31.289  0.00  0.00    +0.016 C 
ENDBRANCH   1   9
TORSDOF 1
