REMARK  Name = =
REMARK  4 active torsions:
REMARK  status: ('A' for Active; 'I' for Inactive)
REMARK    1  A    between atoms: N_1  and  C_6
REMARK    2  A    between atoms: N_1  and  C_14
REMARK    3  A    between atoms: N_4  and  C_12
REMARK    4  A    between atoms: C_17  and  O_20
REMARK                            x       y       z     vdW  Elec       q    Type
REMARK                         _______ _______ _______ _____ _____    ______ ____
ROOT
ATOM      1  N   UNL     1     -10.804   0.377  29.077  0.00  0.00    -0.237 N 
ATOM      2  C   UNL     1     -10.664  -0.635  28.100  0.00  0.00    +0.308 C 
ATOM      3  O   UNL     1      -9.641  -1.392  28.026  0.00  0.00    -0.265 OA
ENDROOT
BRANCH   1   6
ATOM      4  N   UNL     1      -8.435  -0.291  31.821  0.00  0.00    -0.270 NA
ATOM      5  C   UNL     1      -9.509  -0.600  30.917  0.00  0.00    +0.111 C 
ATOM      6  C   UNL     1      -9.788   0.598  30.060  0.00  0.00    +0.170 C 
ATOM      7  N   UNL     1      -8.530   1.024  29.471  0.00  0.00    -0.197 NA
ATOM      8  C   UNL     1      -7.784   1.683  30.523  0.00  0.00    +0.108 C 
ATOM      9  C   UNL     1      -8.121   1.116  31.885  0.00  0.00    +0.091 C 
BRANCH   4  12
ATOM     10  C   UNL     1      -6.596  -2.405  32.924  0.00  0.00    +0.003 C 
ATOM     11  C   UNL     1      -6.397  -1.142  32.718  0.00  0.00    +0.016 C 
ATOM     12  C   UNL     1      -7.254  -1.098  31.565  0.00  0.00    +0.058 C 
ATOM     13  C   UNL     1      -7.494  -2.534  31.785  0.00  0.00    +0.016 C 
ENDBRANCH   4  12
ENDBRANCH   1   6
BRANCH   1  14
ATOM     14  C   UNL     1     -11.958   1.182  29.093  0.00  0.00    +0.056 C 
ATOM     15  C   UNL     1     -13.148   0.658  29.535  0.00  0.00    +0.018 C 
ATOM     16  C   UNL     1     -14.314   1.420  29.564  0.00  0.00    +0.038 C 
ATOM     17  C   UNL     1     -14.273   2.736  29.136  0.00  0.00    +0.134 C 
ATOM     18  C   UNL     1     -13.096   3.273  28.693  0.00  0.00    +0.038 C 
ATOM     19  C   UNL     1     -11.965   2.499  28.676  0.00  0.00    +0.018 C 
BRANCH  17  20
ATOM     20  O   UNL     1     -15.463   3.452  29.186  0.00  0.00    -0.506 OA
ATOM     21  H   UNL     1     -16.245   3.040  29.498  0.00  0.00    +0.292 HD
ENDBRANCH  17  20
ENDBRANCH   1  14
TORSDOF 4
