REMARK  Name = =
REMARK  5 active torsions:
REMARK  status: ('A' for Active; 'I' for Inactive)
REMARK    1  A    between atoms: C_1  and  N_16
REMARK    2  A    between atoms: C_4  and  O_29
REMARK    3  A    between atoms: C_6  and  N_7
REMARK    4  A    between atoms: N_16  and  C_21
REMARK    5  A    between atoms: N_19  and  C_27
REMARK                            x       y       z     vdW  Elec       q    Type
REMARK                         _______ _______ _______ _____ _____    ______ ____
ROOT
ATOM      1  C   UNL     1       5.119 -10.037  25.907  0.00  0.00    +0.070 C 
ATOM      2  C   UNL     1       3.869 -10.555  26.295  0.00  0.00    +0.019 C 
ATOM      3  C   UNL     1       3.547 -11.874  26.118  0.00  0.00    +0.038 C 
ATOM      4  C   UNL     1       4.474 -12.720  25.543  0.00  0.00    +0.135 C 
ATOM      5  C   UNL     1       5.679 -12.202  25.171  0.00  0.00    +0.053 C 
ATOM      6  C   UNL     1       6.046 -10.869  25.334  0.00  0.00    +0.072 C 
ENDROOT
BRANCH   6   7
ATOM      7  N   UNL     1       7.306 -10.383  24.923  0.00  0.00    -0.263 N 
ATOM      8  C   UNL     1       8.512 -10.444  25.720  0.00  0.00    +0.070 C 
ATOM      9  C   UNL     1       9.653  -9.956  24.898  0.00  0.00    +0.018 C 
ATOM     10  C   UNL     1       8.996  -9.505  23.631  0.00  0.00    +0.015 C 
ATOM     11  C   UNL     1       7.646  -9.767  23.690  0.00  0.00    +0.056 C 
ATOM     12  C   UNL     1       6.885  -9.402  22.568  0.00  0.00    +0.015 C 
ATOM     13  C   UNL     1       7.501  -8.812  21.481  0.00  0.00    +0.001 C 
ATOM     14  C   UNL     1       8.846  -8.560  21.445  0.00  0.00    +0.000 C 
ATOM     15  C   UNL     1       9.599  -8.916  22.544  0.00  0.00    +0.001 C 
ENDBRANCH   6   7
BRANCH   1  16
ATOM     16  N   UNL     1       5.311  -8.656  26.174  0.00  0.00    -0.236 N 
ATOM     17  C   UNL     1       5.919  -8.342  27.406  0.00  0.00    +0.308 C 
ATOM     18  O   UNL     1       6.335  -9.165  28.240  0.00  0.00    -0.265 OA
BRANCH  16  21
ATOM     19  N   UNL     1       2.917  -7.184  23.885  0.00  0.00    -0.270 NA
ATOM     20  C   UNL     1       3.939  -8.075  24.239  0.00  0.00    +0.111 C 
ATOM     21  C   UNL     1       4.922  -7.594  25.285  0.00  0.00    +0.170 C 
ATOM     22  N   UNL     1       4.567  -6.377  25.930  0.00  0.00    -0.197 NA
ATOM     23  C   UNL     1       3.184  -6.074  26.059  0.00  0.00    +0.108 C 
ATOM     24  C   UNL     1       2.355  -6.332  24.849  0.00  0.00    +0.091 C 
BRANCH  19  27
ATOM     25  C   UNL     1       2.257  -7.773  20.960  0.00  0.00    +0.003 C 
ATOM     26  C   UNL     1       1.668  -7.044  21.850  0.00  0.00    +0.016 C 
ATOM     27  C   UNL     1       2.912  -6.699  22.520  0.00  0.00    +0.058 C 
ATOM     28  C   UNL     1       3.580  -7.522  21.517  0.00  0.00    +0.016 C 
ENDBRANCH  19  27
ENDBRANCH  16  21
ENDBRANCH   1  16
BRANCH   4  29
ATOM     29  O   UNL     1       4.213 -14.074  25.333  0.00  0.00    -0.505 OA
ATOM     30  H   UNL     1       3.387 -14.437  25.586  0.00  0.00    +0.292 HD
ENDBRANCH   4  29
TORSDOF 5
