REMARK  Name = =
REMARK  8 active torsions:
REMARK  status: ('A' for Active; 'I' for Inactive)
REMARK    1  A    between atoms: C_1  and  O_20
REMARK    2  A    between atoms: C_5  and  C_16
REMARK    3  A    between atoms: C_12  and  O_19
REMARK    4  A    between atoms: C_16  and  O_18
REMARK    5  A    between atoms: O_20  and  O_21
REMARK    6  A    between atoms: O_21  and  N_22
REMARK    7  A    between atoms: N_22  and  C_26
REMARK    8  A    between atoms: C_23  and  C_30
REMARK                            x       y       z     vdW  Elec       q    Type
REMARK                         _______ _______ _______ _____ _____    ______ ____
ROOT
ATOM      1  C   UNL     1       0.909  -8.246  29.321  0.00  0.00    +0.188 C 
ATOM      2  C   UNL     1      -0.357  -8.321  29.837  0.00  0.00    +0.073 C 
ATOM      3  C   UNL     1      -1.275  -9.114  29.176  0.00  0.00    -0.011 C 
ATOM      4  C   UNL     1      -0.913  -9.813  28.018  0.00  0.00    +0.003 C 
ATOM      5  C   UNL     1       0.357  -9.743  27.491  0.00  0.00    +0.078 C 
ATOM      6  C   UNL     1       1.256  -8.946  28.168  0.00  0.00    +0.047 C 
ATOM      7  C   UNL     1      -2.657  -9.252  29.667  0.00  0.00    +0.053 C 
ATOM      8  C   UNL     1      -2.964  -8.510  30.891  0.00  0.00    -0.012 C 
ATOM      9  C   UNL     1      -4.256  -8.631  31.389  0.00  0.00    -0.004 C 
ATOM     10  C   UNL     1      -4.607  -7.968  32.523  0.00  0.00    +0.003 C 
ATOM     11  C   UNL     1      -3.724  -7.176  33.196  0.00  0.00    +0.037 C 
ATOM     12  C   UNL     1      -2.446  -7.050  32.710  0.00  0.00    +0.136 C 
ATOM     13  C   UNL     1      -2.099  -7.720  31.572  0.00  0.00    +0.069 C 
ATOM     14  C   UNL     1      -0.722  -7.597  31.048  0.00  0.00    +0.201 C 
ATOM     15  O   UNL     1       0.085  -6.867  31.671  0.00  0.00    -0.286 OA
ENDROOT
BRANCH   5  16
ATOM     16  C   UNL     1       0.733 -10.475  26.280  0.00  0.00    +0.338 C 
ATOM     17  O   UNL     1      -0.137 -11.108  25.644  0.00  0.00    -0.245 OA
BRANCH  16  18
ATOM     18  O   UNL     1       2.035 -10.480  25.824  0.00  0.00    -0.477 OA
ATOM     19  H   UNL     1       2.697 -10.010  26.291  0.00  0.00    +0.295 HD
ENDBRANCH  16  18
ENDBRANCH   5  16
BRANCH  12  20
ATOM     20  O   UNL     1      -1.528  -6.252  33.377  0.00  0.00    -0.505 OA
ATOM     21  H   UNL     1      -1.781  -5.798  34.157  0.00  0.00    +0.292 HD
ENDBRANCH  12  20
BRANCH   1  22
ATOM     22  O   UNL     1       1.851  -7.438  29.995  0.00  0.00    -0.313 OA
BRANCH  22  23
ATOM     23  O   UNL     1       2.325  -6.418  29.290  0.00  0.00    -0.059 OA
BRANCH  23  24
ATOM     24  N   UNL     1       2.432  -5.259  29.909  0.00  0.00    -0.098 N 
ATOM     25  C   UNL     1       2.417  -4.058  29.159  0.00  0.00    +0.331 C 
ATOM     26  O   UNL     1       2.555  -2.970  29.748  0.00  0.00    -0.262 OA
BRANCH  24  28
ATOM     27  C   UNL     1       3.746  -4.894  31.951  0.00  0.00    -0.004 C 
ATOM     28  C   UNL     1       2.602  -5.172  31.317  0.00  0.00    +0.081 C 
ATOM     29  C   UNL     1       1.587  -5.356  32.334  0.00  0.00    +0.013 C 
ATOM     30  C   UNL     1       2.095  -5.198  33.531  0.00  0.00    -0.020 C 
ATOM     31  C   UNL     1       3.523  -4.892  33.405  0.00  0.00    +0.053 C 
ENDBRANCH  24  28
BRANCH  25  32
ATOM     32  C   UNL     1       2.237  -4.089  27.689  0.00  0.00    +0.279 C 
ATOM     33  N   UNL     1       1.903  -3.149  26.918  0.00  0.00    -0.230 NA
ATOM     34  C   UNL     1       1.833  -3.572  25.541  0.00  0.00    +0.176 C 
ATOM     35  C   UNL     1       2.607  -4.888  25.569  0.00  0.00    +0.234 C 
ATOM     36  O   UNL     1       2.427  -5.244  26.931  0.00  0.00    -0.455 OA
ENDBRANCH  25  32
ENDBRANCH  23  24
ENDBRANCH  22  23
ENDBRANCH   1  22
TORSDOF 8
