REMARK  Name = =
REMARK  6 active torsions:
REMARK  status: ('A' for Active; 'I' for Inactive)
REMARK    1  A    between atoms: C_1  and  N_16
REMARK    2  A    between atoms: C_3  and  S_29
REMARK    3  A    between atoms: C_4  and  O_30
REMARK    4  A    between atoms: C_6  and  N_7
REMARK    5  A    between atoms: N_16  and  C_21
REMARK    6  A    between atoms: N_19  and  C_27
REMARK                            x       y       z     vdW  Elec       q    Type
REMARK                         _______ _______ _______ _____ _____    ______ ____
ROOT
ATOM      1  C   UNL     1       5.323  -8.508  23.065  0.00  0.00    +0.070 C 
ATOM      2  C   UNL     1       5.245  -7.113  23.054  0.00  0.00    +0.025 C 
ATOM      3  C   UNL     1       6.208  -6.342  23.643  0.00  0.00    +0.057 C 
ATOM      4  C   UNL     1       7.293  -6.914  24.271  0.00  0.00    +0.140 C 
ATOM      5  C   UNL     1       7.362  -8.273  24.279  0.00  0.00    +0.053 C 
ATOM      6  C   UNL     1       6.403  -9.108  23.691  0.00  0.00    +0.069 C 
ENDROOT
BRANCH   6   7
ATOM      7  N   UNL     1       6.591 -10.515  23.771  0.00  0.00    -0.286 N 
ATOM      8  C   UNL     1       7.364 -11.307  22.844  0.00  0.00    +0.100 C 
ATOM      9  C   UNL     1       7.901 -12.460  23.697  0.00  0.00    +0.049 C 
ATOM     10  C   UNL     1       6.843 -12.598  24.759  0.00  0.00    -0.007 C 
ATOM     11  C   UNL     1       6.090 -11.419  24.757  0.00  0.00    +0.048 C 
ATOM     12  C   UNL     1       5.060 -11.343  25.661  0.00  0.00    +0.015 C 
ATOM     13  C   UNL     1       4.773 -12.373  26.535  0.00  0.00    +0.001 C 
ATOM     14  C   UNL     1       5.522 -13.538  26.534  0.00  0.00    -0.000 C 
ATOM     15  C   UNL     1       6.563 -13.628  25.628  0.00  0.00    -0.003 C 
ENDBRANCH   6   7
BRANCH   1  16
ATOM     16  N   UNL     1       4.298  -9.266  22.433  0.00  0.00    -0.236 N 
ATOM     17  C   UNL     1       4.448  -9.733  21.112  0.00  0.00    +0.308 C 
ATOM     18  O   UNL     1       5.477  -9.542  20.397  0.00  0.00    -0.265 OA
BRANCH  16  21
ATOM     19  N   UNL     1       1.247 -10.978  23.577  0.00  0.00    -0.270 NA
ATOM     20  C   UNL     1       2.513 -10.911  22.898  0.00  0.00    +0.111 C 
ATOM     21  C   UNL     1       3.084  -9.546  23.151  0.00  0.00    +0.170 C 
ATOM     22  N   UNL     1       2.056  -8.567  22.904  0.00  0.00    -0.197 NA
ATOM     23  C   UNL     1       0.908  -9.045  22.204  0.00  0.00    +0.108 C 
ATOM     24  C   UNL     1       0.230 -10.158  22.955  0.00  0.00    +0.091 C 
BRANCH  19  27
ATOM     25  C   UNL     1       0.144 -11.303  26.410  0.00  0.00    +0.003 C 
ATOM     26  C   UNL     1       1.320 -11.604  25.958  0.00  0.00    +0.016 C 
ATOM     27  C   UNL     1       1.328 -10.557  24.976  0.00  0.00    +0.058 C 
ATOM     28  C   UNL     1      -0.017 -10.200  25.480  0.00  0.00    +0.016 C 
ENDBRANCH  19  27
ENDBRANCH  16  21
ENDBRANCH   1  16
BRANCH   3  29
ATOM     29  S   UNL     1       6.075  -4.563  23.609  0.00  0.00    -0.138 S 
ATOM     30  H   UNL     1       4.942  -4.206  22.947  0.00  0.00    +0.107 HD
ENDBRANCH   3  29
BRANCH   4  31
ATOM     31  O   UNL     1       8.274  -6.114  24.872  0.00  0.00    -0.505 OA
ATOM     32  H   UNL     1       8.196  -5.181  24.849  0.00  0.00    +0.292 HD
ENDBRANCH   4  31
TORSDOF 6
