REMARK  Name = =
REMARK  7 active torsions:
REMARK  status: ('A' for Active; 'I' for Inactive)
REMARK    1  A    between atoms: N_1  and  C_6
REMARK    2  A    between atoms: N_1  and  C_19
REMARK    3  A    between atoms: N_4  and  C_12
REMARK    4  A    between atoms: C_10  and  C_14
REMARK    5  A    between atoms: C_21  and  S_34
REMARK    6  A    between atoms: C_22  and  O_35
REMARK    7  A    between atoms: C_24  and  N_25
REMARK                            x       y       z     vdW  Elec       q    Type
REMARK                         _______ _______ _______ _____ _____    ______ ____
ROOT
ATOM      1  N   UNL     1       5.140 -10.605  23.942  0.00  0.00    -0.236 N 
ATOM      2  C   UNL     1       4.592  -9.304  24.060  0.00  0.00    +0.308 C 
ATOM      3  O   UNL     1       3.872  -8.968  25.039  0.00  0.00    -0.265 OA
ENDROOT
BRANCH   1   6
ATOM      4  N   UNL     1       4.697 -13.900  25.554  0.00  0.00    -0.270 NA
ATOM      5  C   UNL     1       4.948 -13.015  24.495  0.00  0.00    +0.111 C 
ATOM      6  C   UNL     1       4.894 -11.591  24.968  0.00  0.00    +0.170 C 
ATOM      7  N   UNL     1       5.819 -11.338  26.050  0.00  0.00    -0.197 NA
ATOM      8  C   UNL     1       6.536 -12.537  26.398  0.00  0.00    +0.108 C 
ATOM      9  C   UNL     1       5.457 -13.573  26.738  0.00  0.00    +0.091 C 
BRANCH   4  12
ATOM     10  C   UNL     1       1.644 -13.285  25.963  0.00  0.00    +0.027 C 
ATOM     11  C   UNL     1       2.626 -13.375  26.784  0.00  0.00    +0.018 C 
ATOM     12  C   UNL     1       3.377 -14.250  25.921  0.00  0.00    +0.058 C 
ATOM     13  C   UNL     1       2.257 -14.135  24.976  0.00  0.00    +0.018 C 
BRANCH  10  14
ATOM     14  C   UNL     1       0.350 -12.549  26.027  0.00  0.00    +0.103 C 
ATOM     15  S   UNL     1       0.286 -11.223  24.791  0.00  0.00    -0.124 S 
ATOM     16  C   UNL     1      -0.108  -9.865  25.973  0.00  0.00    +0.076 C 
ATOM     17  C   UNL     1       0.421 -10.531  27.243  0.00  0.00    +0.081 C 
ATOM     18  N   UNL     1       0.068 -11.895  27.240  0.00  0.00    -0.289 NA
ATOM     19  H   UNL     1       0.584 -12.363  27.986  0.00  0.00    +0.124 HD
ENDBRANCH  10  14
ENDBRANCH   4  12
ENDBRANCH   1   6
BRANCH   1  20
ATOM     20  C   UNL     1       5.930 -10.939  22.831  0.00  0.00    +0.070 C 
ATOM     21  C   UNL     1       7.322 -11.032  22.858  0.00  0.00    +0.025 C 
ATOM     22  C   UNL     1       8.089 -11.353  21.760  0.00  0.00    +0.057 C 
ATOM     23  C   UNL     1       7.465 -11.597  20.561  0.00  0.00    +0.140 C 
ATOM     24  C   UNL     1       6.095 -11.516  20.491  0.00  0.00    +0.053 C 
ATOM     25  C   UNL     1       5.336 -11.188  21.624  0.00  0.00    +0.069 C 
BRANCH  25  26
ATOM     26  N   UNL     1       3.925 -11.107  21.498  0.00  0.00    -0.286 N 
ATOM     27  C   UNL     1       2.848 -11.953  21.896  0.00  0.00    +0.100 C 
ATOM     28  C   UNL     1       1.797 -11.670  20.820  0.00  0.00    +0.049 C 
ATOM     29  C   UNL     1       2.051 -10.273  20.430  0.00  0.00    -0.007 C 
ATOM     30  C   UNL     1       3.315  -9.966  20.839  0.00  0.00    +0.048 C 
ATOM     31  C   UNL     1       3.779  -8.695  20.577  0.00  0.00    +0.015 C 
ATOM     32  C   UNL     1       3.014  -7.748  19.926  0.00  0.00    +0.001 C 
ATOM     33  C   UNL     1       1.752  -8.084  19.526  0.00  0.00    -0.000 C 
ATOM     34  C   UNL     1       1.262  -9.359  19.780  0.00  0.00    -0.003 C 
ENDBRANCH  25  26
BRANCH  22  35
ATOM     35  S   UNL     1       9.862 -11.435  21.943  0.00  0.00    -0.138 S 
ATOM     36  H   UNL     1      10.199 -11.150  23.229  0.00  0.00    +0.107 HD
ENDBRANCH  22  35
BRANCH  23  37
ATOM     37  O   UNL     1       8.219 -11.926  19.424  0.00  0.00    -0.505 OA
ATOM     38  H   UNL     1       9.153 -11.979  19.480  0.00  0.00    +0.292 HD
ENDBRANCH  23  37
ENDBRANCH   1  20
TORSDOF 7
