REMARK  Name = =
REMARK  8 active torsions:
REMARK  status: ('A' for Active; 'I' for Inactive)
REMARK    1  A    between atoms: C_1  and  N_22
REMARK    2  A    between atoms: C_3  and  S_40
REMARK    3  A    between atoms: C_4  and  O_41
REMARK    4  A    between atoms: C_6  and  N_7
REMARK    5  A    between atoms: C_8  and  N_16
REMARK    6  A    between atoms: N_22  and  C_27
REMARK    7  A    between atoms: N_25  and  C_33
REMARK    8  A    between atoms: C_31  and  C_35
REMARK                            x       y       z     vdW  Elec       q    Type
REMARK                         _______ _______ _______ _____ _____    ______ ____
ROOT
ATOM      1  C   UNL     1       2.096 -11.610  21.580  0.00  0.00    +0.070 C 
ATOM      2  C   UNL     1       1.384 -11.868  20.398  0.00  0.00    +0.025 C 
ATOM      3  C   UNL     1       0.210 -12.601  20.485  0.00  0.00    +0.057 C 
ATOM      4  C   UNL     1      -0.264 -13.072  21.685  0.00  0.00    +0.140 C 
ATOM      5  C   UNL     1       0.471 -12.792  22.815  0.00  0.00    +0.053 C 
ATOM      6  C   UNL     1       1.649 -12.067  22.787  0.00  0.00    +0.069 C 
ENDROOT
BRANCH   6   7
ATOM      7  N   UNL     1       2.314 -11.916  24.031  0.00  0.00    -0.274 N 
ATOM      8  C   UNL     1       2.416 -10.844  24.962  0.00  0.00    +0.143 C 
ATOM      9  C   UNL     1       3.273 -11.368  26.084  0.00  0.00    +0.065 C 
ATOM     10  C   UNL     1       3.627 -12.744  25.741  0.00  0.00    -0.005 C 
ATOM     11  C   UNL     1       3.070 -13.052  24.547  0.00  0.00    +0.049 C 
ATOM     12  C   UNL     1       3.294 -14.327  24.040  0.00  0.00    +0.015 C 
ATOM     13  C   UNL     1       4.046 -15.262  24.701  0.00  0.00    +0.001 C 
ATOM     14  C   UNL     1       4.603 -14.934  25.912  0.00  0.00    -0.000 C 
ATOM     15  C   UNL     1       4.384 -13.674  26.418  0.00  0.00    -0.003 C 
BRANCH   8  16
ATOM     16  N   UNL     1       1.163 -10.416  25.545  0.00  0.00    -0.253 NA
ATOM     17  C   UNL     1       1.313  -9.153  26.183  0.00  0.00    +0.106 C 
ATOM     18  C   UNL     1       0.821  -9.086  27.592  0.00  0.00    +0.160 C 
ATOM     19  O   UNL     1      -0.292  -9.881  27.830  0.00  0.00    -0.351 OA
ATOM     20  C   UNL     1       0.114 -11.192  27.644  0.00  0.00    +0.160 C 
ATOM     21  C   UNL     1       0.409 -11.405  26.203  0.00  0.00    +0.106 C 
ENDBRANCH   8  16
ENDBRANCH   6   7
BRANCH   1  22
ATOM     22  N   UNL     1       3.279 -10.856  21.538  0.00  0.00    -0.236 N 
ATOM     23  C   UNL     1       3.138  -9.434  21.570  0.00  0.00    +0.308 C 
ATOM     24  O   UNL     1       2.028  -8.850  21.656  0.00  0.00    -0.265 OA
BRANCH  22  27
ATOM     25  N   UNL     1       6.082 -12.778  20.122  0.00  0.00    -0.270 NA
ATOM     26  C   UNL     1       4.887 -12.002  20.086  0.00  0.00    +0.111 C 
ATOM     27  C   UNL     1       4.592 -11.402  21.468  0.00  0.00    +0.170 C 
ATOM     28  N   UNL     1       5.594 -10.432  21.715  0.00  0.00    -0.197 NA
ATOM     29  C   UNL     1       6.921 -10.970  21.584  0.00  0.00    +0.108 C 
ATOM     30  C   UNL     1       6.996 -12.399  21.153  0.00  0.00    +0.091 C 
BRANCH  25  33
ATOM     31  C   UNL     1       4.505 -15.309  19.202  0.00  0.00    +0.027 C 
ATOM     32  C   UNL     1       5.629 -14.821  18.825  0.00  0.00    +0.018 C 
ATOM     33  C   UNL     1       5.905 -14.216  20.131  0.00  0.00    +0.058 C 
ATOM     34  C   UNL     1       4.600 -14.758  20.537  0.00  0.00    +0.018 C 
BRANCH  31  35
ATOM     35  C   UNL     1       3.445 -16.124  18.546  0.00  0.00    +0.103 C 
ATOM     36  S   UNL     1       1.904 -16.156  19.555  0.00  0.00    -0.124 S 
ATOM     37  C   UNL     1       0.799 -16.394  18.086  0.00  0.00    +0.076 C 
ATOM     38  C   UNL     1       1.614 -15.563  17.118  0.00  0.00    +0.081 C 
ATOM     39  N   UNL     1       2.986 -15.698  17.304  0.00  0.00    -0.289 NA
ATOM     40  H   UNL     1       3.406 -14.786  17.123  0.00  0.00    +0.124 HD
ENDBRANCH  31  35
ENDBRANCH  25  33
ENDBRANCH  22  27
ENDBRANCH   1  22
BRANCH   3  41
ATOM     41  S   UNL     1      -0.697 -12.929  18.957  0.00  0.00    -0.138 S 
ATOM     42  H   UNL     1      -0.038 -12.367  17.909  0.00  0.00    +0.107 HD
ENDBRANCH   3  41
BRANCH   4  43
ATOM     43  O   UNL     1      -1.445 -13.802  21.745  0.00  0.00    -0.505 OA
ATOM     44  H   UNL     1      -1.927 -13.979  20.961  0.00  0.00    +0.292 HD
ENDBRANCH   4  43
TORSDOF 8
