REMARK  Name = =
REMARK  11 active torsions:
REMARK  status: ('A' for Active; 'I' for Inactive)
REMARK    1  A    between atoms: C_1  and  P_19
REMARK    2  A    between atoms: C_1  and  C_29
REMARK    3  A    between atoms: P_19  and  O_20
REMARK    4  A    between atoms: P_19  and  C_23
REMARK    5  A    between atoms: O_21  and  O_22
REMARK    6  A    between atoms: C_23  and  C_25
REMARK    7  A    between atoms: C_25  and  O_27
REMARK    8  A    between atoms: O_27  and  N_28
REMARK    9  A    between atoms: C_29  and  S_31
REMARK   10  A    between atoms: C_30  and  C_34
REMARK   11  A    between atoms: S_31  and  S_33
REMARK                            x       y       z     vdW  Elec       q    Type
REMARK                         _______ _______ _______ _____ _____    ______ ____
ROOT
ATOM      1  C   UNL     1      50.339 158.488  30.543  0.00  0.00    +0.106 C 
ATOM      2  C   UNL     1      50.201 158.132  31.974  0.00  0.00    +0.015 C 
ATOM      3  C   UNL     1      49.298 159.086  32.758  0.00  0.00    +0.003 C 
ATOM      4  C   UNL     1      50.028 160.359  32.766  0.00  0.00    +0.024 C 
ATOM      5  C   UNL     1      50.062 160.874  31.349  0.00  0.00    +0.062 C 
ATOM      6  C   UNL     1      48.891 161.732  30.982  0.00  0.00    +0.026 C 
ATOM      7  C   UNL     1      48.121 162.353  32.072  0.00  0.00    +0.089 C 
ATOM      8  N   UNL     1      48.253 161.785  33.382  0.00  0.00    -0.219 NA
ATOM      9  C   UNL     1      49.641 161.434  33.678  0.00  0.00    +0.077 C 
ATOM     10  C   UNL     1      50.522 162.672  33.578  0.00  0.00    +0.043 C 
ATOM     11  C   UNL     1      51.470 162.608  32.429  0.00  0.00    -0.022 C 
ATOM     12  C   UNL     1      52.634 163.370  32.329  0.00  0.00    -0.004 C 
ATOM     13  C   UNL     1      53.480 163.188  31.235  0.00  0.00    +0.003 C 
ATOM     14  C   UNL     1      53.196 162.259  30.230  0.00  0.00    +0.037 C 
ATOM     15  C   UNL     1      52.036 161.492  30.318  0.00  0.00    +0.134 C 
ATOM     16  C   UNL     1      51.285 161.740  31.404  0.00  0.00    +0.011 C 
ATOM     17  O   UNL     1      51.422 160.485  29.551  0.00  0.00    -0.478 OA
ATOM     18  C   UNL     1      50.307 159.940  30.255  0.00  0.00    +0.180 C 
ENDROOT
BRANCH   1  19
ATOM     19  C   UNL     1      49.140 157.960  29.796  0.00  0.00    +0.063 C 
ATOM     20  C   UNL     1      48.969 156.688  29.502  0.00  0.00    +0.084 C 
BRANCH  19  21
ATOM     21  S   UNL     1      47.821 158.986  29.241  0.00  0.00    +0.109 S 
ATOM     22  O   UNL     1      46.955 159.523  30.320  0.00  0.00    -0.241 OA
BRANCH  21  23
ATOM     23  S   UNL     1      48.448 160.616  28.069  0.00  0.00    -0.074 S 
ATOM     24  H   UNL     1      49.248 160.170  27.063  0.00  0.00    +0.117 HD
ENDBRANCH  21  23
ENDBRANCH  19  21
BRANCH  20  25
ATOM     25  C   UNL     1      47.813 156.207  28.799  0.00  0.00    +0.101 C 
ATOM     26  N   UNL     1      46.883 155.810  28.239  0.00  0.00    -0.191 NA
ENDBRANCH  20  25
ENDBRANCH   1  19
BRANCH   1  27
ATOM     27  P   UNL     1      51.782 157.689  29.875  0.00  0.00    +0.081 P 
BRANCH  27  28
ATOM     28  O   UNL     1      51.494 156.600  30.881  0.00  0.00    -0.367 OA
ATOM     29  H   UNL     1      52.162 155.901  30.801  0.00  0.00    +0.215 HD
ENDBRANCH  27  28
BRANCH  27  30
ATOM     30  C   UNL     1      51.875 156.141  29.038  0.00  0.00    +0.097 C 
ATOM     31  C   UNL     1      51.348 154.989  29.407  0.00  0.00    +0.009 C 
BRANCH  30  32
ATOM     32  C   UNL     1      52.582 156.141  27.784  0.00  0.00    +0.361 C 
ATOM     33  O   UNL     1      53.566 156.901  27.630  0.00  0.00    -0.243 OA
BRANCH  32  34
ATOM     34  O   UNL     1      52.225 155.325  26.709  0.00  0.00    -0.368 OA
BRANCH  34  35
ATOM     35  N   UNL     1      52.770 155.612  25.490  0.00  0.00    -0.165 NA
ATOM     36  H   UNL     1      52.428 154.944  24.799  0.00  0.00    +0.163 HD
ATOM     37  H   UNL     1      53.786 155.550  25.549  0.00  0.00    +0.163 HD
ENDBRANCH  34  35
ENDBRANCH  32  34
ENDBRANCH  30  32
ENDBRANCH  27  30
ENDBRANCH   1  27
TORSDOF 10
REMARK  Name = =
REMARK  11 active torsions:
REMARK  status: ('A' for Active; 'I' for Inactive)
REMARK    1  A    between atoms: C_1  and  P_19
REMARK    2  A    between atoms: C_1  and  C_29
REMARK    3  A    between atoms: P_19  and  O_20
REMARK    4  A    between atoms: P_19  and  C_23
REMARK    5  A    between atoms: O_21  and  O_22
REMARK    6  A    between atoms: C_23  and  C_25
REMARK    7  A    between atoms: C_25  and  O_27
REMARK    8  A    between atoms: O_27  and  N_28
REMARK    9  A    between atoms: C_29  and  S_31
REMARK   10  A    between atoms: C_30  and  C_34
REMARK   11  A    between atoms: S_31  and  S_33
REMARK                            x       y       z     vdW  Elec       q    Type
REMARK                         _______ _______ _______ _____ _____    ______ ____
ROOT
ATOM      1  O   UNL     1      53.119 158.638  29.523  0.00  0.00    -0.253 OA
ATOM      2  H   UNL     1      53.758 159.313  29.248  0.00  0.00    +0.253 HD
ENDROOT
BRANCH   1   3
ATOM      3  O   UNL     1      51.987 158.440  28.343  0.00  0.00    -0.253 OA
ATOM      4  H   UNL     1      51.348 157.765  28.618  0.00  0.00    +0.253 HD
ENDBRANCH   1   3
TORSDOF 1
