REMARK  Name = =
REMARK  2 active torsions:
REMARK  status: ('A' for Active; 'I' for Inactive)
REMARK    1  A    between atoms: N_1  and  C_8
REMARK    2  A    between atoms: C_2  and  C_11
REMARK                            x       y       z     vdW  Elec       q    Type
REMARK                         _______ _______ _______ _____ _____    ______ ____
ROOT
ATOM      1  N   UNL     1       0.174  -4.227  28.954  0.00  0.00    -0.297 N 
ATOM      2  C   UNL     1       1.442  -4.527  29.508  0.00  0.00    +0.299 C 
ATOM      3  O   UNL     1       1.543  -4.823  30.714  0.00  0.00    -0.265 OA
ATOM      4  H   UNL     1       0.123  -3.996  27.998  0.00  0.00    +0.150 HD
ENDROOT
BRANCH   1   9
ATOM      5  C   UNL     1      -3.408  -3.450  31.270  0.00  0.00    +0.017 C 
ATOM      6  C   UNL     1      -3.610  -4.909  30.915  0.00  0.00    +0.069 C 
ATOM      7  N   UNL     1      -3.335  -5.171  29.560  0.00  0.00    -0.296 NA
ATOM      8  C   UNL     1      -1.990  -5.247  29.151  0.00  0.00    +0.088 C 
ATOM      9  C   UNL     1      -1.059  -4.243  29.730  0.00  0.00    +0.088 C 
ATOM     10  C   UNL     1      -1.557  -2.849  29.809  0.00  0.00    +0.021 C 
ATOM     11  C   UNL     1      -3.040  -2.708  30.001  0.00  0.00    +0.003 C 
ATOM     12  H   UNL     1      -3.774  -4.429  29.015  0.00  0.00    +0.123 HD
ENDBRANCH   1   9
BRANCH   2  13
ATOM     13  C   UNL     1       2.632  -4.487  28.659  0.00  0.00    +0.296 C 
ATOM     14  O   UNL     1       2.577  -4.148  27.458  0.00  0.00    -0.265 OA
ATOM     15  N   UNL     1       3.908  -4.837  29.179  0.00  0.00    -0.322 N 
ATOM     16  H   UNL     1       3.998  -5.110  30.121  0.00  0.00    +0.145 HD
ATOM     17  H   UNL     1       4.702  -4.806  28.598  0.00  0.00    +0.145 HD
ENDBRANCH   2  13
TORSDOF 2
