REMARK  Name = =
REMARK  4 active torsions:
REMARK  status: ('A' for Active; 'I' for Inactive)
REMARK    1  A    between atoms: C_1  and  N_8
REMARK    2  A    between atoms: C_2  and  N_16
REMARK    3  A    between atoms: C_6  and  C_17
REMARK    4  A    between atoms: C_17  and  C_19
REMARK                            x       y       z     vdW  Elec       q    Type
REMARK                         _______ _______ _______ _____ _____    ______ ____
ROOT
ATOM      1  C   UNL     1      -1.435  -3.968  29.801  0.00  0.00    +0.094 C 
ATOM      2  C   UNL     1      -2.082  -2.756  29.909  0.00  0.00    +0.197 C 
ATOM      3  N   UNL     1      -3.165  -2.646  30.756  0.00  0.00    -0.222 NA
ATOM      4  C   UNL     1      -3.640  -3.637  31.483  0.00  0.00    +0.200 C 
ATOM      5  N   UNL     1      -3.007  -4.800  31.360  0.00  0.00    -0.178 NA
ATOM      6  C   UNL     1      -1.916  -5.014  30.541  0.00  0.00    +0.125 C 
ATOM      7  N   UNL     1      -4.757  -3.528  32.359  0.00  0.00    -0.330 N 
ATOM      8  H   UNL     1      -5.228  -2.668  32.452  0.00  0.00    +0.145 HD
ATOM      9  H   UNL     1      -5.059  -4.312  32.872  0.00  0.00    +0.145 HD
ENDROOT
BRANCH   1  10
ATOM     10  N   UNL     1      -0.289  -4.111  29.044  0.00  0.00    -0.207 N 
ATOM     11  C   UNL     1       1.044  -4.042  29.605  0.00  0.00    +0.235 C 
ATOM     12  O   UNL     1       1.391  -3.124  30.429  0.00  0.00    -0.274 OA
ATOM     13  C   UNL     1       2.009  -5.104  29.162  0.00  0.00    +0.087 C 
ATOM     14  C   UNL     1       1.981  -5.229  27.684  0.00  0.00    +0.019 C 
ATOM     15  C   UNL     1       0.595  -5.351  27.086  0.00  0.00    +0.087 C 
ATOM     16  C   UNL     1      -0.278  -4.263  27.618  0.00  0.00    +0.235 C 
ATOM     17  O   UNL     1      -0.899  -3.591  26.796  0.00  0.00    -0.274 OA
ENDBRANCH   1  10
BRANCH   2  18
ATOM     18  N   UNL     1      -1.881  -1.566  29.166  0.00  0.00    -0.299 NA
ATOM     19  H   UNL     1      -1.075  -1.681  28.552  0.00  0.00    +0.121 HD
ATOM     20  H   UNL     1      -1.713  -0.790  29.806  0.00  0.00    +0.121 HD
ENDBRANCH   2  18
BRANCH   6  21
ATOM     21  C   UNL     1      -1.547  -6.431  30.456  0.00  0.00    +0.212 C 
ATOM     22  O   UNL     1      -1.889  -7.248  29.602  0.00  0.00    -0.285 OA
BRANCH  21  23
ATOM     23  C   UNL     1      -0.678  -6.918  31.521  0.00  0.00    +0.040 C 
ATOM     24  C   UNL     1       0.455  -6.253  31.956  0.00  0.00    +0.003 C 
ATOM     25  C   UNL     1       1.234  -6.707  32.988  0.00  0.00    +0.000 C 
ATOM     26  C   UNL     1       0.889  -7.882  33.636  0.00  0.00    +0.000 C 
ATOM     27  C   UNL     1      -0.222  -8.563  33.233  0.00  0.00    +0.000 C 
ATOM     28  C   UNL     1      -1.002  -8.098  32.191  0.00  0.00    +0.003 C 
ENDBRANCH  21  23
ENDBRANCH   6  21
TORSDOF 4
