REMARK  Name = =
REMARK  5 active torsions:
REMARK  status: ('A' for Active; 'I' for Inactive)
REMARK    1  A    between atoms: C_5  and  N_8
REMARK    2  A    between atoms: C_6  and  N_14
REMARK    3  A    between atoms: C_9  and  C_11
REMARK    4  A    between atoms: C_15  and  C_17
REMARK    5  A    between atoms: C_17  and  O_19
REMARK                            x       y       z     vdW  Elec       q    Type
REMARK                         _______ _______ _______ _____ _____    ______ ____
ROOT
ATOM      1  C   UNL     1       2.958  -5.932  30.227  0.00  0.00    +0.019 C 
ATOM      2  C   UNL     1       1.515  -6.349  30.283  0.00  0.00    +0.069 C 
ATOM      3  N   UNL     1       0.613  -5.282  30.543  0.00  0.00    -0.296 NA
ATOM      4  C   UNL     1       1.205  -3.980  30.575  0.00  0.00    +0.090 C 
ATOM      5  C   UNL     1       1.307  -3.482  29.142  0.00  0.00    +0.106 C 
ATOM      6  C   UNL     1       2.079  -4.523  28.340  0.00  0.00    +0.091 C 
ATOM      7  C   UNL     1       3.268  -4.922  29.188  0.00  0.00    +0.023 C 
ATOM      8  H   UNL     1       0.175  -5.452  31.448  0.00  0.00    +0.123 HD
ENDROOT
BRANCH   5   9
ATOM      9  N   UNL     1      -0.044  -3.324  28.659  0.00  0.00    -0.296 N 
ATOM     10  C   UNL     1      -0.494  -2.077  28.161  0.00  0.00    +0.299 C 
ATOM     11  O   UNL     1       0.257  -1.062  28.119  0.00  0.00    -0.265 OA
ATOM     12  H   UNL     1      -0.660  -4.092  28.676  0.00  0.00    +0.150 HD
BRANCH  10  13
ATOM     13  C   UNL     1      -1.870  -1.932  27.673  0.00  0.00    +0.296 C 
ATOM     14  O   UNL     1      -2.590  -2.946  27.491  0.00  0.00    -0.265 OA
ATOM     15  N   UNL     1      -2.428  -0.667  27.393  0.00  0.00    -0.322 N 
ATOM     16  H   UNL     1      -1.891   0.148  27.525  0.00  0.00    +0.145 HD
ATOM     17  H   UNL     1      -3.354  -0.599  27.066  0.00  0.00    +0.145 HD
ENDBRANCH  10  13
ENDBRANCH   5   9
BRANCH   6  18
ATOM     18  N   UNL     1       2.630  -3.917  27.127  0.00  0.00    -0.296 N 
ATOM     19  C   UNL     1       2.265  -4.442  25.855  0.00  0.00    +0.322 C 
ATOM     20  O   UNL     1       1.471  -5.420  25.837  0.00  0.00    -0.263 OA
ATOM     21  H   UNL     1       3.248  -3.153  27.190  0.00  0.00    +0.150 HD
BRANCH  19  22
ATOM     22  C   UNL     1       2.816  -3.835  24.669  0.00  0.00    +0.392 C 
ATOM     23  O   UNL     1       3.568  -2.850  24.758  0.00  0.00    -0.240 OA
BRANCH  22  24
ATOM     24  O   UNL     1       2.511  -4.345  23.429  0.00  0.00    -0.474 OA
ATOM     25  H   UNL     1       1.945  -5.088  23.354  0.00  0.00    +0.296 HD
ENDBRANCH  22  24
ENDBRANCH  19  22
ENDBRANCH   6  18
TORSDOF 5
