REMARK  Name = =
REMARK  6 active torsions:
REMARK  status: ('A' for Active; 'I' for Inactive)
REMARK    1  A    between atoms: C_5  and  N_14
REMARK    2  A    between atoms: C_6  and  N_8
REMARK    3  A    between atoms: C_9  and  C_11
REMARK    4  A    between atoms: C_11  and  O_13
REMARK    5  A    between atoms: N_14  and  C_17
REMARK    6  A    between atoms: C_15  and  C_23
REMARK                            x       y       z     vdW  Elec       q    Type
REMARK                         _______ _______ _______ _____ _____    ______ ____
ROOT
ATOM      1  C   UNL     1      -0.069 -11.144  23.805  0.00  0.00    +0.019 C 
ATOM      2  C   UNL     1       0.209 -11.583  25.200  0.00  0.00    +0.069 C 
ATOM      3  N   UNL     1       1.474 -11.243  25.717  0.00  0.00    -0.296 NA
ATOM      4  C   UNL     1       2.343 -10.456  24.934  0.00  0.00    +0.090 C 
ATOM      5  C   UNL     1       2.956 -11.137  23.738  0.00  0.00    +0.111 C 
ATOM      6  C   UNL     1       2.122 -12.351  23.385  0.00  0.00    +0.092 C 
ATOM      7  C   UNL     1       0.780 -11.889  22.849  0.00  0.00    +0.023 C 
ATOM      8  H   UNL     1       1.960 -12.117  25.916  0.00  0.00    +0.123 HD
ENDROOT
BRANCH   6   9
ATOM      9  N   UNL     1       2.694 -13.181  22.372  0.00  0.00    -0.295 N 
ATOM     10  C   UNL     1       2.518 -14.606  22.430  0.00  0.00    +0.322 C 
ATOM     11  O   UNL     1       1.862 -15.137  23.365  0.00  0.00    -0.263 OA
ATOM     12  H   UNL     1       3.208 -12.777  21.636  0.00  0.00    +0.150 HD
BRANCH  10  13
ATOM     13  C   UNL     1       3.087 -15.469  21.422  0.00  0.00    +0.392 C 
ATOM     14  O   UNL     1       2.904 -15.199  20.220  0.00  0.00    -0.240 OA
BRANCH  13  15
ATOM     15  O   UNL     1       3.820 -16.573  21.775  0.00  0.00    -0.474 OA
ATOM     16  H   UNL     1       3.957 -16.775  22.680  0.00  0.00    +0.296 HD
ENDBRANCH  13  15
ENDBRANCH  10  13
ENDBRANCH   6   9
BRANCH   5  17
ATOM     17  N   UNL     1       4.334 -11.385  23.964  0.00  0.00    -0.249 N 
ATOM     18  C   UNL     1       5.296 -10.788  23.106  0.00  0.00    +0.304 C 
ATOM     19  O   UNL     1       6.530 -11.104  23.437  0.00  0.00    -0.265 OA
BRANCH  17  20
ATOM     20  C   UNL     1       4.865 -12.269  24.991  0.00  0.00    +0.194 C 
ATOM     21  O   UNL     1       4.100 -13.341  25.304  0.00  0.00    -0.338 OA
ATOM     22  C   UNL     1       4.315 -13.853  26.572  0.00  0.00    +0.144 C 
ATOM     23  C   UNL     1       5.756 -13.843  26.964  0.00  0.00    +0.032 C 
ATOM     24  C   UNL     1       6.270 -12.438  26.983  0.00  0.00    +0.007 C 
ATOM     25  C   UNL     1       5.214 -11.551  26.289  0.00  0.00    +0.051 C 
ENDBRANCH  17  20
BRANCH  18  26
ATOM     26  C   UNL     1       5.135  -9.934  21.986  0.00  0.00    +0.297 C 
ATOM     27  O   UNL     1       5.085  -8.712  21.975  0.00  0.00    -0.265 OA
ATOM     28  N   UNL     1       5.012 -10.553  20.680  0.00  0.00    -0.322 N 
ATOM     29  H   UNL     1       5.042 -11.533  20.595  0.00  0.00    +0.145 HD
ATOM     30  H   UNL     1       4.899  -9.993  19.878  0.00  0.00    +0.145 HD
ENDBRANCH  18  26
ENDBRANCH   5  17
TORSDOF 6
