REMARK  Name = =
REMARK  6 active torsions:
REMARK  status: ('A' for Active; 'I' for Inactive)
REMARK    1  A    between atoms: C_1  and  N_8
REMARK    2  A    between atoms: C_2  and  N_24
REMARK    3  A    between atoms: C_6  and  C_25
REMARK    4  A    between atoms: C_11  and  C_16
REMARK    5  A    between atoms: C_19  and  O_23
REMARK    6  A    between atoms: C_25  and  C_27
REMARK                            x       y       z     vdW  Elec       q    Type
REMARK                         _______ _______ _______ _____ _____    ______ ____
ROOT
ATOM      1  C   UNL     1      -2.804  -2.193  29.663  0.00  0.00    +0.113 A 
ATOM      2  C   UNL     1      -3.495  -1.603  30.710  0.00  0.00    +0.144 A 
ATOM      3  N   UNL     1      -3.862  -0.319  30.531  0.00  0.00    -0.198 NA
ATOM      4  C   UNL     1      -3.590   0.383  29.414  0.00  0.00    +0.215 A 
ATOM      5  N   UNL     1      -2.916  -0.234  28.427  0.00  0.00    -0.209 NA
ATOM      6  C   UNL     1      -2.501  -1.515  28.497  0.00  0.00    +0.140 A 
ATOM      7  N   UNL     1      -4.023   1.750  29.311  0.00  0.00    -0.327 N 
ATOM      8  H   UNL     1      -4.514   2.168  30.055  0.00  0.00    +0.145 HD
ATOM      9  H   UNL     1      -3.828   2.268  28.497  0.00  0.00    +0.145 HD
ENDROOT
BRANCH   1  10
ATOM     10  N   UNL     1      -2.393  -3.542  29.769  0.00  0.00    -0.204 N 
ATOM     11  C   UNL     1      -1.003  -3.844  29.780  0.00  0.00    +0.239 C 
ATOM     12  O   UNL     1      -0.089  -3.048  29.480  0.00  0.00    -0.274 OA
ATOM     13  C   UNL     1      -0.547  -5.231  30.179  0.00  0.00    +0.102 C 
ATOM     14  C   UNL     1      -1.574  -6.231  29.728  0.00  0.00    +0.023 C 
ATOM     15  C   UNL     1      -2.935  -5.924  30.291  0.00  0.00    +0.087 C 
ATOM     16  C   UNL     1      -3.350  -4.573  29.856  0.00  0.00    +0.235 C 
ATOM     17  O   UNL     1      -4.593  -4.349  29.559  0.00  0.00    -0.274 OA
BRANCH  13  18
ATOM     18  C   UNL     1       0.767  -5.588  29.645  0.00  0.00    +0.014 C 
ATOM     19  C   UNL     1       1.955  -5.202  30.246  0.00  0.00    +0.140 C 
ATOM     20  C   UNL     1       3.153  -5.573  29.685  0.00  0.00    +0.066 C 
ATOM     21  C   UNL     1       3.231  -6.317  28.542  0.00  0.00    +0.136 C 
ATOM     22  C   UNL     1       2.083  -6.712  27.927  0.00  0.00    +0.036 C 
ATOM     23  C   UNL     1       0.864  -6.337  28.495  0.00  0.00    +0.002 C 
ATOM     24  F   UNL     1       1.895  -4.475  31.380  0.00  0.00    -0.204 F 
BRANCH  21  25
ATOM     25  O   UNL     1       4.449  -6.689  27.980  0.00  0.00    -0.505 OA
ATOM     26  H   UNL     1       5.252  -6.428  28.387  0.00  0.00    +0.292 HD
ENDBRANCH  21  25
ENDBRANCH  13  18
ENDBRANCH   1  10
BRANCH   2  27
ATOM     27  N   UNL     1      -3.805  -2.316  31.910  0.00  0.00    -0.342 N 
ATOM     28  H   UNL     1      -3.524  -3.254  32.012  0.00  0.00    +0.144 HD
ATOM     29  H   UNL     1      -4.300  -1.869  32.634  0.00  0.00    +0.144 HD
ENDBRANCH   2  27
BRANCH   6  30
ATOM     30  C   UNL     1      -1.764  -2.108  27.387  0.00  0.00    +0.214 C 
ATOM     31  O   UNL     1      -2.234  -2.910  26.555  0.00  0.00    -0.285 OA
BRANCH  30  32
ATOM     32  C   UNL     1      -0.356  -1.742  27.217  0.00  0.00    +0.041 C 
ATOM     33  C   UNL     1       0.472  -2.508  26.404  0.00  0.00    +0.003 C 
ATOM     34  C   UNL     1       1.792  -2.239  26.180  0.00  0.00    +0.000 C 
ATOM     35  C   UNL     1       2.322  -1.127  26.814  0.00  0.00    +0.000 C 
ATOM     36  C   UNL     1       1.566  -0.337  27.622  0.00  0.00    +0.000 C 
ATOM     37  C   UNL     1       0.233  -0.650  27.818  0.00  0.00    +0.003 C 
ENDBRANCH  30  32
ENDBRANCH   6  30
TORSDOF 6
