REMARK  Name = =
REMARK  8 active torsions:
REMARK  status: ('A' for Active; 'I' for Inactive)
REMARK    1  A    between atoms: C_5  and  N_8
REMARK    2  A    between atoms: C_6  and  N_20
REMARK    3  A    between atoms: N_8  and  C_11
REMARK    4  A    between atoms: C_9  and  C_17
REMARK    5  A    between atoms: N_20  and  N_23
REMARK    6  A    between atoms: C_21  and  C_29
REMARK    7  A    between atoms: C_24  and  C_26
REMARK    8  A    between atoms: C_29  and  O_31
REMARK                            x       y       z     vdW  Elec       q    Type
REMARK                         _______ _______ _______ _____ _____    ______ ____
ROOT
ATOM      1  C   UNL     1       1.765  -8.795  26.840  0.00  0.00    +0.019 C 
ATOM      2  C   UNL     1       0.960  -9.802  27.595  0.00  0.00    +0.069 C 
ATOM      3  N   UNL     1      -0.135 -10.275  26.823  0.00  0.00    -0.296 NA
ATOM      4  C   UNL     1       0.034 -11.539  26.188  0.00  0.00    +0.090 C 
ATOM      5  C   UNL     1       1.423 -11.614  25.470  0.00  0.00    +0.113 C 
ATOM      6  C   UNL     1       1.612 -10.324  24.831  0.00  0.00    +0.115 C 
ATOM      7  C   UNL     1       2.553  -9.501  25.777  0.00  0.00    +0.025 C 
ATOM      8  H   UNL     1      -0.322  -9.585  26.095  0.00  0.00    +0.123 HD
ENDROOT
BRANCH   5   9
ATOM      9  N   UNL     1       1.376 -12.845  24.771  0.00  0.00    -0.249 N 
ATOM     10  C   UNL     1       2.358 -13.828  24.932  0.00  0.00    +0.304 C 
ATOM     11  O   UNL     1       2.217 -14.924  24.277  0.00  0.00    -0.265 OA
BRANCH   9  12
ATOM     12  C   UNL     1       0.289 -13.179  23.855  0.00  0.00    +0.194 C 
ATOM     13  O   UNL     1      -0.185 -14.478  24.010  0.00  0.00    -0.338 OA
ATOM     14  C   UNL     1      -1.319 -14.582  23.196  0.00  0.00    +0.144 C 
ATOM     15  C   UNL     1      -0.971 -14.617  21.727  0.00  0.00    +0.032 C 
ATOM     16  C   UNL     1       0.475 -14.240  21.561  0.00  0.00    +0.007 C 
ATOM     17  C   UNL     1       0.821 -13.102  22.445  0.00  0.00    +0.051 C 
ENDBRANCH   9  12
BRANCH  10  18
ATOM     18  C   UNL     1       3.548 -13.789  25.756  0.00  0.00    +0.297 C 
ATOM     19  O   UNL     1       3.623 -13.781  26.998  0.00  0.00    -0.265 OA
ATOM     20  N   UNL     1       4.863 -13.757  25.116  0.00  0.00    -0.322 N 
ATOM     21  H   UNL     1       4.933 -13.760  24.134  0.00  0.00    +0.145 HD
ATOM     22  H   UNL     1       5.678 -13.733  25.667  0.00  0.00    +0.145 HD
ENDBRANCH  10  18
ENDBRANCH   5   9
BRANCH   6  23
ATOM     23  N   UNL     1       2.254 -10.182  23.568  0.00  0.00    -0.199 N 
ATOM     24  C   UNL     1       3.574 -10.614  23.282  0.00  0.00    +0.340 C 
ATOM     25  O   UNL     1       4.268 -11.100  24.240  0.00  0.00    -0.261 OA
BRANCH  23  26
ATOM     26  N   UNL     1       1.599  -9.489  22.561  0.00  0.00    -0.223 N 
ATOM     27  C   UNL     1       0.196  -9.370  22.426  0.00  0.00    +0.315 C 
ATOM     28  O   UNL     1      -0.616  -9.889  23.227  0.00  0.00    -0.264 OA
ATOM     29  H   UNL     1       2.157  -9.043  21.884  0.00  0.00    +0.174 HD
BRANCH  27  30
ATOM     30  C   UNL     1      -0.379  -8.613  21.304  0.00  0.00    +0.298 C 
ATOM     31  O   UNL     1       0.373  -8.139  20.440  0.00  0.00    -0.265 OA
ATOM     32  N   UNL     1      -1.798  -8.462  21.272  0.00  0.00    -0.322 N 
ATOM     33  H   UNL     1      -2.351  -8.858  21.983  0.00  0.00    +0.145 HD
ATOM     34  H   UNL     1      -2.223  -7.962  20.539  0.00  0.00    +0.145 HD
ENDBRANCH  27  30
ENDBRANCH  23  26
BRANCH  24  35
ATOM     35  C   UNL     1       4.117 -10.509  21.950  0.00  0.00    +0.394 C 
ATOM     36  O   UNL     1       3.542 -10.861  20.904  0.00  0.00    -0.240 OA
BRANCH  35  37
ATOM     37  O   UNL     1       5.388  -9.973  21.818  0.00  0.00    -0.474 OA
ATOM     38  H   UNL     1       5.860  -9.694  22.578  0.00  0.00    +0.296 HD
ENDBRANCH  35  37
ENDBRANCH  24  35
ENDBRANCH   6  23
TORSDOF 8
