REMARK  Name = =
REMARK  13 active torsions:
REMARK  status: ('A' for Active; 'I' for Inactive)
REMARK    1  A    between atoms: C_1  and  S_32
REMARK    2  A    between atoms: C_5  and  N_8
REMARK    3  A    between atoms: C_6  and  N_20
REMARK    4  A    between atoms: N_8  and  C_11
REMARK    5  A    between atoms: C_9  and  C_17
REMARK    6  A    between atoms: N_20  and  N_23
REMARK    7  A    between atoms: C_21  and  C_29
REMARK    8  A    between atoms: C_24  and  C_26
REMARK    9  A    between atoms: C_29  and  O_31
REMARK   10  A    between atoms: S_32  and  C_33
REMARK   11  A    between atoms: C_33  and  C_34
REMARK   12  A    between atoms: C_33  and  N_42
REMARK   13  A    between atoms: C_35  and  N_41
REMARK                            x       y       z     vdW  Elec       q    Type
REMARK                         _______ _______ _______ _____ _____    ______ ____
ROOT
ATOM      1  C   UNL     1       1.063  -7.554  26.857  0.00  0.00    +0.054 C 
ATOM      2  C   UNL     1       1.064  -9.044  26.772  0.00  0.00    +0.079 C 
ATOM      3  N   UNL     1       2.084  -9.610  27.571  0.00  0.00    -0.295 NA
ATOM      4  C   UNL     1       3.430  -9.400  27.230  0.00  0.00    +0.090 C 
ATOM      5  C   UNL     1       3.711  -8.948  25.816  0.00  0.00    +0.113 C 
ATOM      6  C   UNL     1       3.025  -7.709  25.390  0.00  0.00    +0.116 C 
ATOM      7  C   UNL     1       2.457  -6.991  26.592  0.00  0.00    +0.035 C 
ATOM      8  H   UNL     1       1.933 -10.619  27.573  0.00  0.00    +0.123 HD
ENDROOT
BRANCH   5   9
ATOM      9  N   UNL     1       5.056  -9.232  25.494  0.00  0.00    -0.249 N 
ATOM     10  C   UNL     1       6.273  -8.641  25.808  0.00  0.00    +0.304 C 
ATOM     11  O   UNL     1       7.371  -9.186  25.360  0.00  0.00    -0.265 OA
BRANCH   9  12
ATOM     12  C   UNL     1       5.216 -10.436  24.605  0.00  0.00    +0.194 C 
ATOM     13  O   UNL     1       4.833 -11.580  25.267  0.00  0.00    -0.338 OA
ATOM     14  C   UNL     1       4.022 -12.437  24.572  0.00  0.00    +0.144 C 
ATOM     15  C   UNL     1       4.405 -12.669  23.144  0.00  0.00    +0.032 C 
ATOM     16  C   UNL     1       4.729 -11.392  22.440  0.00  0.00    +0.007 C 
ATOM     17  C   UNL     1       4.401 -10.230  23.351  0.00  0.00    +0.051 C 
ENDBRANCH   9  12
BRANCH  10  18
ATOM     18  C   UNL     1       6.495  -7.481  26.577  0.00  0.00    +0.297 C 
ATOM     19  O   UNL     1       5.766  -7.064  27.474  0.00  0.00    -0.265 OA
ATOM     20  N   UNL     1       7.669  -6.671  26.329  0.00  0.00    -0.322 N 
ATOM     21  H   UNL     1       8.308  -6.932  25.627  0.00  0.00    +0.145 HD
ATOM     22  H   UNL     1       7.828  -5.859  26.862  0.00  0.00    +0.145 HD
ENDBRANCH  10  18
ENDBRANCH   5   9
BRANCH   6  23
ATOM     23  N   UNL     1       3.573  -6.903  24.363  0.00  0.00    -0.199 N 
ATOM     24  C   UNL     1       2.998  -6.970  23.047  0.00  0.00    +0.340 C 
ATOM     25  O   UNL     1       2.019  -7.712  22.802  0.00  0.00    -0.261 OA
BRANCH  23  26
ATOM     26  N   UNL     1       4.620  -6.033  24.506  0.00  0.00    -0.223 N 
ATOM     27  C   UNL     1       4.469  -4.635  24.846  0.00  0.00    +0.315 C 
ATOM     28  O   UNL     1       3.322  -4.175  25.013  0.00  0.00    -0.264 OA
ATOM     29  H   UNL     1       5.531  -6.380  24.369  0.00  0.00    +0.174 HD
BRANCH  27  30
ATOM     30  C   UNL     1       5.633  -3.772  24.990  0.00  0.00    +0.298 C 
ATOM     31  O   UNL     1       6.764  -4.252  25.212  0.00  0.00    -0.265 OA
ATOM     32  N   UNL     1       5.473  -2.377  24.877  0.00  0.00    -0.322 N 
ATOM     33  H   UNL     1       4.582  -1.996  24.702  0.00  0.00    +0.145 HD
ATOM     34  H   UNL     1       6.252  -1.783  24.973  0.00  0.00    +0.145 HD
ENDBRANCH  27  30
ENDBRANCH  23  26
BRANCH  24  35
ATOM     35  C   UNL     1       3.561  -6.168  21.984  0.00  0.00    +0.394 C 
ATOM     36  O   UNL     1       4.790  -6.051  21.749  0.00  0.00    -0.240 OA
BRANCH  35  37
ATOM     37  O   UNL     1       2.717  -5.435  21.110  0.00  0.00    -0.474 OA
ATOM     38  H   UNL     1       1.787  -5.469  21.219  0.00  0.00    +0.296 HD
ENDBRANCH  35  37
ENDBRANCH  24  35
ENDBRANCH   6  23
BRANCH   1  39
ATOM     39  S   UNL     1       0.471  -7.013  28.518  0.00  0.00    -0.186 S 
ATOM     40  H   UNL     1       0.484  -5.653  28.537  0.00  0.00    +0.094 HD
BRANCH  39  41
ATOM     41  C   UNL     1      -1.014  -7.497  28.955  0.00  0.00    +0.115 C 
BRANCH  41  42
ATOM     42  C   UNL     1      -1.611  -7.154  30.242  0.00  0.00    +0.051 C 
ATOM     43  C   UNL     1      -1.653  -8.110  31.236  0.00  0.00    +0.128 C 
ATOM     44  N   UNL     1      -2.203  -7.828  32.446  0.00  0.00    -0.200 NA
ATOM     45  C   UNL     1      -2.725  -6.622  32.730  0.00  0.00    +0.215 C 
ATOM     46  N   UNL     1      -2.681  -5.690  31.755  0.00  0.00    -0.213 NA
ATOM     47  C   UNL     1      -2.144  -5.921  30.531  0.00  0.00    +0.102 C 
ATOM     48  N   UNL     1      -3.299  -6.346  34.004  0.00  0.00    -0.327 N 
ATOM     49  H   UNL     1      -3.318  -7.045  34.697  0.00  0.00    +0.145 HD
ATOM     50  H   UNL     1      -3.677  -5.456  34.191  0.00  0.00    +0.145 HD
BRANCH  43  51
ATOM     51  N   UNL     1      -1.108  -9.379  30.948  0.00  0.00    -0.343 N 
ATOM     52  H   UNL     1      -0.715  -9.557  30.063  0.00  0.00    +0.144 HD
ATOM     53  H   UNL     1      -1.120 -10.087  31.632  0.00  0.00    +0.144 HD
ENDBRANCH  43  51
ENDBRANCH  41  42
BRANCH  41  54
ATOM     54  N   UNL     1      -1.806  -8.305  28.075  0.00  0.00    -0.311 NA
ATOM     55  H   UNL     1      -1.288  -8.478  27.214  0.00  0.00    +0.120 HD
ATOM     56  H   UNL     1      -2.675  -7.818  27.857  0.00  0.00    +0.120 HD
ENDBRANCH  41  54
ENDBRANCH  39  41
ENDBRANCH   1  39
TORSDOF 13
