REMARK  Name = =
REMARK  12 active torsions:
REMARK  status: ('A' for Active; 'I' for Inactive)
REMARK    1  A    between atoms: P_1  and  C_3
REMARK    2  A    between atoms: P_1  and  O_11
REMARK    3  A    between atoms: P_1  and  O_12
REMARK    4  A    between atoms: C_3  and  P_7
REMARK    5  A    between atoms: C_4  and  C_5
REMARK    6  A    between atoms: P_7  and  O_9
REMARK    7  A    between atoms: P_7  and  O_10
REMARK    8  A    between atoms: O_12  and  O_13
REMARK    9  A    between atoms: O_13  and  C_14
REMARK   10  A    between atoms: C_14  and  C_16
REMARK   11  A    between atoms: C_17  and  N_22
REMARK   12  A    between atoms: N_22  and  N_23
REMARK                            x       y       z     vdW  Elec       q    Type
REMARK                         _______ _______ _______ _____ _____    ______ ____
ROOT
ATOM      1  P   UNL     1      55.301 160.119  36.992  0.00  0.00    +0.406 P 
ATOM      2  O   UNL     1      55.044 161.139  38.098  0.00  0.00    -0.250 OA
ENDROOT
BRANCH   1   3
ATOM      3  C   UNL     1      53.869 159.035  36.861  0.00  0.00    +0.166 C 
ATOM      4  C   UNL     1      53.406 158.485  37.941  0.00  0.00    +0.060 C 
BRANCH   4   5
ATOM      5  C   UNL     1      52.242 157.609  37.985  0.00  0.00    +0.235 C 
ATOM      6  O   UNL     1      51.596 157.320  36.978  0.00  0.00    -0.283 OA
ENDBRANCH   4   5
BRANCH   3   7
ATOM      7  P   UNL     1      53.136 158.783  35.261  0.00  0.00    +0.367 P 
ATOM      8  O   UNL     1      53.112 157.299  34.884  0.00  0.00    -0.253 OA
BRANCH   7   9
ATOM      9  O   UNL     1      51.596 159.455  35.247  0.00  0.00    -0.321 OA
ATOM     10  H   UNL     1      51.055 159.038  35.936  0.00  0.00    +0.220 HD
ENDBRANCH   7   9
BRANCH   7  11
ATOM     11  O   UNL     1      54.122 159.502  34.050  0.00  0.00    -0.321 OA
ATOM     12  H   UNL     1      55.006 159.102  34.073  0.00  0.00    +0.220 HD
ENDBRANCH   7  11
ENDBRANCH   3   7
ENDBRANCH   1   3
BRANCH   1  13
ATOM     13  O   UNL     1      55.476 160.993  35.555  0.00  0.00    -0.318 OA
ATOM     14  H   UNL     1      56.247 161.577  35.624  0.00  0.00    +0.220 HD
ENDBRANCH   1  13
BRANCH   1  15
ATOM     15  O   UNL     1      56.662 159.189  37.349  0.00  0.00    -0.091 OA
BRANCH  15  16
ATOM     16  O   UNL     1      57.742 159.940  37.411  0.00  0.00    -0.283 OA
BRANCH  16  17
ATOM     17  C   UNL     1      58.506 159.974  38.567  0.00  0.00    +0.377 C 
ATOM     18  O   UNL     1      58.133 159.278  39.537  0.00  0.00    -0.242 OA
BRANCH  17  19
ATOM     19  C   UNL     1      59.686 160.812  38.580  0.00  0.00    +0.093 C 
ATOM     20  C   UNL     1      60.445 160.850  39.719  0.00  0.00    +0.071 C 
ATOM     21  C   UNL     1      61.574 161.631  39.755  0.00  0.00    +0.016 C 
ATOM     22  C   UNL     1      61.961 162.391  38.646  0.00  0.00    +0.001 C 
ATOM     23  C   UNL     1      61.181 162.337  37.513  0.00  0.00    +0.000 C 
ATOM     24  C   UNL     1      60.040 161.558  37.452  0.00  0.00    +0.008 C 
BRANCH  20  25
ATOM     25  N   UNL     1      60.061 160.091  40.844  0.00  0.00    -0.236 N 
ATOM     26  H   UNL     1      60.055 159.108  40.795  0.00  0.00    +0.174 HD
BRANCH  25  27
ATOM     27  N   UNL     1      59.685 160.740  42.043  0.00  0.00    -0.178 NA
ATOM     28  C   UNL     1      59.455 162.001  42.045  0.00  0.00    +0.140 C 
ENDBRANCH  25  27
ENDBRANCH  20  25
ENDBRANCH  17  19
ENDBRANCH  16  17
ENDBRANCH  15  16
ENDBRANCH   1  15
TORSDOF 12
