MODEL 1
REMARK VINA RESULT:    -9.899      0.000      0.000
REMARK INTER + INTRA:         -15.900
REMARK INTER:                 -13.950
REMARK INTRA:                  -1.950
REMARK UNBOUND:                -1.950
REMARK  Name = =
REMARK  8 active torsions:
REMARK  status: ('A' for Active; 'I' for Inactive)
REMARK    1  A    between atoms: C_1  and  N_25
REMARK    2  A    between atoms: S_2  and  C_6
REMARK    3  A    between atoms: N_4  and  O_34
REMARK    4  A    between atoms: C_8  and  C_17
REMARK    5  A    between atoms: C_18  and  C_19
REMARK    6  A    between atoms: O_34  and  P_35
REMARK    7  A    between atoms: P_35  and  O_37
REMARK    8  A    between atoms: P_35  and  O_38
REMARK                            x       y       z     vdW  Elec       q    Type
REMARK                         _______ _______ _______ _____ _____    ______ ____
ROOT
ATOM      1  C   UNL     1      -1.946  -3.706  29.715  0.00  0.00    +0.123 C 
ATOM      2  S   UNL     1      -2.811  -5.207  30.307  0.00  0.00    -0.191 S 
ATOM      3  C   UNL     1      -4.436  -4.435  30.351  0.00  0.00    +0.141 C 
ATOM      4  N   UNL     1      -4.148  -3.074  29.994  0.00  0.00    -0.144 NA
ATOM      5  C   UNL     1      -3.108  -3.068  28.988  0.00  0.00    +0.132 C 
ATOM      6  H   UNL     1      -2.696  -6.343  29.568  0.00  0.00    +0.087 HD
ENDROOT
BRANCH   2   7
ATOM      7  C   UNL     1      -2.193  -5.932  31.829  0.00  0.00    +0.050 C 
ATOM      8  C   UNL     1      -1.208  -7.001  31.546  0.00  0.00    +0.021 C 
ATOM      9  C   UNL     1       0.127  -6.502  31.091  0.00  0.00    +0.045 C 
ATOM     10  C   UNL     1       1.068  -6.168  32.186  0.00  0.00    -0.027 C 
ATOM     11  C   UNL     1       1.111  -7.129  33.317  0.00  0.00    -0.030 C 
ATOM     12  C   UNL     1       0.227  -8.321  33.170  0.00  0.00    +0.026 C 
ATOM     13  C   UNL     1      -1.049  -8.106  32.477  0.00  0.00    +0.006 C 
ATOM     14  C   UNL     1      -2.220  -8.551  33.273  0.00  0.00    +0.005 C 
ATOM     15  C   UNL     1      -3.502  -7.949  32.679  0.00  0.00    +0.023 C 
ATOM     16  C   UNL     1      -3.289  -6.471  32.656  0.00  0.00    -0.036 C 
ATOM     17  C   UNL     1      -4.081  -5.711  33.407  0.00  0.00    -0.008 C 
BRANCH   9  18
ATOM     18  C   UNL     1       0.701  -7.500  30.164  0.00  0.00    -0.022 C 
ATOM     19  C   UNL     1       0.197  -7.848  28.999  0.00  0.00    -0.004 C 
BRANCH  19  20
ATOM     20  C   UNL     1       0.760  -8.824  28.099  0.00  0.00    -0.000 C 
ATOM     21  C   UNL     1       2.065  -8.699  27.672  0.00  0.00    -0.000 C 
ATOM     22  C   UNL     1       2.646  -9.606  26.806  0.00  0.00    -0.000 C 
ATOM     23  C   UNL     1       1.916 -10.694  26.336  0.00  0.00    -0.000 C 
ATOM     24  C   UNL     1       0.617 -10.835  26.752  0.00  0.00    -0.000 C 
ATOM     25  C   UNL     1       0.058  -9.903  27.626  0.00  0.00    -0.000 C 
ENDBRANCH  19  20
ENDBRANCH   9  18
ENDBRANCH   2   7
BRANCH   1  26
ATOM     26  N   UNL     1      -0.854  -4.077  28.891  0.00  0.00    -0.281 N 
ATOM     27  C   UNL     1       0.481  -3.766  29.171  0.00  0.00    +0.305 C 
ATOM     28  O   UNL     1       0.676  -3.101  30.248  0.00  0.00    -0.253 OA
ATOM     29  N   UNL     1       1.602  -4.124  28.368  0.00  0.00    -0.259 N 
ATOM     30  C   UNL     1       1.504  -4.867  27.142  0.00  0.00    +0.127 C 
ATOM     31  C   UNL     1       2.201  -4.068  26.059  0.00  0.00    +0.164 C 
ATOM     32  O   UNL     1       2.784  -2.909  26.559  0.00  0.00    -0.350 OA
ATOM     33  C   UNL     1       3.691  -3.285  27.571  0.00  0.00    +0.164 C 
ATOM     34  C   UNL     1       2.931  -3.734  28.787  0.00  0.00    +0.127 C 
ATOM     35  H   UNL     1      -1.046  -4.586  28.071  0.00  0.00    +0.152 HD
ENDBRANCH   1  26
BRANCH   4  36
ATOM     36  O   UNL     1      -3.830  -2.270  31.009  0.00  0.00    -0.192 OA
BRANCH  36  37
ATOM     37  P   UNL     1      -5.211  -1.749  31.843  0.00  0.00    +0.489 P 
ATOM     38  O   UNL     1      -6.410  -2.138  31.014  0.00  0.00    -0.226 OA
BRANCH  37  39
ATOM     39  O   UNL     1      -5.311  -2.456  33.361  0.00  0.00    -0.302 OA
ATOM     40  H   UNL     1      -4.853  -3.311  33.350  0.00  0.00    +0.222 HD
ENDBRANCH  37  39
BRANCH  37  41
ATOM     41  O   UNL     1      -5.166  -0.064  31.956  0.00  0.00    -0.302 OA
ATOM     42  H   UNL     1      -5.564   0.324  31.161  0.00  0.00    +0.222 HD
ENDBRANCH  37  41
ENDBRANCH  36  37
ENDBRANCH   4  36
TORSDOF 8
ENDMDL
