REMARK  Name = =
REMARK  8 active torsions:
REMARK  status: ('A' for Active; 'I' for Inactive)
REMARK    1  A    between atoms: C_1  and  N_25
REMARK    2  A    between atoms: S_2  and  C_6
REMARK    3  A    between atoms: N_4  and  O_34
REMARK    4  A    between atoms: C_8  and  C_17
REMARK    5  A    between atoms: C_18  and  C_19
REMARK    6  A    between atoms: O_34  and  P_35
REMARK    7  A    between atoms: P_35  and  O_37
REMARK    8  A    between atoms: P_35  and  O_38
REMARK                            x       y       z     vdW  Elec       q    Type
REMARK                         _______ _______ _______ _____ _____    ______ ____
ROOT
ATOM      1  C   UNL     1     -10.954  -1.800  22.983  0.00  0.00    +0.123 C 
ATOM      2  S   UNL     1     -11.340  -2.073  24.751  0.00  0.00    -0.191 S 
ATOM      3  C   UNL     1      -9.852  -3.029  25.083  0.00  0.00    +0.141 C 
ATOM      4  N   UNL     1      -9.243  -3.125  23.786  0.00  0.00    -0.144 NA
ATOM      5  C   UNL     1      -9.447  -1.876  23.084  0.00  0.00    +0.132 C 
ATOM      6  H   UNL     1     -11.551  -0.981  25.534  0.00  0.00    +0.087 HD
ENDROOT
BRANCH   2   7
ATOM      7  C   UNL     1     -12.922  -2.845  25.109  0.00  0.00    +0.050 C 
ATOM      8  C   UNL     1     -13.405  -3.628  23.949  0.00  0.00    +0.021 C 
ATOM      9  C   UNL     1     -12.679  -4.919  23.734  0.00  0.00    +0.045 C 
ATOM     10  C   UNL     1     -13.214  -6.065  24.506  0.00  0.00    -0.027 C 
ATOM     11  C   UNL     1     -14.693  -6.179  24.554  0.00  0.00    -0.030 C 
ATOM     12  C   UNL     1     -15.434  -5.142  23.778  0.00  0.00    +0.026 C 
ATOM     13  C   UNL     1     -14.832  -3.804  23.737  0.00  0.00    +0.006 C 
ATOM     14  C   UNL     1     -15.763  -2.739  24.183  0.00  0.00    +0.005 C 
ATOM     15  C   UNL     1     -14.970  -1.459  24.487  0.00  0.00    +0.023 C 
ATOM     16  C   UNL     1     -13.937  -1.846  25.493  0.00  0.00    -0.036 C 
ATOM     17  C   UNL     1     -13.998  -1.292  26.701  0.00  0.00    -0.008 C 
BRANCH   9  18
ATOM     18  C   UNL     1     -12.660  -5.200  22.283  0.00  0.00    -0.022 C 
ATOM     19  C   UNL     1     -12.273  -6.325  21.721  0.00  0.00    -0.004 C 
BRANCH  19  20
ATOM     20  C   UNL     1     -12.255  -6.593  20.304  0.00  0.00    -0.000 C 
ATOM     21  C   UNL     1     -11.896  -7.841  19.841  0.00  0.00    -0.000 C 
ATOM     22  C   UNL     1     -11.859  -8.143  18.493  0.00  0.00    -0.000 C 
ATOM     23  C   UNL     1     -12.193  -7.177  17.548  0.00  0.00    -0.000 C 
ATOM     24  C   UNL     1     -12.554  -5.931  17.991  0.00  0.00    -0.000 C 
ATOM     25  C   UNL     1     -12.581  -5.656  19.358  0.00  0.00    -0.000 C 
ENDBRANCH  19  20
ENDBRANCH   9  18
ENDBRANCH   2   7
BRANCH   1  26
ATOM     26  N   UNL     1     -11.465  -0.544  22.570  0.00  0.00    -0.281 N 
ATOM     27  C   UNL     1     -12.561  -0.385  21.715  0.00  0.00    +0.305 C 
ATOM     28  O   UNL     1     -13.100  -1.472  21.305  0.00  0.00    -0.253 OA
ATOM     29  N   UNL     1     -13.101   0.860  21.282  0.00  0.00    -0.259 N 
ATOM     30  C   UNL     1     -12.580   2.140  21.676  0.00  0.00    +0.127 C 
ATOM     31  C   UNL     1     -12.282   2.927  20.415  0.00  0.00    +0.164 C 
ATOM     32  O   UNL     1     -12.654   2.235  19.268  0.00  0.00    -0.350 OA
ATOM     33  C   UNL     1     -14.030   1.944  19.368  0.00  0.00    +0.164 C 
ATOM     34  C   UNL     1     -14.244   0.869  20.395  0.00  0.00    +0.127 C 
ATOM     35  H   UNL     1     -11.021   0.268  22.906  0.00  0.00    +0.152 HD
ENDBRANCH   1  26
BRANCH   4  36
ATOM     36  O   UNL     1      -9.640  -4.157  23.042  0.00  0.00    -0.192 OA
BRANCH  36  37
ATOM     37  P   UNL     1      -8.371  -5.247  22.767  0.00  0.00    +0.489 P 
ATOM     38  O   UNL     1      -8.891  -6.317  21.839  0.00  0.00    -0.226 OA
BRANCH  37  39
ATOM     39  O   UNL     1      -7.048  -4.482  22.075  0.00  0.00    -0.302 OA
ATOM     40  H   UNL     1      -6.720  -3.796  22.677  0.00  0.00    +0.222 HD
ENDBRANCH  37  39
BRANCH  37  41
ATOM     41  O   UNL     1      -7.957  -5.971  24.236  0.00  0.00    -0.302 OA
ATOM     42  H   UNL     1      -8.738  -6.405  24.614  0.00  0.00    +0.222 HD
ENDBRANCH  37  41
ENDBRANCH  36  37
ENDBRANCH   4  36
TORSDOF 8
