REMARK  Name = =
REMARK  3 active torsions:
REMARK  status: ('A' for Active; 'I' for Inactive)
REMARK    1  A    between atoms: P_1  and  S_3
REMARK    2  A    between atoms: P_1  and  O_4
REMARK    3  A    between atoms: P_1  and  O_5
REMARK                            x       y       z     vdW  Elec       q    Type
REMARK                         _______ _______ _______ _____ _____    ______ ____
ROOT
ATOM      1  P   UNL     1      -5.682  -2.275  31.936  0.00  0.00    +0.221 P 
ATOM      2  S   UNL     1      -5.917  -2.863  33.531  0.00  0.00    +0.003 S 
ENDROOT
BRANCH   1   3
ATOM      3  S   UNL     1      -4.194  -3.328  30.900  0.00  0.00    -0.092 S 
ATOM      4  H   UNL     1      -3.021  -3.246  31.584  0.00  0.00    +0.111 HD
ENDBRANCH   1   3
BRANCH   1   5
ATOM      5  O   UNL     1      -5.303  -0.616  32.070  0.00  0.00    -0.340 OA
ATOM      6  H   UNL     1      -4.478  -0.512  32.569  0.00  0.00    +0.218 HD
ENDBRANCH   1   5
BRANCH   1   7
ATOM      7  O   UNL     1      -7.120  -2.396  31.063  0.00  0.00    -0.340 OA
ATOM      8  H   UNL     1      -7.822  -1.914  31.528  0.00  0.00    +0.218 HD
ENDBRANCH   1   7
TORSDOF 3
