REMARK  Name = =
REMARK  5 active torsions:
REMARK  status: ('A' for Active; 'I' for Inactive)
REMARK    1  A    between atoms: P_1  and  S_2
REMARK    2  A    between atoms: P_1  and  S_12
REMARK    3  A    between atoms: P_1  and  O_13
REMARK    4  A    between atoms: P_1  and  O_14
REMARK    5  A    between atoms: S_2  and  C_3
REMARK                            x       y       z     vdW  Elec       q    Type
REMARK                         _______ _______ _______ _____ _____    ______ ____
ROOT
ATOM      1  S   UNL     1      -4.934  -3.297  31.198  0.00  0.00    -0.114 S 
ATOM      2  H   UNL     1      -5.759  -3.740  30.211  0.00  0.00    +0.105 HD
ENDROOT
BRANCH   1   3
ATOM      3  C   UNL     1      -4.074  -4.684  31.884  0.00  0.00    +0.024 C 
ATOM      4  C   UNL     1      -3.043  -5.318  31.204  0.00  0.00    +0.046 C 
ATOM      5  C   UNL     1      -2.362  -6.399  31.722  0.00  0.00    +0.177 C 
ATOM      6  C   UNL     1      -2.701  -6.889  32.967  0.00  0.00    +0.176 C 
ATOM      7  C   UNL     1      -3.729  -6.270  33.666  0.00  0.00    +0.041 C 
ATOM      8  C   UNL     1      -4.400  -5.191  33.134  0.00  0.00    +0.009 C 
ATOM      9  O   UNL     1      -1.858  -7.964  33.225  0.00  0.00    -0.435 OA
ATOM     10  C   UNL     1      -0.702  -7.767  32.409  0.00  0.00    +0.429 C 
ATOM     11  O   UNL     1      -1.308  -7.198  31.247  0.00  0.00    -0.435 OA
ENDBRANCH   1   3
BRANCH   1  12
ATOM     12  P   UNL     1      -5.965  -2.381  32.481  0.00  0.00    +0.203 P 
BRANCH  12  13
ATOM     13  S   UNL     1      -5.849  -0.309  32.100  0.00  0.00    -0.093 S 
ATOM     14  H   UNL     1      -4.565   0.110  32.260  0.00  0.00    +0.111 HD
ENDBRANCH  12  13
BRANCH  12  15
ATOM     15  O   UNL     1      -5.531  -2.753  34.059  0.00  0.00    -0.341 OA
ATOM     16  H   UNL     1      -4.606  -2.500  34.208  0.00  0.00    +0.218 HD
ENDBRANCH  12  15
BRANCH  12  17
ATOM     17  O   UNL     1      -7.599  -2.843  32.264  0.00  0.00    -0.341 OA
ATOM     18  H   UNL     1      -7.691  -3.794  32.432  0.00  0.00    +0.218 HD
ENDBRANCH  12  17
ENDBRANCH   1  12
TORSDOF 5
