REMARK  Name = =
REMARK  7 active torsions:
REMARK  status: ('A' for Active; 'I' for Inactive)
REMARK    1  A    between atoms: C_1  and  S_11
REMARK    2  A    between atoms: C_6  and  S_15
REMARK    3  A    between atoms: P_10  and  S_11
REMARK    4  A    between atoms: P_10  and  S_12
REMARK    5  A    between atoms: P_10  and  O_13
REMARK    6  A    between atoms: P_10  and  O_14
REMARK    7  A    between atoms: S_15  and  C_16
REMARK                            x       y       z     vdW  Elec       q    Type
REMARK                         _______ _______ _______ _____ _____    ______ ____
ROOT
ATOM      1  C   UNL     1      -2.685  -4.560  31.235  0.00  0.00    +0.030 C 
ATOM      2  C   UNL     1      -3.392  -3.440  30.844  0.00  0.00    +0.046 C 
ATOM      3  C   UNL     1      -4.537  -3.026  31.504  0.00  0.00    +0.177 C 
ATOM      4  C   UNL     1      -5.014  -3.731  32.590  0.00  0.00    +0.177 C 
ATOM      5  C   UNL     1      -4.317  -4.853  32.991  0.00  0.00    +0.047 C 
ATOM      6  C   UNL     1      -3.176  -5.254  32.323  0.00  0.00    +0.041 C 
ATOM      7  O   UNL     1      -6.178  -3.087  33.056  0.00  0.00    -0.435 OA
ATOM      8  C   UNL     1      -6.213  -1.776  32.490  0.00  0.00    +0.429 C 
ATOM      9  O   UNL     1      -5.421  -1.969  31.332  0.00  0.00    -0.435 OA
ENDROOT
BRANCH   1  10
ATOM     10  S   UNL     1      -1.215  -5.100  30.394  0.00  0.00    -0.113 S 
ATOM     11  H   UNL     1      -0.227  -5.280  31.312  0.00  0.00    +0.105 HD
BRANCH  10  12
ATOM     12  P   UNL     1      -0.629  -3.858  29.111  0.00  0.00    +0.203 P 
BRANCH  12  13
ATOM     13  S   UNL     1      -2.212  -2.776  28.251  0.00  0.00    -0.093 S 
ATOM     14  H   UNL     1      -2.869  -2.085  29.221  0.00  0.00    +0.111 HD
ENDBRANCH  12  13
BRANCH  12  15
ATOM     15  O   UNL     1       0.515  -2.820  29.822  0.00  0.00    -0.341 OA
ATOM     16  H   UNL     1       0.091  -2.306  30.527  0.00  0.00    +0.218 HD
ENDBRANCH  12  15
BRANCH  12  17
ATOM     17  O   UNL     1       0.192  -4.724  27.886  0.00  0.00    -0.341 OA
ATOM     18  H   UNL     1       0.924  -5.225  28.279  0.00  0.00    +0.218 HD
ENDBRANCH  12  17
ENDBRANCH  10  12
ENDBRANCH   1  10
BRANCH   6  19
ATOM     19  S   UNL     1      -2.273  -6.703  32.839  0.00  0.00    -0.047 S 
BRANCH  19  20
ATOM     20  C   UNL     1      -2.166  -7.867  31.517  0.00  0.00    +0.212 A 
ATOM     21  N   UNL     1      -3.147  -8.169  30.662  0.00  0.00    -0.234 N 
ATOM     22  N   UNL     1      -2.689  -9.070  29.830  0.00  0.00    -0.046 NA
ATOM     23  N   UNL     1      -1.447  -9.352  30.126  0.00  0.00    -0.022 NA
ATOM     24  N   UNL     1      -1.110  -8.615  31.168  0.00  0.00    -0.101 NA
ATOM     25  H   UNL     1      -4.053  -7.783  30.658  0.00  0.00    +0.193 HD
ENDBRANCH  19  20
ENDBRANCH   6  19
TORSDOF 7
