REMARK  Name = =
REMARK  7 active torsions:
REMARK  status: ('A' for Active; 'I' for Inactive)
REMARK    1  A    between atoms: C_1  and  S_11
REMARK    2  A    between atoms: C_6  and  S_20
REMARK    3  A    between atoms: P_10  and  N_12
REMARK    4  A    between atoms: P_10  and  S_17
REMARK    5  A    between atoms: P_10  and  O_18
REMARK    6  A    between atoms: P_10  and  O_19
REMARK    7  A    between atoms: S_20  and  C_21
REMARK                            x       y       z     vdW  Elec       q    Type
REMARK                         _______ _______ _______ _____ _____    ______ ____
ROOT
ATOM      1  C   UNL     1      -3.047  -4.176  31.654  0.00  0.00    +0.031 C 
ATOM      2  C   UNL     1      -3.626  -4.195  32.929  0.00  0.00    +0.047 C 
ATOM      3  C   UNL     1      -4.853  -3.647  33.204  0.00  0.00    +0.177 C 
ATOM      4  C   UNL     1      -5.560  -3.049  32.187  0.00  0.00    +0.177 C 
ATOM      5  C   UNL     1      -5.016  -3.013  30.913  0.00  0.00    +0.047 C 
ATOM      6  C   UNL     1      -3.764  -3.575  30.649  0.00  0.00    +0.041 C 
ATOM      7  O   UNL     1      -6.751  -2.583  32.725  0.00  0.00    -0.435 OA
ATOM      8  C   UNL     1      -6.932  -3.180  33.997  0.00  0.00    +0.429 C 
ATOM      9  O   UNL     1      -5.614  -3.545  34.362  0.00  0.00    -0.435 OA
ENDROOT
BRANCH   1  10
ATOM     10  S   UNL     1      -1.459  -4.897  31.347  0.00  0.00    -0.141 S 
ATOM     11  H   UNL     1      -0.968  -5.421  32.502  0.00  0.00    +0.107 HD
ENDBRANCH   1  10
BRANCH   6  12
ATOM     12  S   UNL     1      -3.092  -3.517  29.013  0.00  0.00    -0.047 S 
BRANCH  12  13
ATOM     13  C   UNL     1      -2.432  -1.865  28.752  0.00  0.00    +0.212 A 
ATOM     14  N   UNL     1      -2.719  -0.736  29.421  0.00  0.00    -0.234 N 
ATOM     15  N   UNL     1      -2.006   0.249  28.899  0.00  0.00    -0.046 NA
ATOM     16  N   UNL     1      -1.267  -0.202  27.917  0.00  0.00    -0.022 NA
ATOM     17  N   UNL     1      -1.522  -1.496  27.820  0.00  0.00    -0.101 NA
ATOM     18  H   UNL     1      -3.351  -0.655  30.171  0.00  0.00    +0.193 HD
ENDBRANCH  12  13
ENDBRANCH   6  12
TORSDOF 3
REMARK  Name = =
REMARK  7 active torsions:
REMARK  status: ('A' for Active; 'I' for Inactive)
REMARK    1  A    between atoms: C_1  and  S_11
REMARK    2  A    between atoms: C_6  and  S_20
REMARK    3  A    between atoms: P_10  and  N_12
REMARK    4  A    between atoms: P_10  and  S_17
REMARK    5  A    between atoms: P_10  and  O_18
REMARK    6  A    between atoms: P_10  and  O_19
REMARK    7  A    between atoms: S_20  and  C_21
REMARK                            x       y       z     vdW  Elec       q    Type
REMARK                         _______ _______ _______ _____ _____    ______ ____
ROOT
ATOM      1  P   UNL     1      -1.486  -5.959  29.825  0.00  0.00    +0.139 P 
ATOM      2  H   UNL     1      -0.601  -5.936  28.766  0.00  0.00    +0.130 HD
ENDROOT
BRANCH   1   3
ATOM      3  N   UNL     1      -1.064  -7.558  30.345  0.00  0.00    -0.225 NA
ATOM      4  C   UNL     1      -2.133  -8.447  30.538  0.00  0.00    +0.079 C 
ATOM      5  C   UNL     1      -1.912  -9.644  29.613  0.00  0.00    +0.019 C 
ATOM      6  C   UNL     1      -0.460  -9.546  29.207  0.00  0.00    +0.019 C 
ATOM      7  C   UNL     1      -0.111  -8.100  29.440  0.00  0.00    +0.079 C 
ENDBRANCH   1   3
BRANCH   1   8
ATOM      8  S   UNL     1      -3.535  -6.258  29.475  0.00  0.00    -0.099 S 
ATOM      9  H   UNL     1      -4.204  -6.242  30.659  0.00  0.00    +0.111 HD
ENDBRANCH   1   8
BRANCH   1  10
ATOM     10  O   UNL     1      -0.329  -4.770  29.957  0.00  0.00    -0.345 OA
ATOM     11  H   UNL     1      -0.468  -4.273  30.778  0.00  0.00    +0.218 HD
ENDBRANCH   1  10
BRANCH   1  12
ATOM     12  O   UNL     1      -1.118  -6.360  28.303  0.00  0.00    -0.345 OA
ATOM     13  H   UNL     1      -1.852  -6.860  27.914  0.00  0.00    +0.218 HD
ENDBRANCH   1  12
TORSDOF 4
