REMARK  Name = =
REMARK  3 active torsions:
REMARK  status: ('A' for Active; 'I' for Inactive)
REMARK    1  A    between atoms: C_1  and  O_7
REMARK    2  A    between atoms: O_7  and  C_8
REMARK    3  A    between atoms: C_8  and  O_10
REMARK                            x       y       z     vdW  Elec       q    Type
REMARK                         _______ _______ _______ _____ _____    ______ ____
ROOT
ATOM      1  C   UNL     1     -13.576 -43.158  27.310  0.00  0.00    +0.274 C 
ATOM      2  C   UNL     1     -13.524 -44.314  28.060  0.00  0.00    +0.160 C 
ATOM      3  N   UNL     1     -12.656 -44.448  29.087  0.00  0.00    -0.216 NA
ATOM      4  C   UNL     1     -11.836 -43.413  29.361  0.00  0.00    +0.222 C 
ATOM      5  N   UNL     1     -11.872 -42.289  28.647  0.00  0.00    -0.122 NA
ATOM      6  N   UNL     1     -12.732 -42.165  27.635  0.00  0.00    -0.106 NA
ENDROOT
BRANCH   1   7
ATOM      7  O   UNL     1     -14.472 -43.041  26.261  0.00  0.00    -0.372 OA
BRANCH   7   8
ATOM      8  C   UNL     1     -15.658 -42.351  26.465  0.00  0.00    +0.515 C 
ATOM      9  O   UNL     1     -15.868 -41.880  27.611  0.00  0.00    -0.203 OA
BRANCH   8  10
ATOM     10  O   UNL     1     -16.614 -42.148  25.501  0.00  0.00    -0.449 OA
ATOM     11  H   UNL     1     -17.394 -41.672  25.708  0.00  0.00    +0.299 HD
ENDBRANCH   8  10
ENDBRANCH   7   8
ENDBRANCH   1   7
TORSDOF 3
