MODEL 1
REMARK VINA RESULT:   -10.679      0.000      0.000
REMARK INTER + INTRA:         -15.636
REMARK INTER:                 -12.865
REMARK INTRA:                  -2.771
REMARK UNBOUND:                -2.771
REMARK  Name = =
REMARK  4 active torsions:
REMARK  status: ('A' for Active; 'I' for Inactive)
REMARK    1  A    between atoms: N_1  and  C_41
REMARK    2  A    between atoms: C_2  and  C_6
REMARK    3  A    between atoms: C_2  and  C_24
REMARK    4  A    between atoms: C_39  and  S_40
REMARK                            x       y       z     vdW  Elec       q    Type
REMARK                         _______ _______ _______ _____ _____    ______ ____
ROOT
ATOM      1  N   UNL     1       4.368  -6.995  25.973  0.00  0.00    -0.310 N 
ATOM      2  C   UNL     1       4.624  -8.422  25.999  0.00  0.00    +0.065 C 
ATOM      3  C   UNL     1       4.121  -8.716  24.579  0.00  0.00    +0.021 C 
ATOM      4  C   UNL     1       4.813  -7.680  23.717  0.00  0.00    +0.023 C 
ATOM      5  C   UNL     1       4.975  -6.544  24.662  0.00  0.00    +0.091 C 
ENDROOT
BRANCH   2   6
ATOM      6  C   UNL     1       3.931  -9.254  26.989  0.00  0.00    +0.039 C 
ATOM      7  C   UNL     1       3.931 -10.745  26.705  0.00  0.00    +0.006 C 
ATOM      8  C   UNL     1       2.559 -11.397  26.816  0.00  0.00    +0.005 C 
ATOM      9  C   UNL     1       1.542 -10.484  26.129  0.00  0.00    +0.026 C 
ATOM     10  C   UNL     1       1.451  -9.363  27.131  0.00  0.00    -0.026 C 
ATOM     11  C   UNL     1       2.655  -8.836  27.595  0.00  0.00    -0.025 C 
ATOM     12  C   UNL     1       2.529  -7.928  28.628  0.00  0.00    -0.009 C 
ATOM     13  C   UNL     1       1.349  -7.544  29.173  0.00  0.00    -0.022 C 
ATOM     14  C   UNL     1       0.170  -8.061  28.706  0.00  0.00    -0.022 C 
ATOM     15  C   UNL     1       0.241  -8.992  27.662  0.00  0.00    -0.009 C 
ATOM     16  C   UNL     1      -1.121  -7.628  29.313  0.00  0.00    +0.052 C 
ATOM     17  C   UNL     1      -0.860  -7.566  30.773  0.00  0.00    -0.021 C 
ATOM     18  C   UNL     1       0.328  -7.059  31.249  0.00  0.00    -0.021 C 
ATOM     19  C   UNL     1       0.576  -7.002  32.601  0.00  0.00    -0.004 C 
ATOM     20  C   UNL     1      -0.362  -7.455  33.531  0.00  0.00    -0.000 C 
ATOM     21  C   UNL     1      -1.547  -7.961  33.053  0.00  0.00    -0.000 C 
ATOM     22  C   UNL     1      -1.794  -8.016  31.671  0.00  0.00    -0.004 C 
ATOM     23  C   UNL     1       1.356  -6.569  30.295  0.00  0.00    +0.052 C 
ENDBRANCH   2   6
BRANCH   2  24
ATOM     24  C   UNL     1       6.157  -8.606  25.981  0.00  0.00    +0.042 C 
ATOM     25  C   UNL     1       6.713  -9.951  25.920  0.00  0.00    -0.022 C 
ATOM     26  C   UNL     1       7.224 -10.613  27.041  0.00  0.00    -0.023 C 
ATOM     27  C   UNL     1       7.778 -11.873  26.960  0.00  0.00    +0.036 C 
ATOM     28  C   UNL     1       7.857 -12.557  25.768  0.00  0.00    +0.176 C 
ATOM     29  C   UNL     1       7.364 -11.940  24.633  0.00  0.00    +0.176 C 
ATOM     30  C   UNL     1       6.824 -10.698  24.741  0.00  0.00    +0.036 C 
ATOM     31  O   UNL     1       7.546 -12.802  23.559  0.00  0.00    -0.435 OA
ATOM     32  C   UNL     1       7.895 -14.071  24.069  0.00  0.00    +0.429 C 
ATOM     33  O   UNL     1       8.347 -13.808  25.394  0.00  0.00    -0.435 OA
ATOM     34  C   UNL     1       7.237  -9.956  28.373  0.00  0.00    +0.030 C 
ATOM     35  C   UNL     1       7.438  -8.516  28.183  0.00  0.00    +0.045 C 
ATOM     36  C   UNL     1       6.778  -7.797  27.106  0.00  0.00    +0.039 C 
ATOM     37  C   UNL     1       7.843  -6.832  26.633  0.00  0.00    +0.144 C 
ATOM     38  O   UNL     1       8.801  -6.807  27.654  0.00  0.00    -0.346 OA
ATOM     39  C   UNL     1       8.884  -8.091  28.135  0.00  0.00    +0.159 C 
BRANCH  39  40
ATOM     40  S   UNL     1       9.492  -8.050  29.841  0.00  0.00    -0.140 S 
ATOM     41  H   UNL     1       8.602  -8.678  30.655  0.00  0.00    +0.105 HD
ENDBRANCH  39  40
ENDBRANCH   2  24
BRANCH   1  42
ATOM     42  C   UNL     1       3.763  -5.969  26.696  0.00  0.00    +0.049 C 
ATOM     43  C   UNL     1       2.526  -5.507  26.264  0.00  0.00    +0.034 C 
ATOM     44  C   UNL     1       1.909  -4.469  26.906  0.00  0.00    +0.083 C 
ATOM     45  N   UNL     1       0.705  -3.982  26.526  0.00  0.00    -0.244 NA
ATOM     46  C   UNL     1       0.107  -2.958  27.166  0.00  0.00    +0.099 C 
ATOM     47  C   UNL     1       0.702  -2.344  28.260  0.00  0.00    +0.021 C 
ATOM     48  C   UNL     1       1.915  -2.811  28.668  0.00  0.00    +0.003 C 
ATOM     49  C   UNL     1       2.503  -3.863  27.992  0.00  0.00    +0.018 C 
ATOM     50  C   UNL     1       3.739  -4.335  28.412  0.00  0.00    +0.003 C 
ATOM     51  C   UNL     1       4.358  -5.380  27.766  0.00  0.00    +0.015 C 
ENDBRANCH   1  42
TORSDOF 4
ENDMDL
