MODEL 1
REMARK VINA RESULT:    -9.102      0.000      0.000
REMARK INTER + INTRA:         -15.669
REMARK INTER:                 -14.157
REMARK INTRA:                  -1.513
REMARK UNBOUND:                -1.513
REMARK  Name = =
REMARK  11 active torsions:
REMARK  status: ('A' for Active; 'I' for Inactive)
REMARK    1  A    between atoms: C_5  and  O_27
REMARK    2  A    between atoms: C_10  and  C_24
REMARK    3  A    between atoms: C_15  and  O_28
REMARK    4  A    between atoms: C_17  and  N_19
REMARK    5  A    between atoms: C_20  and  C_22
REMARK    6  A    between atoms: C_24  and  O_26
REMARK    7  A    between atoms: O_28  and  O_29
REMARK    8  A    between atoms: O_29  and  N_30
REMARK    9  A    between atoms: N_30  and  O_34
REMARK   10  A    between atoms: O_34  and  C_35
REMARK   11  A    between atoms: C_35  and  O_37
REMARK                            x       y       z     vdW  Elec       q    Type
REMARK                         _______ _______ _______ _____ _____    ______ ____
ROOT
ATOM      1  C   UNL     1       0.336  -7.768  29.781  0.00  0.00    +0.171 C 
ATOM      2  C   UNL     1       1.044  -7.410  28.754  0.00  0.00    +0.170 C 
ATOM      3  C   UNL     1       2.100  -6.380  28.724  0.00  0.00    +0.005 C 
ATOM      4  C   UNL     1       2.179  -5.387  29.602  0.00  0.00    +0.020 C 
ATOM      5  C   UNL     1       1.295  -5.157  30.774  0.00  0.00    +0.200 C 
ATOM      6  N   UNL     1       1.202  -6.385  31.583  0.00  0.00    -0.245 N 
ATOM      7  C   UNL     1       0.063  -7.090  31.095  0.00  0.00    +0.116 C 
ATOM      8  C   UNL     1      -0.495  -8.032  32.047  0.00  0.00    -0.005 C 
ATOM      9  C   UNL     1      -1.720  -7.938  32.537  0.00  0.00    +0.003 C 
ATOM     10  C   UNL     1      -2.651  -6.872  32.206  0.00  0.00    +0.071 C 
ATOM     11  C   UNL     1      -2.193  -5.928  31.385  0.00  0.00    -0.015 C 
ATOM     12  C   UNL     1      -0.854  -5.930  30.873  0.00  0.00    +0.080 C 
ATOM     13  C   UNL     1       2.066  -6.763  32.619  0.00  0.00    +0.305 C 
ATOM     14  O   UNL     1       3.031  -6.032  32.933  0.00  0.00    -0.265 OA
ATOM     15  C   UNL     1      -0.089  -5.013  30.246  0.00  0.00    +0.206 C 
ATOM     16  O   UNL     1       0.652  -8.167  27.624  0.00  0.00    -0.310 OA
ATOM     17  C   UNL     1      -0.342  -9.084  28.050  0.00  0.00    +0.326 C 
ATOM     18  O   UNL     1      -0.211  -9.027  29.467  0.00  0.00    -0.312 OA
ENDROOT
BRANCH  17  19
ATOM     19  N   UNL     1      -0.124 -10.415  27.526  0.00  0.00    -0.255 N 
ATOM     20  C   UNL     1      -0.054 -10.649  26.126  0.00  0.00    +0.249 C 
ATOM     21  O   UNL     1      -0.194  -9.641  25.388  0.00  0.00    -0.270 OA
ATOM     22  H   UNL     1      -0.022 -11.170  28.149  0.00  0.00    +0.154 HD
BRANCH  20  23
ATOM     23  C   UNL     1       0.166 -11.975  25.554  0.00  0.00    +0.058 C 
ATOM     24  C   UNL     1       0.035 -12.235  24.276  0.00  0.00    +0.005 C 
ENDBRANCH  20  23
ENDBRANCH  17  19
BRANCH  10  25
ATOM     25  C   UNL     1      -3.995  -6.841  32.738  0.00  0.00    +0.338 C 
ATOM     26  O   UNL     1      -4.813  -7.713  32.355  0.00  0.00    -0.245 OA
BRANCH  25  27
ATOM     27  O   UNL     1      -4.423  -5.895  33.646  0.00  0.00    -0.477 OA
ATOM     28  H   UNL     1      -5.337  -5.712  33.737  0.00  0.00    +0.295 HD
ENDBRANCH  25  27
ENDBRANCH  10  25
BRANCH   5  29
ATOM     29  O   UNL     1       1.737  -4.073  31.488  0.00  0.00    -0.365 OA
ATOM     30  H   UNL     1       1.626  -3.269  30.957  0.00  0.00    +0.212 HD
ENDBRANCH   5  29
BRANCH  15  31
ATOM     31  O   UNL     1      -0.529  -4.130  29.311  0.00  0.00    -0.194 OA
BRANCH  31  32
ATOM     32  O   UNL     1      -1.777  -3.902  28.971  0.00  0.00    -0.077 OA
BRANCH  32  33
ATOM     33  N   UNL     1      -2.151  -2.700  29.451  0.00  0.00    +0.052 N 
ATOM     34  C   UNL     1      -1.945  -1.546  28.677  0.00  0.00    +0.361 C 
ATOM     35  O   UNL     1      -2.291  -0.422  29.102  0.00  0.00    -0.247 OA
ATOM     36  N   UNL     1      -1.344  -1.642  27.404  0.00  0.00    -0.309 N 
ATOM     37  H   UNL     1      -1.067  -2.520  27.055  0.00  0.00    +0.147 HD
ATOM     38  H   UNL     1      -1.202  -0.831  26.865  0.00  0.00    +0.147 HD
BRANCH  33  39
ATOM     39  O   UNL     1      -2.731  -2.610  30.709  0.00  0.00    -0.281 OA
BRANCH  39  40
ATOM     40  C   UNL     1      -3.958  -3.249  30.917  0.00  0.00    +0.533 C 
ATOM     41  O   UNL     1      -4.486  -3.231  32.040  0.00  0.00    -0.201 OA
BRANCH  40  42
ATOM     42  O   UNL     1      -4.621  -3.922  29.873  0.00  0.00    -0.448 OA
ATOM     43  H   UNL     1      -5.293  -3.487  29.387  0.00  0.00    +0.299 HD
ENDBRANCH  40  42
ENDBRANCH  39  40
ENDBRANCH  33  39
ENDBRANCH  32  33
ENDBRANCH  31  32
ENDBRANCH  15  31
TORSDOF 11
ENDMDL
