REMARK  Name = =
REMARK  11 active torsions:
REMARK  status: ('A' for Active; 'I' for Inactive)
REMARK    1  A    between atoms: C_5  and  O_27
REMARK    2  A    between atoms: C_10  and  C_24
REMARK    3  A    between atoms: C_15  and  O_28
REMARK    4  A    between atoms: C_17  and  N_19
REMARK    5  A    between atoms: C_20  and  C_22
REMARK    6  A    between atoms: C_24  and  O_26
REMARK    7  A    between atoms: O_28  and  O_29
REMARK    8  A    between atoms: O_29  and  N_30
REMARK    9  A    between atoms: N_30  and  O_34
REMARK   10  A    between atoms: O_34  and  C_35
REMARK   11  A    between atoms: C_35  and  O_37
REMARK                            x       y       z     vdW  Elec       q    Type
REMARK                         _______ _______ _______ _____ _____    ______ ____
ROOT
ATOM      1  C   UNL     1      -0.896  -4.274  29.466  0.00  0.00    +0.171 C 
ATOM      2  C   UNL     1       0.077  -3.428  29.316  0.00  0.00    +0.170 C 
ATOM      3  C   UNL     1       1.433  -3.720  28.813  0.00  0.00    +0.005 C 
ATOM      4  C   UNL     1       1.985  -4.926  28.854  0.00  0.00    +0.020 C 
ATOM      5  C   UNL     1       1.356  -6.182  29.340  0.00  0.00    +0.200 C 
ATOM      6  N   UNL     1       0.049  -6.375  28.687  0.00  0.00    -0.245 N 
ATOM      7  C   UNL     1      -0.913  -5.775  29.552  0.00  0.00    +0.116 C 
ATOM      8  C   UNL     1      -2.261  -6.280  29.368  0.00  0.00    -0.005 C 
ATOM      9  C   UNL     1      -2.940  -6.912  30.310  0.00  0.00    +0.003 C 
ATOM     10  C   UNL     1      -2.419  -7.203  31.635  0.00  0.00    +0.071 C 
ATOM     11  C   UNL     1      -1.161  -6.829  31.865  0.00  0.00    -0.015 C 
ATOM     12  C   UNL     1      -0.345  -6.203  30.867  0.00  0.00    +0.080 C 
ATOM     13  C   UNL     1      -0.181  -7.021  27.465  0.00  0.00    +0.305 C 
ATOM     14  O   UNL     1       0.775  -7.499  26.816  0.00  0.00    -0.265 OA
ATOM     15  C   UNL     1       0.976  -5.951  30.760  0.00  0.00    +0.206 C 
ATOM     16  O   UNL     1      -0.353  -2.140  29.717  0.00  0.00    -0.310 OA
ATOM     17  C   UNL     1      -1.718  -2.243  30.086  0.00  0.00    +0.326 C 
ATOM     18  O   UNL     1      -2.076  -3.512  29.548  0.00  0.00    -0.312 OA
ENDROOT
BRANCH  17  19
ATOM     19  N   UNL     1      -2.517  -1.165  29.544  0.00  0.00    -0.255 N 
ATOM     20  C   UNL     1      -3.673  -0.697  30.224  0.00  0.00    +0.249 C 
ATOM     21  O   UNL     1      -3.951  -1.272  31.306  0.00  0.00    -0.270 OA
ATOM     22  H   UNL     1      -2.255  -0.750  28.691  0.00  0.00    +0.154 HD
BRANCH  20  23
ATOM     23  C   UNL     1      -4.507   0.389  29.714  0.00  0.00    +0.058 C 
ATOM     24  C   UNL     1      -4.022   1.425  29.074  0.00  0.00    +0.005 C 
ENDBRANCH  20  23
ENDBRANCH  17  19
BRANCH  10  25
ATOM     25  C   UNL     1      -3.221  -7.860  32.643  0.00  0.00    +0.338 C 
ATOM     26  O   UNL     1      -2.725  -8.829  33.268  0.00  0.00    -0.245 OA
BRANCH  25  27
ATOM     27  O   UNL     1      -4.509  -7.473  32.949  0.00  0.00    -0.477 OA
ATOM     28  H   UNL     1      -4.902  -6.753  32.497  0.00  0.00    +0.295 HD
ENDBRANCH  25  27
ENDBRANCH  10  25
BRANCH   5  29
ATOM     29  O   UNL     1       2.212  -7.237  29.154  0.00  0.00    -0.365 OA
ATOM     30  H   UNL     1       3.052  -7.055  29.604  0.00  0.00    +0.212 HD
ENDBRANCH   5  29
BRANCH  15  31
ATOM     31  O   UNL     1       1.787  -5.562  31.779  0.00  0.00    -0.194 OA
BRANCH  31  32
ATOM     32  O   UNL     1       2.624  -6.320  32.450  0.00  0.00    -0.077 OA
BRANCH  32  33
ATOM     33  N   UNL     1       2.757  -5.830  33.698  0.00  0.00    +0.052 N 
ATOM     34  C   UNL     1       1.716  -5.996  34.626  0.00  0.00    +0.361 C 
ATOM     35  O   UNL     1       1.823  -5.553  35.791  0.00  0.00    -0.247 OA
ATOM     36  N   UNL     1       0.532  -6.667  34.254  0.00  0.00    -0.309 N 
ATOM     37  H   UNL     1       0.433  -7.021  33.341  0.00  0.00    +0.147 HD
ATOM     38  H   UNL     1      -0.195  -6.781  34.908  0.00  0.00    +0.147 HD
BRANCH  33  39
ATOM     39  O   UNL     1       3.919  -5.160  34.055  0.00  0.00    -0.281 OA
BRANCH  39  40
ATOM     40  C   UNL     1       3.821  -3.808  34.402  0.00  0.00    +0.533 C 
ATOM     41  O   UNL     1       2.716  -3.243  34.395  0.00  0.00    -0.201 OA
BRANCH  40  42
ATOM     42  O   UNL     1       4.957  -3.060  34.765  0.00  0.00    -0.448 OA
ATOM     43  H   UNL     1       4.869  -2.156  34.994  0.00  0.00    +0.299 HD
ENDBRANCH  40  42
ENDBRANCH  39  40
ENDBRANCH  33  39
ENDBRANCH  32  33
ENDBRANCH  31  32
ENDBRANCH  15  31
TORSDOF 11
