MODEL 1
REMARK VINA RESULT:    -7.303      0.000      0.000
REMARK INTER + INTRA:         -10.045
REMARK INTER:                  -9.652
REMARK INTRA:                  -0.393
REMARK UNBOUND:                -0.393
REMARK  Name = =
REMARK  6 active torsions:
REMARK  status: ('A' for Active; 'I' for Inactive)
REMARK    1  A    between atoms: C_1  and  C_16
REMARK    2  A    between atoms: C_1  and  O_33
REMARK    3  A    between atoms: C_16  and  C_27
REMARK    4  A    between atoms: C_27  and  C_29
REMARK    5  A    between atoms: N_31  and  O_32
REMARK    6  A    between atoms: O_33  and  C_34
REMARK                            x       y       z     vdW  Elec       q    Type
REMARK                         _______ _______ _______ _____ _____    ______ ____
ROOT
ATOM      1  C   UNL     1      61.478 165.475  37.444  0.00  0.00    +0.251 C 
ATOM      2  O   UNL     1      60.128 165.320  37.488  0.00  0.00    -0.321 OA
ATOM      3  C   UNL     1      59.531 164.139  37.422  0.00  0.00    +0.178 C 
ATOM      4  C   UNL     1      60.317 162.930  37.096  0.00  0.00    +0.175 C 
ATOM      5  O   UNL     1      59.597 161.806  37.502  0.00  0.00    -0.326 OA
ATOM      6  C   UNL     1      60.452 160.938  38.177  0.00  0.00    +0.264 C 
ATOM      7  O   UNL     1      59.829 159.716  38.417  0.00  0.00    -0.321 OA
ATOM      8  C   UNL     1      58.547 159.877  38.878  0.00  0.00    +0.209 C 
ATOM      9  C   UNL     1      58.548 160.883  39.964  0.00  0.00    +0.183 C 
ATOM     10  O   UNL     1      57.491 161.189  40.481  0.00  0.00    -0.293 OA
ATOM     11  C   UNL     1      59.781 161.544  40.460  0.00  0.00    +0.102 C 
ATOM     12  C   UNL     1      60.899 161.560  39.471  0.00  0.00    +0.179 C 
ATOM     13  O   UNL     1      61.332 162.856  39.226  0.00  0.00    -0.350 OA
ATOM     14  C   UNL     1      61.600 162.987  37.892  0.00  0.00    +0.151 C 
ATOM     15  C   UNL     1      62.303 164.253  37.489  0.00  0.00    +0.103 C 
ENDROOT
BRANCH   1  16
ATOM     16  C   UNL     1      61.785 166.374  36.227  0.00  0.00    +0.246 C 
ATOM     17  C   UNL     1      62.903 167.317  36.658  0.00  0.00    +0.232 C 
ATOM     18  O   UNL     1      63.280 168.077  35.552  0.00  0.00    -0.447 OA
ATOM     19  C   UNL     1      64.412 167.910  34.780  0.00  0.00    +0.317 C 
ATOM     20  O   UNL     1      64.392 168.313  33.589  0.00  0.00    -0.250 OA
ATOM     21  C   UNL     1      65.593 167.278  35.358  0.00  0.00    +0.113 C 
ATOM     22  C   UNL     1      65.575 165.799  35.386  0.00  0.00    +0.059 C 
ATOM     23  C   UNL     1      64.548 165.122  34.521  0.00  0.00    +0.209 C 
ATOM     24  O   UNL     1      63.314 165.679  34.434  0.00  0.00    -0.448 OA
ATOM     25  C   UNL     1      62.109 165.611  35.010  0.00  0.00    +0.333 C 
ATOM     26  O   UNL     1      61.155 164.906  34.574  0.00  0.00    -0.249 OA
BRANCH  16  27
ATOM     27  C   UNL     1      60.546 167.168  35.967  0.00  0.00    +0.247 C 
ATOM     28  O   UNL     1      59.905 167.673  36.939  0.00  0.00    -0.286 OA
BRANCH  27  29
ATOM     29  C   UNL     1      59.995 167.424  34.651  0.00  0.00    +0.303 C 
ATOM     30  O   UNL     1      58.836 167.057  34.363  0.00  0.00    -0.265 OA
ATOM     31  N   UNL     1      60.717 168.094  33.630  0.00  0.00    -0.191 N 
ATOM     32  H   UNL     1      61.634 168.400  33.819  0.00  0.00    +0.183 HD
BRANCH  31  33
ATOM     33  O   UNL     1      60.192 168.328  32.407  0.00  0.00    -0.295 OA
ATOM     34  H   UNL     1      60.053 167.484  31.949  0.00  0.00    +0.241 HD
ENDBRANCH  31  33
ENDBRANCH  27  29
ENDBRANCH  16  27
ENDBRANCH   1  16
BRANCH   1  35
ATOM     35  O   UNL     1      61.817 166.293  38.551  0.00  0.00    -0.456 OA
BRANCH  35  36
ATOM     36  C   UNL     1      61.693 166.047  39.867  0.00  0.00    +0.160 C 
ATOM     37  C   UNL     1      62.780 165.766  40.655  0.00  0.00    +0.136 C 
ATOM     38  N   UNL     1      62.643 165.515  41.994  0.00  0.00    -0.239 NA
ATOM     39  C   UNL     1      61.460 165.530  42.609  0.00  0.00    +0.099 C 
ATOM     40  C   UNL     1      60.340 165.807  41.860  0.00  0.00    +0.024 C 
ATOM     41  C   UNL     1      60.466 166.065  40.487  0.00  0.00    +0.040 C 
ENDBRANCH  35  36
ENDBRANCH   1  35
TORSDOF 6
ENDMDL
