REMARK  Name = =
REMARK  6 active torsions:
REMARK  status: ('A' for Active; 'I' for Inactive)
REMARK    1  A    between atoms: C_1  and  C_16
REMARK    2  A    between atoms: C_1  and  O_33
REMARK    3  A    between atoms: C_16  and  C_27
REMARK    4  A    between atoms: C_27  and  C_29
REMARK    5  A    between atoms: N_31  and  O_32
REMARK    6  A    between atoms: O_33  and  C_34
REMARK                            x       y       z     vdW  Elec       q    Type
REMARK                         _______ _______ _______ _____ _____    ______ ____
ROOT
ATOM      1  C   UNL     1      52.468 156.491  27.622  0.00  0.00    +0.251 C 
ATOM      2  O   UNL     1      53.518 155.763  28.088  0.00  0.00    -0.321 OA
ATOM      3  C   UNL     1      53.554 154.439  28.054  0.00  0.00    +0.178 C 
ATOM      4  C   UNL     1      52.345 153.676  27.678  0.00  0.00    +0.175 C 
ATOM      5  O   UNL     1      52.729 152.389  27.300  0.00  0.00    -0.326 OA
ATOM      6  C   UNL     1      52.071 152.045  26.121  0.00  0.00    +0.264 C 
ATOM      7  O   UNL     1      52.262 150.699  25.821  0.00  0.00    -0.321 OA
ATOM      8  C   UNL     1      53.570 150.319  25.985  0.00  0.00    +0.209 C 
ATOM      9  C   UNL     1      54.448 151.311  25.325  0.00  0.00    +0.183 C 
ATOM     10  O   UNL     1      55.653 151.165  25.391  0.00  0.00    -0.293 OA
ATOM     11  C   UNL     1      53.931 152.486  24.580  0.00  0.00    +0.102 C 
ATOM     12  C   UNL     1      52.559 152.908  24.990  0.00  0.00    +0.179 C 
ATOM     13  O   UNL     1      52.543 154.237  25.393  0.00  0.00    -0.350 OA
ATOM     14  C   UNL     1      51.724 154.358  26.481  0.00  0.00    +0.151 C 
ATOM     15  C   UNL     1      51.405 155.765  26.903  0.00  0.00    +0.103 C 
ENDROOT
BRANCH   1  16
ATOM     16  C   UNL     1      51.942 157.327  28.809  0.00  0.00    +0.246 C 
ATOM     17  C   UNL     1      50.808 158.186  28.262  0.00  0.00    +0.232 C 
ATOM     18  O   UNL     1      50.238 158.881  29.328  0.00  0.00    -0.447 OA
ATOM     19  C   UNL     1      49.040 158.599  29.954  0.00  0.00    +0.317 C 
ATOM     20  O   UNL     1      48.883 158.968  31.145  0.00  0.00    -0.250 OA
ATOM     21  C   UNL     1      47.995 157.889  29.225  0.00  0.00    +0.113 C 
ATOM     22  C   UNL     1      48.142 156.418  29.172  0.00  0.00    +0.059 C 
ATOM     23  C   UNL     1      49.112 155.803  30.142  0.00  0.00    +0.209 C 
ATOM     24  O   UNL     1      50.275 156.457  30.389  0.00  0.00    -0.448 OA
ATOM     25  C   UNL     1      51.541 156.505  29.963  0.00  0.00    +0.333 C 
ATOM     26  O   UNL     1      52.493 155.869  30.499  0.00  0.00    -0.249 OA
BRANCH  16  27
ATOM     27  C   UNL     1      53.069 158.212  29.232  0.00  0.00    +0.247 C 
ATOM     28  O   UNL     1      54.265 157.884  28.962  0.00  0.00    -0.286 OA
BRANCH  27  29
ATOM     29  C   UNL     1      52.908 159.463  29.947  0.00  0.00    +0.303 C 
ATOM     30  O   UNL     1      51.781 159.832  30.340  0.00  0.00    -0.265 OA
ATOM     31  N   UNL     1      53.994 160.327  30.242  0.00  0.00    -0.191 N 
ATOM     32  H   UNL     1      54.898 160.070  29.950  0.00  0.00    +0.183 HD
BRANCH  31  33
ATOM     33  O   UNL     1      53.831 161.490  30.910  0.00  0.00    -0.295 OA
ATOM     34  H   UNL     1      52.894 161.607  31.131  0.00  0.00    +0.241 HD
ENDBRANCH  31  33
ENDBRANCH  27  29
ENDBRANCH  16  27
ENDBRANCH   1  16
BRANCH   1  35
ATOM     35  O   UNL     1      53.020 157.466  26.753  0.00  0.00    -0.456 OA
BRANCH  35  36
ATOM     36  C   UNL     1      53.810 157.304  25.677  0.00  0.00    +0.160 C 
ATOM     37  C   UNL     1      53.292 157.167  24.414  0.00  0.00    +0.136 C 
ATOM     38  N   UNL     1      54.105 157.001  23.325  0.00  0.00    -0.239 NA
ATOM     39  C   UNL     1      55.435 156.965  23.422  0.00  0.00    +0.099 C 
ATOM     40  C   UNL     1      56.001 157.099  24.668  0.00  0.00    +0.024 C 
ATOM     41  C   UNL     1      55.180 157.269  25.792  0.00  0.00    +0.040 C 
ENDBRANCH  35  36
ENDBRANCH   1  35
TORSDOF 6
