MODEL 1
REMARK VINA RESULT:   -16.407      0.000      0.000
REMARK INTER + INTRA:         -18.709
REMARK INTER:                 -19.763
REMARK INTRA:                   1.054
REMARK UNBOUND:                 1.054
REMARK  Name = =
REMARK  4 active torsions:
REMARK  status: ('A' for Active; 'I' for Inactive)
REMARK    1  A    between atoms: C_7  and  C_15
REMARK    2  A    between atoms: C_11  and  C_32
REMARK    3  A    between atoms: C_36  and  C_40
REMARK    4  A    between atoms: C_40  and  O_42
REMARK                            x       y       z     vdW  Elec       q    Type
REMARK                         _______ _______ _______ _____ _____    ______ ____
ROOT
ATOM      1  N   UNL     1     -16.742 -42.539  26.715  0.00  0.00    -0.246 NA
ATOM      2  C   UNL     1     -18.018 -42.122  26.660  0.00  0.00    +0.081 C 
ATOM      3  C   UNL     1     -18.503 -41.416  25.570  0.00  0.00    +0.018 C 
ATOM      4  C   UNL     1     -17.633 -41.156  24.535  0.00  0.00    +0.003 C 
ATOM      5  C   UNL     1     -16.319 -41.592  24.599  0.00  0.00    +0.017 C 
ATOM      6  C   UNL     1     -15.898 -42.294  25.729  0.00  0.00    +0.077 C 
ATOM      7  C   UNL     1     -14.631 -42.757  25.821  0.00  0.00    -0.005 C 
ATOM      8  C   UNL     1     -13.775 -42.493  24.732  0.00  0.00    -0.003 C 
ATOM      9  C   UNL     1     -14.200 -41.798  23.626  0.00  0.00    -0.000 C 
ATOM     10  C   UNL     1     -15.495 -41.330  23.540  0.00  0.00    +0.001 C 
ATOM     11  C   UNL     1     -19.807 -40.959  25.476  0.00  0.00    +0.004 C 
ATOM     12  C   UNL     1     -20.651 -41.230  26.530  0.00  0.00    +0.000 C 
ATOM     13  C   UNL     1     -20.230 -41.938  27.659  0.00  0.00    +0.002 C 
ATOM     14  C   UNL     1     -18.900 -42.370  27.691  0.00  0.00    +0.019 C 
ENDROOT
BRANCH   7  15
ATOM     15  C   UNL     1     -13.999 -43.439  26.947  0.00  0.00    +0.028 C 
ATOM     16  C   UNL     1     -13.160 -44.613  26.469  0.00  0.00    +0.005 C 
ATOM     17  C   UNL     1     -12.933 -45.658  27.530  0.00  0.00    +0.004 C 
ATOM     18  C   UNL     1     -12.778 -45.050  28.836  0.00  0.00    +0.018 C 
ATOM     19  C   UNL     1     -11.451 -44.962  29.482  0.00  0.00    +0.004 C 
ATOM     20  C   UNL     1     -11.711 -44.949  30.994  0.00  0.00    +0.005 C 
ATOM     21  C   UNL     1     -10.374 -44.959  31.639  0.00  0.00    +0.000 C 
ATOM     22  C   UNL     1      -9.448 -43.865  31.249  0.00  0.00    +0.000 C 
ATOM     23  C   UNL     1      -8.045 -44.433  31.355  0.00  0.00    +0.000 C 
ATOM     24  C   UNL     1      -8.206 -45.935  31.402  0.00  0.00    +0.000 C 
ATOM     25  C   UNL     1      -9.648 -46.203  31.144  0.00  0.00    +0.000 C 
ATOM     26  C   UNL     1      -9.599 -43.312  29.870  0.00  0.00    +0.000 C 
ATOM     27  C   UNL     1     -10.883 -43.576  29.176  0.00  0.00    +0.000 C 
ATOM     28  C   UNL     1     -12.654 -43.898  31.440  0.00  0.00    +0.025 C 
ATOM     29  C   UNL     1     -13.683 -43.517  30.434  0.00  0.00    -0.035 C 
ATOM     30  C   UNL     1     -13.747 -44.043  29.233  0.00  0.00    -0.048 C 
ATOM     31  C   UNL     1     -14.773 -43.674  28.179  0.00  0.00    +0.026 C 
ENDBRANCH   7  15
BRANCH  11  32
ATOM     32  C   UNL     1     -20.273 -40.256  24.288  0.00  0.00    +0.030 C 
ATOM     33  C   UNL     1     -21.494 -39.633  24.229  0.00  0.00    +0.167 C 
ATOM     34  C   UNL     1     -21.941 -38.995  23.079  0.00  0.00    +0.168 C 
ATOM     35  C   UNL     1     -21.115 -38.993  21.957  0.00  0.00    +0.038 C 
ATOM     36  C   UNL     1     -19.885 -39.610  21.985  0.00  0.00    +0.078 C 
ATOM     37  C   UNL     1     -19.482 -40.234  23.155  0.00  0.00    +0.009 C 
ATOM     38  F   UNL     1     -23.124 -38.379  23.013  0.00  0.00    -0.202 F 
ATOM     39  F   UNL     1     -22.309 -39.626  25.313  0.00  0.00    -0.202 F 
BRANCH  36  40
ATOM     40  C   UNL     1     -19.034 -39.617  20.786  0.00  0.00    +0.338 C 
ATOM     41  O   UNL     1     -19.567 -39.609  19.662  0.00  0.00    -0.245 OA
BRANCH  40  42
ATOM     42  O   UNL     1     -17.647 -39.631  20.871  0.00  0.00    -0.477 OA
ATOM     43  H   UNL     1     -17.178 -40.432  20.742  0.00  0.00    +0.295 HD
ENDBRANCH  40  42
ENDBRANCH  36  40
ENDBRANCH  11  32
TORSDOF 4
ENDMDL
