REMARK  Name = =
REMARK  9 active torsions:
REMARK  status: ('A' for Active; 'I' for Inactive)
REMARK    1  A    between atoms: C_1  and  S_30
REMARK    2  A    between atoms: C_15  and  N_24
REMARK    3  A    between atoms: C_22  and  N_26
REMARK    4  A    between atoms: N_26  and  C_27
REMARK    5  A    between atoms: C_27  and  N_29
REMARK    6  A    between atoms: S_30  and  S_31
REMARK    7  A    between atoms: S_31  and  S_32
REMARK    8  A    between atoms: S_31  and  C_33
REMARK    9  A    between atoms: C_33  and  O_34
REMARK                            x       y       z     vdW  Elec       q    Type
REMARK                         _______ _______ _______ _____ _____    ______ ____
ROOT
ATOM      1  C   UNL     1       0.360  -6.576  29.183  0.00  0.00    +0.140 C 
ATOM      2  C   UNL     1       0.847  -7.951  28.594  0.00  0.00    +0.060 C 
ATOM      3  C   UNL     1       1.630  -7.698  27.359  0.00  0.00    +0.043 C 
ATOM      4  C   UNL     1       1.653  -6.764  28.479  0.00  0.00    +0.150 C 
ATOM      5  O   UNL     1       2.805  -6.408  29.076  0.00  0.00    -0.462 OA
ATOM      6  C   UNL     1       3.427  -5.186  29.100  0.00  0.00    +0.295 C 
ATOM      7  N   UNL     1       3.219  -4.181  28.389  0.00  0.00    -0.138 NA
ATOM      8  N   UNL     1       2.335  -3.995  27.401  0.00  0.00    -0.207 N 
ATOM      9  C   UNL     1       2.818  -8.421  26.972  0.00  0.00    +0.008 C 
ATOM     10  C   UNL     1       3.393  -7.952  25.664  0.00  0.00    +0.024 C 
ATOM     11  C   UNL     1       4.374  -6.859  26.016  0.00  0.00    -0.027 C 
ATOM     12  C   UNL     1       5.269  -7.219  26.936  0.00  0.00    -0.033 C 
ATOM     13  C   UNL     1       5.188  -8.596  27.495  0.00  0.00    +0.025 C 
ATOM     14  C   UNL     1       3.760  -8.924  27.951  0.00  0.00    +0.005 C 
ATOM     15  C   UNL     1       4.345  -5.523  25.401  0.00  0.00    +0.123 C 
ATOM     16  C   UNL     1       2.976  -4.950  25.211  0.00  0.00    +0.050 C 
ATOM     17  C   UNL     1       2.723  -3.724  26.039  0.00  0.00    +0.096 C 
ATOM     18  C   UNL     1       1.544  -2.953  25.449  0.00  0.00    +0.026 C 
ATOM     19  C   UNL     1       0.470  -2.928  26.526  0.00  0.00    +0.054 C 
ATOM     20  C   UNL     1       0.917  -4.005  27.540  0.00  0.00    +0.210 C 
ATOM     21  O   UNL     1       0.279  -5.180  27.258  0.00  0.00    -0.309 OA
ATOM     22  C   UNL     1      -0.500  -5.730  28.237  0.00  0.00    +0.246 C 
ATOM     23  N   UNL     1      -1.347  -6.737  27.556  0.00  0.00    -0.083 NA
ENDROOT
BRANCH  15  24
ATOM     24  N   UNL     1       4.993  -5.625  24.118  0.00  0.00    -0.265 NA
ATOM     25  C   UNL     1       5.179  -4.648  23.344  0.00  0.00    +0.114 C 
ENDBRANCH  15  24
BRANCH  22  26
ATOM     26  N   UNL     1      -1.323  -4.844  28.986  0.00  0.00    -0.283 N 
ATOM     27  H   UNL     1      -2.290  -4.915  28.818  0.00  0.00    +0.152 HD
BRANCH  26  28
ATOM     28  C   UNL     1      -0.940  -3.885  29.930  0.00  0.00    +0.131 C 
ATOM     29  S   UNL     1       0.603  -3.521  30.290  0.00  0.00    -0.019 S 
BRANCH  28  30
ATOM     30  N   UNL     1      -1.940  -3.169  30.652  0.00  0.00    -0.341 N 
ATOM     31  H   UNL     1      -2.893  -3.345  30.479  0.00  0.00    +0.144 HD
ATOM     32  H   UNL     1      -1.677  -2.499  31.324  0.00  0.00    +0.144 HD
ENDBRANCH  28  30
ENDBRANCH  26  28
ENDBRANCH  22  26
BRANCH   1  33
ATOM     33  S   UNL     1       0.041  -6.642  30.850  0.00  0.00    -0.085 S 
BRANCH  33  34
ATOM     34  S   UNL     1      -1.056  -7.838  31.526  0.00  0.00    -0.120 S 
ATOM     35  H   UNL     1      -1.173  -9.157  31.214  0.00  0.00    +0.106 HD
BRANCH  34  36
ATOM     36  S   UNL     1      -0.496  -7.806  33.047  0.00  0.00    -0.120 S 
ATOM     37  H   UNL     1      -0.347  -6.515  33.448  0.00  0.00    +0.113 HD
ENDBRANCH  34  36
BRANCH  34  38
ATOM     38  C   UNL     1      -2.527  -7.188  31.026  0.00  0.00    +0.198 C 
BRANCH  38  39
ATOM     39  O   UNL     1      -2.981  -6.022  31.576  0.00  0.00    -0.340 OA
ATOM     40  C   UNL     1      -3.865  -6.161  32.592  0.00  0.00    +0.175 C 
ENDBRANCH  38  39
ENDBRANCH  34  38
ENDBRANCH  33  34
ENDBRANCH   1  33
TORSDOF 9
