REMARK  Name = =
REMARK  5 active torsions:
REMARK  status: ('A' for Active; 'I' for Inactive)
REMARK    1  A    between atoms: C_1  and  O_16
REMARK    2  A    between atoms: N_11  and  N_12
REMARK    3  A    between atoms: C_13  and  O_15
REMARK    4  A    between atoms: O_16  and  S_17
REMARK    5  A    between atoms: S_17  and  O_19
REMARK                            x       y       z     vdW  Elec       q    Type
REMARK                         _______ _______ _______ _____ _____    ______ ____
ROOT
ATOM      1  C   UNL     1      -0.680  -2.081  28.222  0.00  0.00    +0.276 C 
ATOM      2  N   UNL     1      -0.123  -3.331  28.180  0.00  0.00    -0.192 NA
ATOM      3  C   UNL     1      -0.643  -4.342  28.883  0.00  0.00    +0.147 C 
ATOM      4  C   UNL     1      -1.751  -4.183  29.671  0.00  0.00    +0.037 C 
ATOM      5  C   UNL     1      -2.365  -2.921  29.750  0.00  0.00    +0.025 C 
ATOM      6  C   UNL     1      -1.797  -1.902  29.012  0.00  0.00    +0.137 C 
ATOM      7  N   UNL     1      -2.369  -0.684  29.089  0.00  0.00    -0.239 NA
ATOM      8  C   UNL     1      -3.442  -0.417  29.836  0.00  0.00    +0.099 C 
ATOM      9  C   UNL     1      -3.997  -1.433  30.564  0.00  0.00    +0.021 C 
ATOM     10  C   UNL     1      -3.456  -2.705  30.525  0.00  0.00    +0.003 C 
ATOM     11  N   UNL     1      -0.035  -5.645  28.816  0.00  0.00    -0.245 N 
ATOM     12  H   UNL     1      -0.551  -6.402  28.454  0.00  0.00    +0.172 HD
ENDROOT
BRANCH  11  13
ATOM     13  N   UNL     1       1.276  -5.854  29.256  0.00  0.00    -0.201 N 
ATOM     14  C   UNL     1       1.771  -5.369  30.443  0.00  0.00    +0.414 C 
ATOM     15  O   UNL     1       0.958  -4.670  31.202  0.00  0.00    -0.225 OA
ATOM     16  H   UNL     1       1.879  -6.379  28.682  0.00  0.00    +0.176 HD
BRANCH  14  17
ATOM     17  O   UNL     1       3.040  -5.505  30.979  0.00  0.00    -0.465 OA
ATOM     18  H   UNL     1       3.696  -5.987  30.514  0.00  0.00    +0.297 HD
ENDBRANCH  14  17
ENDBRANCH  11  13
BRANCH   1  19
ATOM     19  O   UNL     1      -0.167  -1.034  27.517  0.00  0.00    -0.315 OA
BRANCH  19  20
ATOM     20  S   UNL     1       1.094  -1.139  26.377  0.00  0.00    +0.192 S 
ATOM     21  O   UNL     1       0.884  -2.148  25.293  0.00  0.00    -0.125 OA
BRANCH  20  22
ATOM     22  O   UNL     1       1.637   0.365  25.873  0.00  0.00    -0.236 OA
ATOM     23  H   UNL     1       2.352   0.251  25.227  0.00  0.00    +0.246 HD
ENDBRANCH  20  22
ENDBRANCH  19  20
ENDBRANCH   1  19
TORSDOF 5
