REMARK  Name = =
REMARK  10 active torsions:
REMARK  status: ('A' for Active; 'I' for Inactive)
REMARK    1  A    between atoms: C_1  and  N_29
REMARK    2  A    between atoms: C_2  and  C_23
REMARK    3  A    between atoms: C_3  and  N_15
REMARK    4  A    between atoms: C_13  and  N_19
REMARK    5  A    between atoms: C_26  and  O_28
REMARK    6  A    between atoms: N_29  and  P_30
REMARK    7  A    between atoms: N_29  and  N_35
REMARK    8  A    between atoms: P_30  and  N_32
REMARK    9  A    between atoms: P_30  and  O_33
REMARK   10  A    between atoms: P_30  and  O_34
REMARK                            x       y       z     vdW  Elec       q    Type
REMARK                         _______ _______ _______ _____ _____    ______ ____
ROOT
ATOM      1  C   UNL     1      -1.271  -5.757  29.681  0.00  0.00    +0.075 A 
ATOM      2  C   UNL     1      -0.825  -4.890  28.738  0.00  0.00    +0.084 A 
ATOM      3  C   UNL     1      -1.295  -3.579  28.710  0.00  0.00    +0.074 A 
ATOM      4  C   UNL     1      -2.216  -3.140  29.628  0.00  0.00    +0.099 A 
ATOM      5  N   UNL     1      -2.671  -1.797  29.423  0.00  0.00    -0.127 NA
ATOM      6  C   UNL     1      -2.689  -3.972  30.590  0.00  0.00    +0.006 A 
ATOM      7  C   UNL     1      -2.218  -5.264  30.606  0.00  0.00    +0.013 A 
ATOM      8  C   UNL     1      -2.873  -5.962  31.706  0.00  0.00    -0.003 C 
ATOM      9  C   UNL     1      -3.837  -5.031  32.282  0.00  0.00    -0.013 C 
ATOM     10  C   UNL     1      -4.753  -5.223  33.275  0.00  0.00    -0.004 C 
ATOM     11  C   UNL     1      -5.557  -4.175  33.650  0.00  0.00    +0.001 C 
ATOM     12  C   UNL     1      -5.442  -2.942  33.035  0.00  0.00    +0.011 C 
ATOM     13  C   UNL     1      -4.502  -2.735  32.017  0.00  0.00    +0.037 C 
ATOM     14  C   UNL     1      -3.709  -3.794  31.648  0.00  0.00    +0.082 C 
ENDROOT
BRANCH   3  15
ATOM     15  N   UNL     1      -0.827  -2.663  27.741  0.00  0.00    -0.267 N 
ATOM     16  C   UNL     1       0.269  -1.754  27.996  0.00  0.00    +0.301 C 
ATOM     17  O   UNL     1       0.798  -1.803  29.113  0.00  0.00    -0.253 OA
ATOM     18  N   UNL     1       0.681  -0.855  26.956  0.00  0.00    -0.313 N 
ATOM     19  H   UNL     1      -1.264  -2.643  26.859  0.00  0.00    +0.156 HD
ATOM     20  H   UNL     1       0.220  -0.864  26.086  0.00  0.00    +0.146 HD
ATOM     21  H   UNL     1       1.425  -0.230  27.112  0.00  0.00    +0.146 HD
ENDBRANCH   3  15
BRANCH  13  22
ATOM     22  N   UNL     1      -4.292  -1.403  31.591  0.00  0.00    -0.272 N 
ATOM     23  C   UNL     1      -5.356  -0.468  31.398  0.00  0.00    +0.301 C 
ATOM     24  O   UNL     1      -6.542  -0.768  31.583  0.00  0.00    -0.253 OA
ATOM     25  N   UNL     1      -5.076   0.884  30.974  0.00  0.00    -0.313 N 
ATOM     26  H   UNL     1      -3.369  -1.106  31.419  0.00  0.00    +0.156 HD
ATOM     27  H   UNL     1      -5.814   1.522  30.843  0.00  0.00    +0.146 HD
ATOM     28  H   UNL     1      -4.147   1.168  30.816  0.00  0.00    +0.146 HD
ENDBRANCH  13  22
BRANCH   2  29
ATOM     29  C   UNL     1       0.159  -5.197  27.724  0.00  0.00    +0.257 C 
ATOM     30  O   UNL     1       0.529  -4.265  26.893  0.00  0.00    -0.270 OA
ATOM     31  N   UNL     1       0.778  -6.434  27.521  0.00  0.00    -0.218 N 
ATOM     32  C   UNL     1       1.783  -6.559  26.477  0.00  0.00    +0.404 C 
ATOM     33  O   UNL     1       2.105  -5.599  25.761  0.00  0.00    -0.226 OA
ATOM     34  H   UNL     1       0.537  -7.210  28.077  0.00  0.00    +0.161 HD
BRANCH  32  35
ATOM     35  O   UNL     1       2.387  -7.827  26.304  0.00  0.00    -0.466 OA
ATOM     36  H   UNL     1       2.135  -8.545  26.851  0.00  0.00    +0.297 HD
ENDBRANCH  32  35
ENDBRANCH   2  29
BRANCH   1  37
ATOM     37  N   UNL     1      -0.858  -7.092  29.853  0.00  0.00    -0.195 N 
BRANCH  37  38
ATOM     38  N   UNL     1       0.444  -7.263  30.401  0.00  0.00    -0.246 NA
ATOM     39  H   UNL     1       0.883  -6.351  30.525  0.00  0.00    +0.141 HD
ATOM     40  H   UNL     1       1.008  -7.829  29.767  0.00  0.00    +0.141 HD
ENDBRANCH  37  38
BRANCH  37  41
ATOM     41  P   UNL     1      -1.685  -8.546  29.603  0.00  0.00    +0.273 P 
BRANCH  41  42
ATOM     42  N   UNL     1      -0.663  -9.793  29.043  0.00  0.00    -0.255 NA
ATOM     43  H   UNL     1       0.295  -9.448  28.987  0.00  0.00    +0.128 HD
ATOM     44  H   UNL     1      -0.970 -10.095  28.119  0.00  0.00    +0.128 HD
ENDBRANCH  41  42
BRANCH  41  45
ATOM     45  O   UNL     1      -1.958  -7.802  28.108  0.00  0.00    -0.329 OA
ATOM     46  H   UNL     1      -1.252  -7.160  27.932  0.00  0.00    +0.219 HD
ENDBRANCH  41  45
BRANCH  41  47
ATOM     47  O   UNL     1      -3.011  -9.498  29.534  0.00  0.00    -0.329 OA
ATOM     48  H   UNL     1      -3.060 -10.043  30.335  0.00  0.00    +0.219 HD
ENDBRANCH  41  47
ENDBRANCH  37  41
ENDBRANCH   1  37
TORSDOF 10
REMARK  Name = =
REMARK  10 active torsions:
REMARK  status: ('A' for Active; 'I' for Inactive)
REMARK    1  A    between atoms: C_1  and  N_29
REMARK    2  A    between atoms: C_2  and  C_23
REMARK    3  A    between atoms: C_3  and  N_15
REMARK    4  A    between atoms: C_13  and  N_19
REMARK    5  A    between atoms: C_26  and  O_28
REMARK    6  A    between atoms: N_29  and  P_30
REMARK    7  A    between atoms: N_29  and  N_35
REMARK    8  A    between atoms: P_30  and  N_32
REMARK    9  A    between atoms: P_30  and  O_33
REMARK   10  A    between atoms: P_30  and  O_34
REMARK                            x       y       z     vdW  Elec       q    Type
REMARK                         _______ _______ _______ _____ _____    ______ ____
ROOT
ATOM      1  O   HOH     1      -1.506  -8.647  31.097  0.00  0.00    -0.253 OA
ATOM      2  H   HOH     0      -0.536  -8.647  31.097  0.00  0.00    +0.253 HD
ENDROOT
TORSDOF 0
