REMARK  Name = =
REMARK  0 active torsions:
REMARK  status: ('A' for Active; 'I' for Inactive)
REMARK                            x       y       z     vdW  Elec       q    Type
REMARK                         _______ _______ _______ _____ _____    ______ ____
ROOT
ATOM      1  C   UNL     1      52.023 158.151  29.082  0.00  0.00    +0.000 C 
ATOM      2  C   UNL     1      51.228 157.014  29.220  0.00  0.00    +0.000 C 
ATOM      3  C   UNL     1      51.617 155.818  28.636  0.00  0.00    +0.000 C 
ATOM      4  C   UNL     1      52.805 155.775  27.914  0.00  0.00    +0.000 C 
ATOM      5  C   UNL     1      53.571 156.911  27.792  0.00  0.00    +0.000 C 
ATOM      6  C   UNL     1      53.201 158.103  28.365  0.00  0.00    +0.000 C 
ATOM      7  C   UNL     1      53.215 154.597  27.322  0.00  0.00    +0.000 C 
ATOM      8  C   UNL     1      52.446 153.471  27.448  0.00  0.00    +0.000 C 
ATOM      9  C   UNL     1      51.260 153.523  28.172  0.00  0.00    +0.000 C 
ATOM     10  C   UNL     1      50.833 154.689  28.770  0.00  0.00    +0.000 C 
ATOM     11  C   UNL     1      50.080 157.117  29.936  0.00  0.00    +0.000 C 
ATOM     12  C   UNL     1      49.717 158.338  30.513  0.00  0.00    +0.000 C 
ATOM     13  C   UNL     1      50.487 159.464  30.386  0.00  0.00    +0.000 C 
ATOM     14  C   UNL     1      51.646 159.363  29.664  0.00  0.00    +0.000 C 
ATOM     15  C   UNL     1      50.115 160.646  30.957  0.00  0.00    +0.000 C 
ATOM     16  C   UNL     1      48.934 160.766  31.697  0.00  0.00    +0.000 C 
ATOM     17  C   UNL     1      48.167 159.639  31.822  0.00  0.00    +0.000 C 
ATOM     18  C   UNL     1      48.533 158.439  31.250  0.00  0.00    +0.000 C 
ENDROOT
TORSDOF 0
