REMARK  Name = =
REMARK  0 active torsions:
REMARK  status: ('A' for Active; 'I' for Inactive)
REMARK                            x       y       z     vdW  Elec       q    Type
REMARK                         _______ _______ _______ _____ _____    ______ ____
ROOT
ATOM      1  C   UNL     1      -4.426  -4.292  30.519  0.00  0.00    +0.027 C 
ATOM      2  C   UNL     1      -4.604  -3.051  31.330  0.00  0.00    +0.013 C 
ATOM      3  C   UNL     1      -3.913  -1.887  30.680  0.00  0.00    +0.069 C 
ATOM      4  C   UNL     1      -2.765  -2.285  29.848  0.00  0.00    +0.173 C 
ATOM      5  O   UNL     1      -2.266  -1.524  28.960  0.00  0.00    -0.291 OA
ATOM      6  C   UNL     1      -2.192  -3.611  30.067  0.00  0.00    +0.033 C 
ATOM      7  C   UNL     1      -2.985  -4.618  30.399  0.00  0.00    -0.023 C 
ENDROOT
TORSDOF 0
