REMARK  Name = =
REMARK  2 active torsions:
REMARK  status: ('A' for Active; 'I' for Inactive)
REMARK    1  A    between atoms: C_1  and  C_7
REMARK    2  A    between atoms: C_7  and  O_8
REMARK                            x       y       z     vdW  Elec       q    Type
REMARK                         _______ _______ _______ _____ _____    ______ ____
ROOT
ATOM      1  C   UNL     1      50.164 160.662  31.107  0.00  0.00    +0.007 C 
ATOM      2  C   UNL     1      49.669 159.551  30.444  0.00  0.00    -0.002 C 
ATOM      3  C   UNL     1      48.421 159.070  30.807  0.00  0.00    -0.000 C 
ATOM      4  C   UNL     1      47.698 159.703  31.817  0.00  0.00    -0.000 C 
ATOM      5  C   UNL     1      48.237 160.807  32.448  0.00  0.00    -0.000 C 
ATOM      6  C   UNL     1      49.468 161.306  32.110  0.00  0.00    -0.002 C 
ENDROOT
BRANCH   1   7
ATOM      7  C   UNL     1      51.508 161.204  30.739  0.00  0.00    +0.164 C 
BRANCH   7   8
ATOM      8  O   UNL     1      52.439 161.033  31.750  0.00  0.00    -0.377 OA
ATOM      9  H   UNL     1      53.293 161.398  31.469  0.00  0.00    +0.211 HD
ENDBRANCH   7   8
ENDBRANCH   1   7
TORSDOF 2
