REMARK  Name = =
REMARK  9 active torsions:
REMARK  status: ('A' for Active; 'I' for Inactive)
REMARK    1  A    between atoms: C_1  and  C_2
REMARK    2  A    between atoms: C_1  and  S_8
REMARK    3  A    between atoms: C_1  and  O_17
REMARK    4  A    between atoms: S_8  and  N_9
REMARK    5  A    between atoms: S_8  and  P_13
REMARK    6  A    between atoms: N_9  and  N_10
REMARK    7  A    between atoms: P_13  and  O_15
REMARK    8  A    between atoms: P_13  and  O_16
REMARK    9  A    between atoms: O_17  and  S_18
REMARK                            x       y       z     vdW  Elec       q    Type
REMARK                         _______ _______ _______ _____ _____    ______ ____
ROOT
ATOM      1  C   UNL     1      50.872 159.661  30.348  0.00  0.00    +0.199 C 
ENDROOT
BRANCH   1   2
ATOM      2  C   UNL     1      52.021 160.539  30.668  0.00  0.00    +0.016 C 
ATOM      3  C   UNL     1      52.934 160.291  31.678  0.00  0.00    -0.001 C 
ATOM      4  C   UNL     1      53.989 161.136  31.939  0.00  0.00    -0.000 C 
ATOM      5  C   UNL     1      54.188 162.277  31.199  0.00  0.00    -0.000 C 
ATOM      6  C   UNL     1      53.300 162.560  30.185  0.00  0.00    -0.000 C 
ATOM      7  C   UNL     1      52.250 161.701  29.941  0.00  0.00    -0.001 C 
ENDBRANCH   1   2
BRANCH   1   8
ATOM      8  S   UNL     1      49.451 159.959  31.192  0.00  0.00    -0.074 S 
ATOM      9  H   UNL     1      49.430 159.073  32.223  0.00  0.00    +0.110 HD
BRANCH   8  10
ATOM     10  N   UNL     1      49.442 161.154  32.111  0.00  0.00    -0.194 NA
ATOM     11  H   UNL     1      48.465 161.347  32.330  0.00  0.00    +0.157 HD
BRANCH  10  12
ATOM     12  N   UNL     1      50.116 161.117  33.313  0.00  0.00    -0.234 N 
ATOM     13  C   UNL     1      50.520 162.340  33.917  0.00  0.00    +0.314 C 
ATOM     14  O   UNL     1      50.244 163.413  33.326  0.00  0.00    -0.264 OA
ATOM     15  H   UNL     1      50.315 160.256  33.747  0.00  0.00    +0.170 HD
ENDBRANCH  10  12
ENDBRANCH   8  10
BRANCH   8  16
ATOM     16  P   UNL     1      47.962 159.390  30.383  0.00  0.00    +0.221 P 
ATOM     17  S   UNL     1      46.690 159.143  31.556  0.00  0.00    +0.002 S 
BRANCH  16  18
ATOM     18  O   UNL     1      47.403 160.500  29.269  0.00  0.00    -0.340 OA
ATOM     19  H   UNL     1      47.266 161.355  29.706  0.00  0.00    +0.218 HD
ENDBRANCH  16  18
BRANCH  16  20
ATOM     20  O   UNL     1      48.219 157.861  29.657  0.00  0.00    -0.340 OA
ATOM     21  H   UNL     1      48.543 157.236  30.325  0.00  0.00    +0.218 HD
ENDBRANCH  16  20
ENDBRANCH   8  16
ENDBRANCH   1   8
BRANCH   1  22
ATOM     22  O   UNL     1      51.284 158.329  30.569  0.00  0.00    -0.309 OA
BRANCH  22  23
ATOM     23  S   UNL     1      51.497 157.431  29.287  0.00  0.00    -0.107 S 
ATOM     24  C   UNL     1      51.677 155.688  29.400  0.00  0.00    +0.136 C 
ATOM     25  N   UNL     1      52.389 155.443  28.131  0.00  0.00    -0.270 N 
ATOM     26  C   UNL     1      53.231 156.478  27.765  0.00  0.00    +0.106 C 
ATOM     27  C   UNL     1      53.023 157.668  28.214  0.00  0.00    +0.084 C 
ATOM     28  C   UNL     1      51.682 154.195  28.106  0.00  0.00    +0.229 C 
ATOM     29  O   UNL     1      51.947 153.072  27.663  0.00  0.00    -0.275 OA
ATOM     30  C   UNL     1      50.581 154.871  28.816  0.00  0.00    +0.117 C 
ATOM     31  H   UNL     1      50.304 157.887  28.820  0.00  0.00    +0.112 HD
ENDBRANCH  22  23
ENDBRANCH   1  22
TORSDOF 9
