REMARK  Name = =
REMARK  0 active torsions:
REMARK  status: ('A' for Active; 'I' for Inactive)
REMARK                            x       y       z     vdW  Elec       q    Type
REMARK                         _______ _______ _______ _____ _____    ______ ____
ROOT
ATOM      1  C   UNL     1      -4.473  -3.218  32.266  0.00  0.00    -0.026 C 
ATOM      2  C   UNL     1      -3.530  -3.465  31.162  0.00  0.00    -0.005 C 
ATOM      3  C   UNL     1      -3.012  -4.837  31.064  0.00  0.00    -0.004 C 
ATOM      4  C   UNL     1      -3.170  -5.817  31.998  0.00  0.00    -0.022 C 
ATOM      5  C   UNL     1      -2.645  -7.076  31.814  0.00  0.00    -0.004 C 
ATOM      6  C   UNL     1      -1.931  -7.407  30.672  0.00  0.00    -0.000 C 
ATOM      7  C   UNL     1      -1.762  -6.429  29.720  0.00  0.00    -0.000 C 
ATOM      8  C   UNL     1      -2.296  -5.165  29.918  0.00  0.00    -0.000 C 
ATOM      9  C   UNL     1      -1.052  -6.735  28.567  0.00  0.00    -0.000 C 
ATOM     10  C   UNL     1      -0.510  -7.982  28.342  0.00  0.00    -0.000 C 
ATOM     11  C   UNL     1      -0.703  -8.931  29.323  0.00  0.00    -0.000 C 
ATOM     12  C   UNL     1      -1.399  -8.658  30.469  0.00  0.00    -0.000 C 
ATOM     13  C   UNL     1      -3.933  -5.481  33.230  0.00  0.00    +0.031 C 
ATOM     14  C   UNL     1      -4.967  -4.430  32.987  0.00  0.00    +0.031 C 
ENDROOT
TORSDOF 0
