REMARK  Name = =
REMARK  1 active torsions:
REMARK  status: ('A' for Active; 'I' for Inactive)
REMARK    1  A    between atoms: C_2  and  O_13
REMARK                            x       y       z     vdW  Elec       q    Type
REMARK                         _______ _______ _______ _____ _____    ______ ____
ROOT
ATOM      1  C   UNL     1      -1.905  -4.408  30.072  0.00  0.00    +0.082 C 
ATOM      2  C   UNL     1      -2.864  -3.689  30.625  0.00  0.00    +0.176 C 
ATOM      3  C   UNL     1      -3.717  -4.260  31.648  0.00  0.00    +0.229 C 
ATOM      4  O   UNL     1      -4.649  -3.611  32.207  0.00  0.00    -0.283 OA
ATOM      5  C   UNL     1      -3.526  -5.660  32.088  0.00  0.00    +0.045 C 
ATOM      6  C   UNL     1      -2.526  -6.409  31.509  0.00  0.00    +0.042 C 
ATOM      7  C   UNL     1      -2.328  -7.714  31.901  0.00  0.00    +0.003 C 
ATOM      8  C   UNL     1      -3.136  -8.266  32.874  0.00  0.00    +0.000 C 
ATOM      9  C   UNL     1      -4.136  -7.499  33.443  0.00  0.00    +0.000 C 
ATOM     10  C   UNL     1      -4.347  -6.195  33.064  0.00  0.00    +0.003 C 
ATOM     11  C   UNL     1      -1.696  -5.774  30.482  0.00  0.00    +0.199 C 
ATOM     12  O   UNL     1      -0.791  -6.475  29.969  0.00  0.00    -0.286 OA
ENDROOT
BRANCH   2  13
ATOM     13  O   UNL     1      -3.083  -2.362  30.244  0.00  0.00    -0.503 OA
ATOM     14  H   UNL     1      -2.545  -1.969  29.585  0.00  0.00    +0.292 HD
ENDBRANCH   2  13
TORSDOF 1
