REMARK  Name = =
REMARK  1 active torsions:
REMARK  status: ('A' for Active; 'I' for Inactive)
REMARK    1  A    between atoms: N_1  and  C_25
REMARK                            x       y       z     vdW  Elec       q    Type
REMARK                         _______ _______ _______ _____ _____    ______ ____
ROOT
ATOM      1  N   UNL     1      -6.590  -2.382  31.806  0.00  0.00    -0.272 N 
ATOM      2  C   UNL     1      -7.429  -1.328  31.212  0.00  0.00    +0.179 C 
ATOM      3  C   UNL     1      -7.108   0.013  31.761  0.00  0.00    +0.246 C 
ATOM      4  O   UNL     1      -6.742   0.168  32.964  0.00  0.00    -0.273 OA
ATOM      5  N   UNL     1      -7.196   1.199  30.965  0.00  0.00    -0.272 N 
ATOM      6  C   UNL     1      -8.244   1.336  29.966  0.00  0.00    +0.152 C 
ATOM      7  C   UNL     1      -7.711   2.238  28.890  0.00  0.00    +0.031 C 
ATOM      8  C   UNL     1      -6.384   2.715  29.424  0.00  0.00    +0.024 C 
ATOM      9  C   UNL     1      -6.410   2.417  30.914  0.00  0.00    +0.094 C 
ATOM     10  C   UNL     1      -9.496   1.868  30.575  0.00  0.00    +0.241 C 
ATOM     11  O   UNL     1      -9.558   3.107  30.787  0.00  0.00    -0.273 OA
ATOM     12  N   UNL     1     -10.612   1.066  30.925  0.00  0.00    -0.295 N 
ATOM     13  C   UNL     1     -11.139  -0.011  30.115  0.00  0.00    +0.176 C 
ATOM     14  C   UNL     1     -12.527  -0.373  30.531  0.00  0.00    +0.243 C 
ATOM     15  O   UNL     1     -13.452   0.268  29.944  0.00  0.00    -0.273 OA
ATOM     16  N   UNL     1     -12.800  -1.359  31.512  0.00  0.00    -0.294 N 
ATOM     17  C   UNL     1     -11.889  -2.412  31.910  0.00  0.00    +0.201 C 
ATOM     18  C   UNL     1     -11.271  -2.140  33.222  0.00  0.00    +0.337 C 
ATOM     19  O   UNL     1     -11.924  -1.502  34.068  0.00  0.00    -0.248 OA
ATOM     20  O   UNL     1      -9.998  -2.603  33.451  0.00  0.00    -0.447 OA
ATOM     21  C   UNL     1      -9.499  -3.874  33.169  0.00  0.00    +0.218 C 
ATOM     22  C   UNL     1      -8.573  -3.966  32.010  0.00  0.00    +0.133 C 
ATOM     23  C   UNL     1      -7.188  -3.525  32.411  0.00  0.00    +0.230 C 
ATOM     24  O   UNL     1      -6.569  -4.178  33.283  0.00  0.00    -0.275 OA
ATOM     25  H   UNL     1     -11.060   1.256  31.781  0.00  0.00    +0.150 HD
ATOM     26  H   UNL     1     -13.677  -1.325  31.958  0.00  0.00    +0.150 HD
ENDROOT
BRANCH   1  27
ATOM     27  C   UNL     1      -5.156  -2.196  31.743  0.00  0.00    +0.080 C 
ATOM     28  C   UNL     1      -4.529  -3.103  30.695  0.00  0.00    +0.046 C 
ATOM     29  C   UNL     1      -4.129  -4.423  31.241  0.00  0.00    -0.024 C 
ATOM     30  C   UNL     1      -3.349  -4.366  32.404  0.00  0.00    -0.026 C 
ATOM     31  C   UNL     1      -2.902  -5.489  33.028  0.00  0.00    -0.005 C 
ATOM     32  C   UNL     1      -3.243  -6.718  32.471  0.00  0.00    -0.000 C 
ATOM     33  C   UNL     1      -4.010  -6.767  31.326  0.00  0.00    -0.000 C 
ATOM     34  C   UNL     1      -4.465  -5.623  30.694  0.00  0.00    -0.005 C 
ATOM     35  C   UNL     1      -4.345  -7.975  30.781  0.00  0.00    -0.000 C 
ATOM     36  C   UNL     1      -3.915  -9.133  31.378  0.00  0.00    -0.000 C 
ATOM     37  C   UNL     1      -3.145  -9.102  32.526  0.00  0.00    -0.000 C 
ATOM     38  C   UNL     1      -2.807  -7.886  33.076  0.00  0.00    -0.000 C 
ATOM     39  C   UNL     1      -3.074  -2.981  32.869  0.00  0.00    +0.028 C 
ATOM     40  C   UNL     1      -4.449  -2.323  33.052  0.00  0.00    +0.025 C 
ENDBRANCH   1  27
TORSDOF 1
