REMARK  Name = =
REMARK  3 active torsions:
REMARK  status: ('A' for Active; 'I' for Inactive)
REMARK    1  A    between atoms: C_1  and  N_13
REMARK    2  A    between atoms: C_2  and  O_20
REMARK    3  A    between atoms: C_17  and  O_19
REMARK                            x       y       z     vdW  Elec       q    Type
REMARK                         _______ _______ _______ _____ _____    ______ ____
ROOT
ATOM      1  C   UNL     1      -1.870  -3.991  29.930  0.00  0.00    +0.141 C 
ATOM      2  C   UNL     1      -2.889  -3.455  30.619  0.00  0.00    +0.190 C 
ATOM      3  C   UNL     1      -3.753  -4.248  31.506  0.00  0.00    +0.230 C 
ATOM      4  O   UNL     1      -4.697  -3.709  32.138  0.00  0.00    -0.283 OA
ATOM      5  C   UNL     1      -3.545  -5.662  31.676  0.00  0.00    +0.045 C 
ATOM      6  C   UNL     1      -2.513  -6.232  30.978  0.00  0.00    +0.044 C 
ATOM      7  C   UNL     1      -2.249  -7.608  31.093  0.00  0.00    +0.003 C 
ATOM      8  C   UNL     1      -3.043  -8.384  31.919  0.00  0.00    +0.000 C 
ATOM      9  C   UNL     1      -4.071  -7.784  32.606  0.00  0.00    +0.000 C 
ATOM     10  C   UNL     1      -4.345  -6.441  32.507  0.00  0.00    +0.003 C 
ATOM     11  C   UNL     1      -1.653  -5.426  30.093  0.00  0.00    +0.213 C 
ATOM     12  O   UNL     1      -0.740  -6.079  29.502  0.00  0.00    -0.285 OA
ENDROOT
BRANCH   1  13
ATOM     13  N   UNL     1      -1.034  -3.244  29.061  0.00  0.00    -0.152 N 
ATOM     14  C   UNL     1       0.342  -2.968  29.332  0.00  0.00    +0.313 C 
ATOM     15  O   UNL     1       1.035  -3.252  30.297  0.00  0.00    -0.252 OA
ATOM     16  N   UNL     1       1.050  -2.230  28.300  0.00  0.00    -0.313 N 
ATOM     17  C   UNL     1      -1.480  -2.835  27.753  0.00  0.00    +0.413 C 
ATOM     18  O   UNL     1      -2.551  -3.122  27.223  0.00  0.00    -0.226 OA
ATOM     19  H   UNL     1       0.579  -1.954  27.481  0.00  0.00    +0.147 HD
ATOM     20  H   UNL     1       2.001  -2.006  28.420  0.00  0.00    +0.147 HD
BRANCH  17  21
ATOM     21  O   UNL     1      -0.640  -2.020  26.962  0.00  0.00    -0.466 OA
ATOM     22  H   UNL     1       0.197  -1.753  27.289  0.00  0.00    +0.297 HD
ENDBRANCH  17  21
ENDBRANCH   1  13
BRANCH   2  23
ATOM     23  O   UNL     1      -3.172  -2.127  30.537  0.00  0.00    -0.502 OA
ATOM     24  H   UNL     1      -2.655  -1.571  29.987  0.00  0.00    +0.292 HD
ENDBRANCH   2  23
TORSDOF 3
