REMARK  Name = =
REMARK  2 active torsions:
REMARK  status: ('A' for Active; 'I' for Inactive)
REMARK    1  A    between atoms: N_1  and  C_25
REMARK    2  A    between atoms: C_25  and  C_39
REMARK                            x       y       z     vdW  Elec       q    Type
REMARK                         _______ _______ _______ _____ _____    ______ ____
ROOT
ATOM      1  N   UNL     1      -4.803  -3.639  31.383  0.00  0.00    -0.269 N 
ATOM      2  C   UNL     1      -4.265  -4.712  32.189  0.00  0.00    +0.179 C 
ATOM      3  C   UNL     1      -3.882  -5.920  31.391  0.00  0.00    +0.246 C 
ATOM      4  O   UNL     1      -4.351  -6.019  30.232  0.00  0.00    -0.273 OA
ATOM      5  N   UNL     1      -3.036  -6.942  31.867  0.00  0.00    -0.272 N 
ATOM      6  C   UNL     1      -1.938  -6.648  32.720  0.00  0.00    +0.152 C 
ATOM      7  C   UNL     1      -1.944  -7.765  33.783  0.00  0.00    +0.031 C 
ATOM      8  C   UNL     1      -2.786  -8.851  33.159  0.00  0.00    +0.024 C 
ATOM      9  C   UNL     1      -3.001  -8.403  31.709  0.00  0.00    +0.094 C 
ATOM     10  C   UNL     1      -0.601  -6.637  32.097  0.00  0.00    +0.241 C 
ATOM     11  O   UNL     1       0.294  -6.042  32.806  0.00  0.00    -0.273 OA
ATOM     12  N   UNL     1      -0.191  -7.170  30.880  0.00  0.00    -0.295 N 
ATOM     13  C   UNL     1      -0.681  -6.866  29.552  0.00  0.00    +0.176 C 
ATOM     14  C   UNL     1       0.468  -6.464  28.723  0.00  0.00    +0.243 C 
ATOM     15  O   UNL     1       1.418  -7.317  28.652  0.00  0.00    -0.273 OA
ATOM     16  N   UNL     1       0.631  -5.271  28.017  0.00  0.00    -0.294 N 
ATOM     17  C   UNL     1       0.243  -3.950  28.457  0.00  0.00    +0.201 C 
ATOM     18  C   UNL     1       0.198  -3.831  29.923  0.00  0.00    +0.337 C 
ATOM     19  O   UNL     1       1.336  -3.870  30.511  0.00  0.00    -0.248 OA
ATOM     20  O   UNL     1      -0.912  -3.690  30.699  0.00  0.00    -0.447 OA
ATOM     21  C   UNL     1      -2.011  -2.846  30.495  0.00  0.00    +0.218 C 
ATOM     22  C   UNL     1      -3.025  -3.355  29.514  0.00  0.00    +0.133 C 
ATOM     23  C   UNL     1      -4.412  -3.379  30.041  0.00  0.00    +0.230 C 
ATOM     24  O   UNL     1      -5.370  -3.143  29.207  0.00  0.00    -0.275 OA
ATOM     25  H   UNL     1       0.527  -7.842  30.928  0.00  0.00    +0.150 HD
ATOM     26  H   UNL     1       1.053  -5.336  27.130  0.00  0.00    +0.150 HD
ENDROOT
BRANCH   1  27
ATOM     27  C   UNL     1      -5.842  -2.803  32.012  0.00  0.00    +0.104 C 
ATOM     28  C   UNL     1      -7.126  -3.114  31.291  0.00  0.00    +0.050 C 
ATOM     29  C   UNL     1      -8.330  -2.903  32.118  0.00  0.00    -0.024 C 
ATOM     30  C   UNL     1      -8.331  -3.141  33.480  0.00  0.00    -0.026 C 
ATOM     31  C   UNL     1      -9.482  -2.921  34.169  0.00  0.00    -0.005 C 
ATOM     32  C   UNL     1     -10.631  -2.472  33.548  0.00  0.00    -0.000 C 
ATOM     33  C   UNL     1     -10.629  -2.234  32.182  0.00  0.00    -0.000 C 
ATOM     34  C   UNL     1      -9.474  -2.454  31.491  0.00  0.00    -0.005 C 
ATOM     35  C   UNL     1     -11.763  -1.783  31.546  0.00  0.00    -0.000 C 
ATOM     36  C   UNL     1     -12.929  -1.563  32.285  0.00  0.00    -0.000 C 
ATOM     37  C   UNL     1     -12.949  -1.796  33.647  0.00  0.00    -0.000 C 
ATOM     38  C   UNL     1     -11.801  -2.248  34.261  0.00  0.00    -0.000 C 
ATOM     39  C   UNL     1      -7.055  -3.629  34.063  0.00  0.00    +0.028 C 
ATOM     40  C   UNL     1      -5.878  -2.913  33.478  0.00  0.00    +0.029 C 
BRANCH  27  41
ATOM     41  C   UNL     1      -5.555  -1.355  31.696  0.00  0.00    +0.116 C 
ATOM     42  N   UNL     1      -6.415  -0.584  31.026  0.00  0.00    -0.148 NA
ATOM     43  N   UNL     1      -6.186   0.687  30.735  0.00  0.00    -0.125 NA
ATOM     44  C   UNL     1      -5.024   1.263  31.128  0.00  0.00    +0.222 C 
ATOM     45  N   UNL     1      -4.123   0.536  31.805  0.00  0.00    -0.220 NA
ATOM     46  C   UNL     1      -4.372  -0.774  32.097  0.00  0.00    +0.119 C 
ENDBRANCH  27  41
ENDBRANCH   1  27
TORSDOF 2
