REMARK  Name = =
REMARK  3 active torsions:
REMARK  status: ('A' for Active; 'I' for Inactive)
REMARK    1  A    between atoms: N_1  and  C_17
REMARK    2  A    between atoms: C_15  and  O_30
REMARK    3  A    between atoms: C_18  and  O_29
REMARK                            x       y       z     vdW  Elec       q    Type
REMARK                         _______ _______ _______ _____ _____    ______ ____
ROOT
ATOM      1  N   UNL     1      -1.243  -3.364  29.101  0.00  0.00    -0.152 N 
ATOM      2  C   UNL     1       0.074  -3.258  28.617  0.00  0.00    +0.321 C 
ATOM      3  O   UNL     1       0.278  -2.370  27.696  0.00  0.00    -0.251 OA
ATOM      4  N   UNL     1       1.203  -4.002  29.032  0.00  0.00    -0.252 N 
ATOM      5  C   UNL     1       2.463  -3.763  28.428  0.00  0.00    +0.155 C 
ATOM      6  N   UNL     1       2.589  -2.838  27.462  0.00  0.00    -0.224 NA
ATOM      7  C   UNL     1       3.774  -2.595  26.876  0.00  0.00    +0.138 C 
ATOM      8  C   UNL     1       4.882  -3.315  27.274  0.00  0.00    +0.183 C 
ATOM      9  N   UNL     1       6.058  -3.059  26.676  0.00  0.00    -0.203 NA
ATOM     10  C   UNL     1       6.190  -2.137  25.714  0.00  0.00    +0.200 C 
ATOM     11  N   UNL     1       5.128  -1.417  25.301  0.00  0.00    -0.221 NA
ATOM     12  C   UNL     1       3.923  -1.651  25.886  0.00  0.00    +0.123 C 
ATOM     13  N   UNL     1       4.750  -4.241  28.241  0.00  0.00    -0.221 NA
ATOM     14  C   UNL     1       3.552  -4.494  28.842  0.00  0.00    +0.135 C 
ATOM     15  C   UNL     1      -2.188  -2.396  28.633  0.00  0.00    +0.413 C 
ATOM     16  O   UNL     1      -3.412  -2.407  28.810  0.00  0.00    -0.226 OA
ATOM     17  H   UNL     1       1.114  -4.683  29.737  0.00  0.00    +0.158 HD
ENDROOT
BRANCH   1  18
ATOM     18  C   UNL     1      -1.711  -4.427  29.908  0.00  0.00    +0.141 C 
ATOM     19  C   UNL     1      -2.417  -4.138  31.004  0.00  0.00    +0.190 C 
ATOM     20  C   UNL     1      -2.915  -5.240  31.823  0.00  0.00    +0.230 C 
ATOM     21  O   UNL     1      -3.571  -4.956  32.859  0.00  0.00    -0.283 OA
ATOM     22  C   UNL     1      -2.679  -6.637  31.485  0.00  0.00    +0.045 C 
ATOM     23  C   UNL     1      -1.963  -6.957  30.352  0.00  0.00    +0.044 C 
ATOM     24  C   UNL     1      -1.713  -8.269  29.985  0.00  0.00    +0.003 C 
ATOM     25  C   UNL     1      -2.185  -9.311  30.762  0.00  0.00    +0.000 C 
ATOM     26  C   UNL     1      -2.902  -8.991  31.897  0.00  0.00    +0.000 C 
ATOM     27  C   UNL     1      -3.148  -7.682  32.258  0.00  0.00    +0.003 C 
ATOM     28  C   UNL     1      -1.467  -5.842  29.541  0.00  0.00    +0.213 C 
ATOM     29  O   UNL     1      -0.833  -6.167  28.504  0.00  0.00    -0.285 OA
BRANCH  19  30
ATOM     30  O   UNL     1      -2.689  -2.827  31.396  0.00  0.00    -0.502 OA
ATOM     31  H   UNL     1      -2.376  -2.110  30.881  0.00  0.00    +0.292 HD
ENDBRANCH  19  30
ENDBRANCH   1  18
BRANCH  15  32
ATOM     32  O   UNL     1      -1.672  -1.312  27.890  0.00  0.00    -0.466 OA
ATOM     33  H   UNL     1      -0.751  -1.253  27.725  0.00  0.00    +0.297 HD
ENDBRANCH  15  32
TORSDOF 3
