REMARK  Name = =
REMARK  5 active torsions:
REMARK  status: ('A' for Active; 'I' for Inactive)
REMARK    1  A    between atoms: N_1  and  C_17
REMARK    2  A    between atoms: N_4  and  C_5
REMARK    3  A    between atoms: C_14  and  C_30
REMARK    4  A    between atoms: C_15  and  O_38
REMARK    5  A    between atoms: C_18  and  O_29
REMARK                            x       y       z     vdW  Elec       q    Type
REMARK                         _______ _______ _______ _____ _____    ______ ____
ROOT
ATOM      1  N   UNL     1      -0.437  -2.965  28.241  0.00  0.00    -0.152 N 
ATOM      2  C   UNL     1      -0.992  -3.683  29.321  0.00  0.00    +0.318 C 
ATOM      3  O   UNL     1      -0.404  -4.690  29.868  0.00  0.00    -0.252 OA
ATOM      4  N   UNL     1      -2.251  -3.417  29.956  0.00  0.00    -0.266 N 
ATOM      5  C   UNL     1      -1.200  -1.931  27.645  0.00  0.00    +0.413 C 
ATOM      6  O   UNL     1      -2.229  -1.416  28.152  0.00  0.00    -0.226 OA
ATOM      7  H   UNL     1      -2.783  -2.638  29.676  0.00  0.00    +0.153 HD
ENDROOT
BRANCH   1   8
ATOM      8  C   UNL     1       0.773  -3.359  27.627  0.00  0.00    +0.141 C 
ATOM      9  C   UNL     1       0.972  -4.503  27.028  0.00  0.00    +0.190 C 
ATOM     10  C   UNL     1       2.286  -4.821  26.433  0.00  0.00    +0.230 C 
ATOM     11  O   UNL     1       2.401  -5.936  25.868  0.00  0.00    -0.283 OA
ATOM     12  C   UNL     1       3.418  -3.932  26.468  0.00  0.00    +0.045 C 
ATOM     13  C   UNL     1       3.230  -2.729  27.101  0.00  0.00    +0.044 C 
ATOM     14  C   UNL     1       4.282  -1.822  27.174  0.00  0.00    +0.003 C 
ATOM     15  C   UNL     1       5.483  -2.171  26.604  0.00  0.00    +0.000 C 
ATOM     16  C   UNL     1       5.700  -3.363  25.965  0.00  0.00    +0.000 C 
ATOM     17  C   UNL     1       4.645  -4.249  25.903  0.00  0.00    +0.003 C 
ATOM     18  C   UNL     1       1.912  -2.428  27.689  0.00  0.00    +0.213 C 
ATOM     19  O   UNL     1       1.848  -1.323  28.246  0.00  0.00    -0.285 OA
BRANCH   9  20
ATOM     20  O   UNL     1      -0.003  -5.506  26.885  0.00  0.00    -0.502 OA
ATOM     21  H   UNL     1      -0.862  -5.378  27.236  0.00  0.00    +0.292 HD
ENDBRANCH   9  20
ENDBRANCH   1   8
BRANCH   4  22
ATOM     22  C   UNL     1      -2.745  -4.283  31.003  0.00  0.00    +0.219 C 
ATOM     23  N   UNL     1      -2.145  -5.501  31.178  0.00  0.00    -0.245 NA
ATOM     24  C   UNL     1      -2.642  -6.433  32.008  0.00  0.00    +0.116 C 
ATOM     25  C   UNL     1      -3.795  -6.183  32.720  0.00  0.00    +0.179 C 
ATOM     26  N   UNL     1      -4.268  -7.140  33.542  0.00  0.00    -0.204 NA
ATOM     27  C   UNL     1      -3.683  -8.336  33.715  0.00  0.00    +0.196 C 
ATOM     28  N   UNL     1      -2.558  -8.584  33.022  0.00  0.00    -0.243 NA
ATOM     29  C   UNL     1      -2.038  -7.667  32.186  0.00  0.00    +0.175 C 
ATOM     30  N   UNL     1      -4.381  -5.000  32.556  0.00  0.00    -0.226 NA
ATOM     31  C   UNL     1      -3.873  -4.027  31.702  0.00  0.00    +0.105 C 
BRANCH  31  32
ATOM     32  C   UNL     1      -4.480  -2.716  31.742  0.00  0.00    +0.059 C 
ATOM     33  C   UNL     1      -4.194  -1.662  31.023  0.00  0.00    +0.047 C 
ATOM     34  C   UNL     1      -4.934  -0.384  31.192  0.00  0.00    +0.196 C 
ATOM     35  O   UNL     1      -4.610   0.592  30.468  0.00  0.00    -0.287 OA
ATOM     36  C   UNL     1      -6.001  -0.257  32.163  0.00  0.00    +0.045 C 
ATOM     37  C   UNL     1      -6.300  -1.313  32.898  0.00  0.00    +0.045 C 
ATOM     38  C   UNL     1      -5.576  -2.555  32.728  0.00  0.00    +0.197 C 
ATOM     39  O   UNL     1      -5.893  -3.530  33.445  0.00  0.00    -0.287 OA
ENDBRANCH  31  32
ENDBRANCH   4  22
BRANCH   5  40
ATOM     40  O   UNL     1      -0.906  -1.352  26.386  0.00  0.00    -0.466 OA
ATOM     41  H   UNL     1      -0.162  -1.645  25.898  0.00  0.00    +0.297 HD
ENDBRANCH   5  40
TORSDOF 5
