MODEL 1
REMARK VINA RESULT:    -8.324      0.000      0.000
REMARK INTER + INTRA:         -14.111
REMARK INTER:                 -12.704
REMARK INTRA:                  -1.407
REMARK UNBOUND:                -1.407
REMARK  Name = =
REMARK  10 active torsions:
REMARK  status: ('A' for Active; 'I' for Inactive)
REMARK    1  A    between atoms: C_1  and  O_17
REMARK    2  A    between atoms: C_4  and  S_11
REMARK    3  A    between atoms: S_11  and  N_14
REMARK    4  A    between atoms: O_17  and  S_18
REMARK    5  A    between atoms: S_18  and  O_20
REMARK    6  A    between atoms: N_21  and  C_22
REMARK    7  A    between atoms: N_21  and  N_37
REMARK    8  A    between atoms: C_23  and  C_28
REMARK    9  A    between atoms: C_24  and  N_34
REMARK   10  A    between atoms: C_38  and  O_40
REMARK                            x       y       z     vdW  Elec       q    Type
REMARK                         _______ _______ _______ _____ _____    ______ ____
ROOT
ATOM      1  C   UNL     1      -1.846  -3.740  28.994  0.00  0.00    +0.276 A 
ATOM      2  N   UNL     1      -0.790  -4.512  28.833  0.00  0.00    -0.190 NA
ATOM      3  C   UNL     1      -0.548  -5.597  29.682  0.00  0.00    +0.174 A 
ATOM      4  C   UNL     1      -1.459  -5.806  30.677  0.00  0.00    +0.160 A 
ATOM      5  C   UNL     1      -2.584  -4.983  30.846  0.00  0.00    +0.044 A 
ATOM      6  C   UNL     1      -2.775  -3.939  29.990  0.00  0.00    +0.138 A 
ATOM      7  N   UNL     1      -3.852  -3.104  30.094  0.00  0.00    -0.239 NA
ATOM      8  C   UNL     1      -4.779  -3.279  31.049  0.00  0.00    +0.099 C 
ATOM      9  C   UNL     1      -4.635  -4.316  31.933  0.00  0.00    +0.021 C 
ATOM     10  C   UNL     1      -3.523  -5.170  31.822  0.00  0.00    +0.005 C 
ATOM     11  N   UNL     1       0.654  -6.271  29.411  0.00  0.00    -0.197 N 
ENDROOT
BRANCH  11  12
ATOM     12  C   UNL     1       1.063  -6.839  28.193  0.00  0.00    +0.072 C 
ATOM     13  C   UNL     1       1.793  -6.241  27.139  0.00  0.00    +0.042 C 
ATOM     14  C   UNL     1       2.048  -6.883  25.954  0.00  0.00    +0.142 C 
ATOM     15  C   UNL     1       1.541  -8.215  25.834  0.00  0.00    +0.024 C 
ATOM     16  C   UNL     1       0.841  -8.832  26.816  0.00  0.00    +0.003 C 
ATOM     17  C   UNL     1       0.612  -8.151  27.963  0.00  0.00    +0.016 C 
BRANCH  13  18
ATOM     18  C   UNL     1       2.335  -4.947  27.503  0.00  0.00    +0.140 C 
ATOM     19  O   UNL     1       3.540  -5.179  28.245  0.00  0.00    -0.352 OA
ATOM     20  C   UNL     1       4.661  -5.247  27.486  0.00  0.00    +0.143 C 
ATOM     21  C   UNL     1       5.028  -3.855  26.990  0.00  0.00    +0.032 C 
ATOM     22  C   UNL     1       3.876  -3.522  26.047  0.00  0.00    +0.005 C 
ATOM     23  C   UNL     1       2.533  -3.766  26.702  0.00  0.00    +0.034 C 
ENDBRANCH  13  18
BRANCH  14  24
ATOM     24  N   UNL     1       2.736  -6.418  24.816  0.00  0.00    +0.057 N 
ATOM     25  O   UNL     1       3.991  -6.527  24.397  0.00  0.00    -0.126 OA
ATOM     26  O   UNL     1       1.983  -5.773  23.982  0.00  0.00    -0.126 OA
ENDBRANCH  14  24
ENDBRANCH  11  12
BRANCH  11  27
ATOM     27  N   UNL     1       1.632  -6.301  30.427  0.00  0.00    -0.193 N 
ATOM     28  C   UNL     1       2.133  -5.151  31.088  0.00  0.00    +0.415 C 
ATOM     29  O   UNL     1       1.719  -4.035  30.782  0.00  0.00    -0.225 OA
ATOM     30  H   UNL     1       1.990  -7.177  30.694  0.00  0.00    +0.177 HD
BRANCH  28  31
ATOM     31  O   UNL     1       3.097  -5.217  32.094  0.00  0.00    -0.465 OA
ATOM     32  H   UNL     1       3.997  -5.050  31.893  0.00  0.00    +0.297 HD
ENDBRANCH  28  31
ENDBRANCH  11  27
BRANCH   4  33
ATOM     33  S   UNL     1      -1.316  -7.160  31.766  0.00  0.00    +0.079 S 
ATOM     34  O   UNL     1      -2.569  -7.896  32.004  0.00  0.00    -0.150 OA
ATOM     35  O   UNL     1      -0.331  -8.159  31.193  0.00  0.00    -0.150 OA
BRANCH  33  36
ATOM     36  N   UNL     1      -0.791  -6.613  33.337  0.00  0.00    -0.178 N 
ATOM     37  C   UNL     1       0.508  -6.967  33.787  0.00  0.00    +0.319 C 
ATOM     38  O   UNL     1       1.280  -7.658  33.073  0.00  0.00    -0.264 OA
ATOM     39  H   UNL     1      -1.385  -6.068  33.902  0.00  0.00    +0.177 HD
ENDBRANCH  33  36
ENDBRANCH   4  33
BRANCH   1  40
ATOM     40  O   UNL     1      -2.093  -2.645  28.136  0.00  0.00    -0.315 OA
BRANCH  40  41
ATOM     41  S   UNL     1      -0.900  -1.411  28.003  0.00  0.00    +0.192 S 
ATOM     42  O   UNL     1      -0.550  -1.197  26.542  0.00  0.00    -0.125 OA
BRANCH  41  43
ATOM     43  O   UNL     1       0.541  -1.829  28.827  0.00  0.00    -0.236 OA
ATOM     44  H   UNL     1       0.319  -2.224  29.685  0.00  0.00    +0.246 HD
ENDBRANCH  41  43
ENDBRANCH  40  41
ENDBRANCH   1  40
TORSDOF 10
ENDMDL
