MODEL 1
REMARK VINA RESULT:   -10.369      0.000      0.000
REMARK INTER + INTRA:         -19.125
REMARK INTER:                 -16.128
REMARK INTRA:                  -2.996
REMARK UNBOUND:                -2.996
REMARK  Name = =
REMARK  10 active torsions:
REMARK  status: ('A' for Active; 'I' for Inactive)
REMARK    1  A    between atoms: C_2  and  C_10
REMARK    2  A    between atoms: N_4  and  C_34
REMARK    3  A    between atoms: C_8  and  N_19
REMARK    4  A    between atoms: C_12  and  S_16
REMARK    5  A    between atoms: C_22  and  O_24
REMARK    6  A    between atoms: O_24  and  C_25
REMARK    7  A    between atoms: C_25  and  C_27
REMARK    8  A    between atoms: C_30  and  O_33
REMARK    9  A    between atoms: C_34  and  N_38
REMARK   10  A    between atoms: N_38  and  N_39
REMARK                            x       y       z     vdW  Elec       q    Type
REMARK                         _______ _______ _______ _____ _____    ______ ____
ROOT
ATOM      1  C   UNL     1      -3.313  -3.110  30.030  0.00  0.00    +0.002 C 
ATOM      2  C   UNL     1      -2.709  -4.243  30.595  0.00  0.00    +0.012 C 
ATOM      3  C   UNL     1      -3.299  -4.691  31.754  0.00  0.00    +0.068 C 
ATOM      4  N   UNL     1      -3.069  -5.909  32.493  0.00  0.00    -0.252 N 
ATOM      5  C   UNL     1      -3.475  -5.522  33.862  0.00  0.00    +0.190 C 
ATOM      6  N   UNL     1      -4.698  -4.756  33.528  0.00  0.00    -0.314 N 
ATOM      7  C   UNL     1      -4.407  -4.056  32.324  0.00  0.00    +0.073 C 
ATOM      8  C   UNL     1      -4.969  -2.949  31.747  0.00  0.00    +0.062 C 
ATOM      9  C   UNL     1      -4.399  -2.482  30.575  0.00  0.00    +0.016 C 
ATOM     10  H   UNL     1      -5.541  -4.736  34.036  0.00  0.00    +0.148 HD
ENDROOT
BRANCH   2  11
ATOM     11  C   UNL     1      -1.586  -4.841  29.931  0.00  0.00    -0.006 C 
ATOM     12  C   UNL     1      -1.739  -5.704  28.903  0.00  0.00    -0.005 C 
ATOM     13  C   UNL     1      -0.612  -6.334  28.204  0.00  0.00    +0.164 C 
ATOM     14  C   UNL     1       0.715  -6.028  28.801  0.00  0.00    +0.117 C 
ATOM     15  N   UNL     1       0.665  -5.607  30.182  0.00  0.00    -0.211 NA
ATOM     16  C   UNL     1      -0.182  -4.427  30.225  0.00  0.00    +0.115 C 
BRANCH  13  17
ATOM     17  S   UNL     1      -0.805  -8.118  28.169  0.00  0.00    -0.027 S 
ATOM     18  O   UNL     1      -0.487  -8.722  29.506  0.00  0.00    -0.176 OA
ATOM     19  O   UNL     1       0.132  -8.726  27.164  0.00  0.00    -0.176 OA
ATOM     20  H   UNL     1      -2.099  -8.376  27.839  0.00  0.00    +0.210 HD
ENDBRANCH  13  17
ENDBRANCH   2  11
BRANCH   8  21
ATOM     21  N   UNL     1      -6.088  -2.284  32.318  0.00  0.00    -0.303 N 
ATOM     22  C   UNL     1      -6.049  -1.115  33.186  0.00  0.00    +0.095 C 
ATOM     23  C   UNL     1      -7.288  -0.376  32.656  0.00  0.00    +0.067 C 
ATOM     24  C   UNL     1      -8.289  -1.507  32.623  0.00  0.00    +0.190 C 
ATOM     25  C   UNL     1      -7.497  -2.666  32.127  0.00  0.00    +0.135 C 
BRANCH  24  26
ATOM     26  O   UNL     1      -9.435  -1.237  31.859  0.00  0.00    -0.447 OA
BRANCH  26  27
ATOM     27  C   UNL     1     -10.530  -2.072  31.817  0.00  0.00    +0.341 C 
ATOM     28  O   UNL     1     -11.097  -2.219  30.691  0.00  0.00    -0.245 OA
BRANCH  27  29
ATOM     29  C   UNL     1     -11.009  -2.750  33.016  0.00  0.00    +0.076 C 
ATOM     30  C   UNL     1     -11.492  -2.038  34.107  0.00  0.00    +0.010 C 
ATOM     31  C   UNL     1     -11.939  -2.694  35.232  0.00  0.00    +0.037 C 
ATOM     32  C   UNL     1     -11.929  -4.072  35.334  0.00  0.00    +0.134 C 
ATOM     33  C   UNL     1     -11.451  -4.790  34.259  0.00  0.00    +0.037 C 
ATOM     34  C   UNL     1     -11.000  -4.121  33.120  0.00  0.00    +0.010 C 
BRANCH  32  35
ATOM     35  O   UNL     1     -12.390  -4.714  36.496  0.00  0.00    -0.506 OA
ATOM     36  H   UNL     1     -11.984  -4.538  37.322  0.00  0.00    +0.292 HD
ENDBRANCH  32  35
ENDBRANCH  27  29
ENDBRANCH  26  27
ENDBRANCH  24  26
ENDBRANCH   8  21
BRANCH   4  37
ATOM     37  C   UNL     1      -2.636  -7.170  32.044  0.00  0.00    +0.175 C 
ATOM     38  C   UNL     1      -3.468  -8.015  31.483  0.00  0.00    +0.307 C 
ATOM     39  F   UNL     1      -3.102  -9.239  31.035  0.00  0.00    -0.169 F 
ATOM     40  F   UNL     1      -4.771  -7.661  31.342  0.00  0.00    -0.169 F 
BRANCH  37  41
ATOM     41  N   UNL     1      -1.266  -7.542  32.212  0.00  0.00    -0.247 N 
ATOM     42  H   UNL     1      -0.947  -8.423  31.909  0.00  0.00    +0.171 HD
BRANCH  41  43
ATOM     43  N   UNL     1      -0.374  -6.626  32.819  0.00  0.00    -0.228 N 
ATOM     44  C   UNL     1       0.729  -7.138  33.532  0.00  0.00    +0.316 C 
ATOM     45  O   UNL     1       0.941  -8.369  33.641  0.00  0.00    -0.264 OA
ATOM     46  H   UNL     1      -0.519  -5.655  32.745  0.00  0.00    +0.173 HD
ENDBRANCH  41  43
ENDBRANCH  37  41
ENDBRANCH   4  37
TORSDOF 10
ENDMDL
