MODEL 1
REMARK VINA RESULT:    -9.516      0.000      0.000
REMARK INTER + INTRA:         -12.279
REMARK INTER:                 -13.411
REMARK INTRA:                   1.132
REMARK UNBOUND:                 1.132
REMARK  Name = =
REMARK  7 active torsions:
REMARK  status: ('A' for Active; 'I' for Inactive)
REMARK    1  A    between atoms: C_1  and  C_17
REMARK    2  A    between atoms: C_4  and  N_28
REMARK    3  A    between atoms: C_5  and  N_38
REMARK    4  A    between atoms: C_6  and  C_9
REMARK    5  A    between atoms: C_18  and  N_23
REMARK    6  A    between atoms: C_29  and  O_31
REMARK    7  A    between atoms: O_31  and  C_32
REMARK                            x       y       z     vdW  Elec       q    Type
REMARK                         _______ _______ _______ _____ _____    ______ ____
ROOT
ATOM      1  C   UNL     1      -1.672  -6.209  29.910  0.00  0.00    +0.008 A 
ATOM      2  C   UNL     1      -2.524  -6.784  30.885  0.00  0.00    +0.165 A 
ATOM      3  C   UNL     1      -3.559  -6.139  31.480  0.00  0.00    +0.182 A 
ATOM      4  C   UNL     1      -3.827  -4.855  31.141  0.00  0.00    +0.104 A 
ATOM      5  C   UNL     1      -3.040  -4.242  30.204  0.00  0.00    +0.137 A 
ATOM      6  C   UNL     1      -1.954  -4.937  29.589  0.00  0.00    +0.017 A 
ATOM      7  F   UNL     1      -4.365  -6.711  32.417  0.00  0.00    -0.200 F 
ATOM      8  F   UNL     1      -2.352  -8.080  31.232  0.00  0.00    -0.202 F 
ENDROOT
BRANCH   6   9
ATOM      9  C   UNL     1      -1.218  -4.147  28.638  0.00  0.00    +0.156 C 
ATOM     10  S   UNL     1      -2.508  -3.168  27.675  0.00  0.00    -0.044 S 
ATOM     11  C   UNL     1      -1.564  -1.670  27.552  0.00  0.00    +0.279 C 
ATOM     12  O   UNL     1      -1.840  -0.681  26.875  0.00  0.00    -0.263 OA
ATOM     13  N   UNL     1      -0.447  -1.869  28.388  0.00  0.00    -0.246 N 
ATOM     14  C   UNL     1      -0.586  -2.933  29.279  0.00  0.00    +0.243 C 
ATOM     15  O   UNL     1      -0.241  -2.942  30.505  0.00  0.00    -0.273 OA
ATOM     16  H   UNL     1       0.359  -1.306  28.347  0.00  0.00    +0.158 HD
ENDBRANCH   6   9
BRANCH   1  18
ATOM     17  C   UNL     1      -0.634  -7.734  28.139  0.00  0.00    +0.007 C 
ATOM     18  C   UNL     1      -0.591  -7.022  29.439  0.00  0.00    +0.052 C 
ATOM     19  C   UNL     1       0.755  -6.201  29.435  0.00  0.00    +0.159 C 
ATOM     20  C   UNL     1       1.726  -6.955  28.576  0.00  0.00    +0.171 C 
ATOM     21  O   UNL     1       2.596  -6.346  27.964  0.00  0.00    -0.294 OA
ATOM     22  C   UNL     1       1.618  -8.396  28.488  0.00  0.00    +0.066 C 
ATOM     23  C   UNL     1       0.378  -8.874  28.258  0.00  0.00    +0.008 C 
BRANCH  19  24
ATOM     24  N   UNL     1       1.384  -6.176  30.732  0.00  0.00    -0.185 N 
ATOM     25  N   UNL     1       1.258  -6.957  31.792  0.00  0.00    -0.153 NA
ATOM     26  C   UNL     1       2.038  -6.520  32.792  0.00  0.00    +0.218 C 
ATOM     27  N   UNL     1       2.688  -5.427  32.379  0.00  0.00    -0.203 NA
ATOM     28  C   UNL     1       2.282  -5.212  31.094  0.00  0.00    +0.186 C 
ENDBRANCH  19  24
ENDBRANCH   1  18
BRANCH   4  29
ATOM     29  N   UNL     1      -4.904  -4.142  31.749  0.00  0.00    -0.246 N 
ATOM     30  C   UNL     1      -4.792  -3.671  33.087  0.00  0.00    +0.410 C 
ATOM     31  O   UNL     1      -3.726  -3.901  33.708  0.00  0.00    -0.226 OA
ATOM     32  H   UNL     1      -5.729  -3.974  31.239  0.00  0.00    +0.158 HD
BRANCH  30  33
ATOM     33  O   UNL     1      -5.792  -2.983  33.729  0.00  0.00    -0.410 OA
BRANCH  33  34
ATOM     34  C   UNL     1      -6.590  -2.110  32.982  0.00  0.00    +0.150 C 
ATOM     35  C   UNL     1      -7.748  -2.556  32.383  0.00  0.00    +0.038 C 
ATOM     36  C   UNL     1      -8.531  -1.707  31.653  0.00  0.00    +0.003 C 
ATOM     37  C   UNL     1      -8.172  -0.384  31.502  0.00  0.00    +0.000 C 
ATOM     38  C   UNL     1      -7.021   0.064  32.094  0.00  0.00    +0.003 C 
ATOM     39  C   UNL     1      -6.243  -0.793  32.826  0.00  0.00    +0.038 C 
ENDBRANCH  33  34
ENDBRANCH  30  33
ENDBRANCH   4  29
BRANCH   5  40
ATOM     40  N   UNL     1      -3.310  -2.899  29.832  0.00  0.00    -0.028 NA
ATOM     41  O   UNL     1      -3.481  -1.994  30.642  0.00  0.00    -0.143 OA
ENDBRANCH   5  40
TORSDOF 7
ENDMDL
