REMARK  Name = =
REMARK  7 active torsions:
REMARK  status: ('A' for Active; 'I' for Inactive)
REMARK    1  A    between atoms: C_1  and  C_17
REMARK    2  A    between atoms: C_4  and  N_28
REMARK    3  A    between atoms: C_5  and  N_38
REMARK    4  A    between atoms: C_6  and  C_9
REMARK    5  A    between atoms: C_18  and  N_23
REMARK    6  A    between atoms: C_29  and  O_31
REMARK    7  A    between atoms: O_31  and  C_32
REMARK                            x       y       z     vdW  Elec       q    Type
REMARK                         _______ _______ _______ _____ _____    ______ ____
ROOT
ATOM      1  C   UNL     1     -13.527   0.278  27.220  0.00  0.00    +0.008 A 
ATOM      2  C   UNL     1     -13.372   1.340  28.145  0.00  0.00    +0.165 A 
ATOM      3  C   UNL     1     -12.211   1.648  28.775  0.00  0.00    +0.182 A 
ATOM      4  C   UNL     1     -11.101   0.912  28.526  0.00  0.00    +0.104 A 
ATOM      5  C   UNL     1     -11.185  -0.128  27.641  0.00  0.00    +0.137 A 
ATOM      6  C   UNL     1     -12.417  -0.439  26.987  0.00  0.00    +0.017 A 
ATOM      7  F   UNL     1     -12.085   2.673  29.663  0.00  0.00    -0.200 F 
ATOM      8  F   UNL     1     -14.423   2.152  28.401  0.00  0.00    -0.202 F 
ENDROOT
BRANCH   6   9
ATOM      9  C   UNL     1     -12.339  -1.569  26.100  0.00  0.00    +0.156 C 
ATOM     10  S   UNL     1     -10.863  -1.241  24.976  0.00  0.00    -0.044 S 
ATOM     11  C   UNL     1     -10.287  -2.918  24.915  0.00  0.00    +0.279 C 
ATOM     12  O   UNL     1      -9.404  -3.366  24.186  0.00  0.00    -0.263 OA
ATOM     13  N   UNL     1     -11.057  -3.607  25.873  0.00  0.00    -0.246 N 
ATOM     14  C   UNL     1     -11.723  -2.775  26.773  0.00  0.00    +0.243 C 
ATOM     15  O   UNL     1     -11.834  -2.955  28.029  0.00  0.00    -0.273 OA
ATOM     16  H   UNL     1     -11.119  -4.589  25.904  0.00  0.00    +0.158 HD
ENDBRANCH   6   9
BRANCH   1  18
ATOM     17  C   UNL     1     -15.104  -0.206  25.266  0.00  0.00    +0.007 C 
ATOM     18  C   UNL     1     -14.845   0.062  26.701  0.00  0.00    +0.052 C 
ATOM     19  C   UNL     1     -15.565  -1.096  27.492  0.00  0.00    +0.159 C 
ATOM     20  C   UNL     1     -16.737  -1.530  26.662  0.00  0.00    +0.171 C 
ATOM     21  O   UNL     1     -17.128  -2.691  26.723  0.00  0.00    -0.294 OA
ATOM     22  C   UNL     1     -17.388  -0.565  25.802  0.00  0.00    +0.066 C 
ATOM     23  C   UNL     1     -16.566   0.177  25.032  0.00  0.00    +0.008 C 
BRANCH  19  24
ATOM     24  N   UNL     1     -16.162  -0.631  28.719  0.00  0.00    -0.185 N 
ATOM     25  N   UNL     1     -16.040  -1.036  29.972  0.00  0.00    -0.153 NA
ATOM     26  C   UNL     1     -16.824  -0.306  30.780  0.00  0.00    +0.218 C 
ATOM     27  N   UNL     1     -17.476   0.596  30.039  0.00  0.00    -0.203 NA
ATOM     28  C   UNL     1     -17.064   0.395  28.754  0.00  0.00    +0.186 C 
ENDBRANCH  19  24
ENDBRANCH   1  18
BRANCH   4  29
ATOM     29  N   UNL     1      -9.863   1.203  29.174  0.00  0.00    -0.246 N 
ATOM     30  C   UNL     1      -9.565   0.639  30.446  0.00  0.00    +0.410 C 
ATOM     31  O   UNL     1     -10.418  -0.116  30.973  0.00  0.00    -0.226 OA
ATOM     32  H   UNL     1      -9.211   1.798  28.738  0.00  0.00    +0.158 HD
BRANCH  30  33
ATOM     33  O   UNL     1      -8.395   0.882  31.122  0.00  0.00    -0.410 OA
BRANCH  33  34
ATOM     34  C   UNL     1      -7.735  -0.194  31.726  0.00  0.00    +0.150 C 
ATOM     35  C   UNL     1      -8.040  -1.490  31.375  0.00  0.00    +0.038 C 
ATOM     36  C   UNL     1      -7.397  -2.544  31.962  0.00  0.00    +0.003 C 
ATOM     37  C   UNL     1      -6.430  -2.325  32.920  0.00  0.00    +0.000 C 
ATOM     38  C   UNL     1      -6.124  -1.037  33.273  0.00  0.00    +0.003 C 
ATOM     39  C   UNL     1      -6.771   0.013  32.679  0.00  0.00    +0.038 C 
ENDBRANCH  33  34
ENDBRANCH  30  33
ENDBRANCH   4  29
BRANCH   5  40
ATOM     40  N   UNL     1     -10.031  -0.906  27.363  0.00  0.00    -0.028 NA
ATOM     41  O   UNL     1      -8.934  -0.422  27.106  0.00  0.00    -0.143 OA
ENDBRANCH   5  40
TORSDOF 7
