REMARK  Name = =
REMARK  0 active torsions:
REMARK  status: ('A' for Active; 'I' for Inactive)
REMARK                            x       y       z     vdW  Elec       q    Type
REMARK                         _______ _______ _______ _____ _____    ______ ____
ROOT
ATOM      1  O   UNL     1      -3.946  -4.035  32.836  0.00  0.00    -0.354 OA
ATOM      2  C   UNL     1      -3.901  -5.361  32.522  0.00  0.00    +0.142 C 
ATOM      3  C   UNL     1      -4.029  -5.693  31.074  0.00  0.00    +0.032 C 
ATOM      4  C   UNL     1      -3.249  -4.721  30.262  0.00  0.00    +0.005 C 
ATOM      5  C   UNL     1      -3.338  -3.445  30.619  0.00  0.00    +0.032 C 
ATOM      6  C   UNL     1      -4.228  -3.176  31.809  0.00  0.00    +0.142 C 
ENDROOT
TORSDOF 0
