REMARK  Name = =
REMARK  1 active torsions:
REMARK  status: ('A' for Active; 'I' for Inactive)
REMARK    1  A    between atoms: C_1  and  C_12
REMARK                            x       y       z     vdW  Elec       q    Type
REMARK                         _______ _______ _______ _____ _____    ______ ____
ROOT
ATOM      1  C   UNL     1      -3.837  -5.444  31.677  0.00  0.00    +0.105 C 
ATOM      2  N   UNL     1      -4.527  -4.874  32.679  0.00  0.00    -0.244 NA
ATOM      3  C   UNL     1      -5.041  -3.638  32.550  0.00  0.00    +0.099 C 
ATOM      4  C   UNL     1      -4.863  -2.937  31.375  0.00  0.00    +0.099 C 
ATOM      5  N   UNL     1      -4.170  -3.528  30.389  0.00  0.00    -0.241 NA
ATOM      6  C   UNL     1      -3.640  -4.759  30.473  0.00  0.00    +0.116 C 
ATOM      7  C   UNL     1      -5.384  -1.651  31.210  0.00  0.00    +0.021 C 
ATOM      8  C   UNL     1      -6.095  -1.049  32.226  0.00  0.00    +0.002 C 
ATOM      9  C   UNL     1      -6.266  -1.763  33.399  0.00  0.00    +0.002 C 
ATOM     10  C   UNL     1      -5.755  -3.028  33.567  0.00  0.00    +0.021 C 
ENDROOT
BRANCH   1  12
ATOM     11  O   UNL     1      -1.993  -6.903  31.326  0.00  0.00    -0.345 OA
ATOM     12  C   UNL     1      -3.276  -6.810  31.837  0.00  0.00    +0.161 C 
ATOM     13  C   UNL     1      -3.398  -7.209  33.269  0.00  0.00    +0.062 C 
ATOM     14  C   UNL     1      -2.389  -8.214  33.700  0.00  0.00    -0.025 C 
ATOM     15  C   UNL     1      -1.154  -8.050  33.187  0.00  0.00    +0.001 C 
ATOM     16  C   UNL     1      -0.997  -6.885  32.268  0.00  0.00    +0.168 C 
ENDBRANCH   1  12
TORSDOF 1
