REMARK  Name = =
REMARK  4 active torsions:
REMARK  status: ('A' for Active; 'I' for Inactive)
REMARK    1  A    between atoms: C_1  and  C_12
REMARK    2  A    between atoms: C_9  and  O_17
REMARK    3  A    between atoms: O_17  and  C_18
REMARK    4  A    between atoms: N_20  and  O_21
REMARK                            x       y       z     vdW  Elec       q    Type
REMARK                         _______ _______ _______ _____ _____    ______ ____
ROOT
ATOM      1  C   UNL     1      -4.283  -4.323  31.967  0.00  0.00    +0.105 C 
ATOM      2  N   UNL     1      -3.068  -4.620  32.452  0.00  0.00    -0.244 NA
ATOM      3  C   UNL     1      -2.348  -5.654  31.987  0.00  0.00    +0.102 C 
ATOM      4  C   UNL     1      -2.881  -6.429  30.977  0.00  0.00    +0.099 C 
ATOM      5  N   UNL     1      -4.105  -6.139  30.478  0.00  0.00    -0.241 NA
ATOM      6  C   UNL     1      -4.817  -5.101  30.953  0.00  0.00    +0.116 C 
ATOM      7  C   UNL     1      -2.126  -7.479  30.517  0.00  0.00    +0.024 C 
ATOM      8  C   UNL     1      -0.876  -7.744  31.054  0.00  0.00    +0.039 C 
ATOM      9  C   UNL     1      -0.334  -6.975  32.064  0.00  0.00    +0.152 C 
ATOM     10  C   UNL     1      -1.087  -5.921  32.528  0.00  0.00    +0.058 C 
ENDROOT
BRANCH   1  12
ATOM     11  O   UNL     1      -5.846  -2.667  31.495  0.00  0.00    -0.345 OA
ATOM     12  C   UNL     1      -5.088  -3.174  32.482  0.00  0.00    +0.161 C 
ATOM     13  C   UNL     1      -5.773  -3.607  33.730  0.00  0.00    +0.062 C 
ATOM     14  C   UNL     1      -7.036  -2.897  34.003  0.00  0.00    -0.025 C 
ATOM     15  C   UNL     1      -7.719  -2.433  32.984  0.00  0.00    +0.001 C 
ATOM     16  C   UNL     1      -7.199  -2.642  31.618  0.00  0.00    +0.168 C 
ENDBRANCH   1  12
BRANCH   9  17
ATOM     17  O   UNL     1       0.928  -7.291  32.563  0.00  0.00    -0.409 OA
BRANCH  17  18
ATOM     18  C   UNL     1       1.969  -6.387  32.516  0.00  0.00    +0.429 C 
ATOM     19  O   UNL     1       1.890  -5.451  31.683  0.00  0.00    -0.224 OA
ATOM     20  N   UNL     1       3.116  -6.438  33.336  0.00  0.00    -0.162 N 
ATOM     21  H   UNL     1       3.186  -7.169  33.992  0.00  0.00    +0.186 HD
BRANCH  20  22
ATOM     22  O   UNL     1       4.129  -5.535  33.272  0.00  0.00    -0.293 OA
ATOM     23  H   UNL     1       3.931  -4.875  32.589  0.00  0.00    +0.241 HD
ENDBRANCH  20  22
ENDBRANCH  17  18
ENDBRANCH   9  17
TORSDOF 4
