REMARK  Name = =
REMARK  5 active torsions:
REMARK  status: ('A' for Active; 'I' for Inactive)
REMARK    1  A    between atoms: C_2  and  C_18
REMARK    2  A    between atoms: C_6  and  C_7
REMARK    3  A    between atoms: C_26  and  O_28
REMARK    4  A    between atoms: O_28  and  C_29
REMARK    5  A    between atoms: N_31  and  O_32
REMARK                            x       y       z     vdW  Elec       q    Type
REMARK                         _______ _______ _______ _____ _____    ______ ____
ROOT
ATOM      1  O   UNL     1       6.528 -11.814  24.652  0.00  0.00    -0.347 OA
ATOM      2  C   UNL     1       7.264 -11.054  23.791  0.00  0.00    +0.161 C 
ATOM      3  C   UNL     1       7.619  -9.732  24.489  0.00  0.00    +0.062 C 
ATOM      4  C   UNL     1       8.591 -10.150  25.539  0.00  0.00    -0.025 C 
ATOM      5  C   UNL     1       8.287 -11.248  26.218  0.00  0.00    -0.001 C 
ATOM      6  C   UNL     1       7.032 -11.970  25.899  0.00  0.00    +0.151 C 
ENDROOT
BRANCH   6   7
ATOM      7  C   UNL     1       5.981 -11.556  26.944  0.00  0.00    +0.174 C 
ATOM      8  C   UNL     1       6.229 -10.164  27.436  0.00  0.00    +0.222 C 
ATOM      9  O   UNL     1       5.153  -9.622  28.142  0.00  0.00    -0.448 OA
ATOM     10  C   UNL     1       4.082  -8.946  27.639  0.00  0.00    +0.317 C 
ATOM     11  O   UNL     1       2.910  -9.168  28.023  0.00  0.00    -0.250 OA
ATOM     12  C   UNL     1       4.277  -7.906  26.602  0.00  0.00    +0.113 C 
ATOM     13  C   UNL     1       3.512  -8.400  25.367  0.00  0.00    +0.059 C 
ATOM     14  C   UNL     1       4.131  -9.742  25.014  0.00  0.00    +0.209 C 
ATOM     15  O   UNL     1       3.839 -10.692  26.007  0.00  0.00    -0.448 OA
ATOM     16  C   UNL     1       4.602 -11.728  26.437  0.00  0.00    +0.323 C 
ATOM     17  O   UNL     1       4.118 -12.911  26.410  0.00  0.00    -0.250 OA
ENDBRANCH   6   7
BRANCH   2  18
ATOM     18  C   UNL     1       6.644 -10.828  22.492  0.00  0.00    +0.105 C 
ATOM     19  N   UNL     1       5.692 -11.640  22.009  0.00  0.00    -0.244 NA
ATOM     20  C   UNL     1       5.124 -11.414  20.794  0.00  0.00    +0.102 C 
ATOM     21  C   UNL     1       5.518 -10.335  20.025  0.00  0.00    +0.099 C 
ATOM     22  N   UNL     1       6.463  -9.535  20.512  0.00  0.00    -0.241 NA
ATOM     23  C   UNL     1       7.030  -9.758  21.721  0.00  0.00    +0.116 C 
ATOM     24  C   UNL     1       4.924 -10.120  18.784  0.00  0.00    +0.024 C 
ATOM     25  C   UNL     1       3.946 -10.948  18.280  0.00  0.00    +0.039 C 
ATOM     26  C   UNL     1       3.563 -12.020  19.058  0.00  0.00    +0.152 C 
ATOM     27  C   UNL     1       4.142 -12.249  20.293  0.00  0.00    +0.058 C 
BRANCH  26  28
ATOM     28  O   UNL     1       2.585 -12.898  18.616  0.00  0.00    -0.409 OA
BRANCH  28  29
ATOM     29  C   UNL     1       1.287 -12.861  19.149  0.00  0.00    +0.429 C 
ATOM     30  O   UNL     1       0.925 -13.832  19.827  0.00  0.00    -0.224 OA
ATOM     31  N   UNL     1       0.411 -11.772  18.932  0.00  0.00    -0.162 N 
ATOM     32  H   UNL     1       0.729 -11.016  18.387  0.00  0.00    +0.186 HD
BRANCH  31  33
ATOM     33  O   UNL     1      -0.837 -11.718  19.434  0.00  0.00    -0.293 OA
ATOM     34  H   UNL     1      -1.015 -12.523  19.946  0.00  0.00    +0.241 HD
ENDBRANCH  31  33
ENDBRANCH  28  29
ENDBRANCH  26  28
ENDBRANCH   2  18
TORSDOF 5
