REMARK  Name = =
REMARK  5 active torsions:
REMARK  status: ('A' for Active; 'I' for Inactive)
REMARK    1  A    between atoms: C_2  and  C_33
REMARK    2  A    between atoms: C_20  and  C_28
REMARK    3  A    between atoms: C_28  and  C_30
REMARK    4  A    between atoms: C_30  and  O_32
REMARK    5  A    between atoms: C_33  and  C_34
REMARK                            x       y       z     vdW  Elec       q    Type
REMARK                         _______ _______ _______ _____ _____    ______ ____
ROOT
ATOM      1  N   UNL     1      -7.096  -0.659  30.595  0.00  0.00    -0.272 NA
ATOM      2  C   UNL     1      -6.296  -0.336  31.711  0.00  0.00    +0.064 C 
ATOM      3  C   UNL     1      -6.877  -1.241  32.806  0.00  0.00    +0.018 C 
ATOM      4  C   UNL     1      -8.355  -1.155  32.483  0.00  0.00    +0.019 C 
ATOM      5  C   UNL     1      -8.329  -1.189  30.963  0.00  0.00    +0.072 C 
ATOM      6  C   UNL     1      -4.843  -0.680  31.443  0.00  0.00    +0.084 C 
ATOM      7  N   UNL     1      -4.775  -1.478  30.260  0.00  0.00    -0.296 NA
ATOM      8  C   UNL     1      -3.459  -1.772  29.805  0.00  0.00    +0.069 C 
ATOM      9  C   UNL     1      -2.779  -0.624  29.112  0.00  0.00    +0.017 C 
ATOM     10  C   UNL     1      -1.536  -1.118  28.416  0.00  0.00    +0.003 C 
ATOM     11  C   UNL     1      -1.833  -1.934  27.188  0.00  0.00    +0.017 C 
ATOM     12  C   UNL     1      -2.816  -1.271  26.263  0.00  0.00    +0.069 C 
ATOM     13  N   UNL     1      -2.902  -2.113  25.066  0.00  0.00    -0.296 NA
ATOM     14  C   UNL     1      -3.377  -1.320  23.930  0.00  0.00    +0.086 C 
ATOM     15  C   UNL     1      -4.751  -0.845  24.261  0.00  0.00    +0.090 C 
ATOM     16  N   UNL     1      -5.559  -0.520  23.116  0.00  0.00    -0.266 NA
ATOM     17  C   UNL     1      -6.614   0.367  23.562  0.00  0.00    +0.074 C 
ATOM     18  C   UNL     1      -6.315   1.707  22.978  0.00  0.00    +0.019 C 
ATOM     19  C   UNL     1      -4.875   1.601  22.473  0.00  0.00    +0.026 C 
ATOM     20  C   UNL     1      -4.803   0.142  22.102  0.00  0.00    +0.127 C 
ATOM     21  C   UNL     1      -7.990  -0.143  23.317  0.00  0.00    +0.085 C 
ATOM     22  N   UNL     1      -8.575  -0.493  24.621  0.00  0.00    -0.295 NA
ATOM     23  C   UNL     1      -8.590   0.628  25.522  0.00  0.00    +0.086 C 
ATOM     24  C   UNL     1      -8.022   0.235  26.870  0.00  0.00    +0.086 C 
ATOM     25  N   UNL     1      -8.850   0.714  27.959  0.00  0.00    -0.295 NA
ATOM     26  C   UNL     1      -8.104   1.049  29.138  0.00  0.00    +0.086 C 
ATOM     27  C   UNL     1      -6.979   0.120  29.444  0.00  0.00    +0.089 C 
ATOM     28  H   UNL     1      -5.263  -0.981  29.515  0.00  0.00    +0.123 HD
ATOM     29  H   UNL     1      -3.552  -2.880  25.238  0.00  0.00    +0.123 HD
ATOM     30  H   UNL     1      -8.025  -1.244  25.038  0.00  0.00    +0.123 HD
ATOM     31  H   UNL     1      -9.523  -0.015  28.198  0.00  0.00    +0.123 HD
ENDROOT
BRANCH  20  32
ATOM     32  C   UNL     1      -5.323  -0.053  20.746  0.00  0.00    +0.262 C 
ATOM     33  O   UNL     1      -6.338  -0.772  20.576  0.00  0.00    -0.283 OA
BRANCH  32  34
ATOM     34  C   UNL     1      -4.720   0.548  19.570  0.00  0.00    +0.375 C 
ATOM     35  O   UNL     1      -3.626   1.151  19.708  0.00  0.00    -0.242 OA
BRANCH  34  36
ATOM     36  O   UNL     1      -5.292   0.485  18.323  0.00  0.00    -0.475 OA
ATOM     37  H   UNL     1      -6.107   0.039  18.204  0.00  0.00    +0.295 HD
ENDBRANCH  34  36
ENDBRANCH  32  34
ENDBRANCH  20  32
BRANCH   2  38
ATOM     38  C   UNL     1      -6.454   1.118  32.102  0.00  0.00    +0.042 C 
BRANCH  38  39
ATOM     39  C   UNL     1      -5.727   1.444  33.349  0.00  0.00    -0.025 C 
ATOM     40  C   UNL     1      -4.622   2.166  33.278  0.00  0.00    -0.005 C 
ENDBRANCH  38  39
ENDBRANCH   2  38
TORSDOF 5
