REMARK  Name = =
REMARK  0 active torsions:
REMARK  status: ('A' for Active; 'I' for Inactive)
REMARK                            x       y       z     vdW  Elec       q    Type
REMARK                         _______ _______ _______ _____ _____    ______ ____
ROOT
ATOM      1  C   UNL     1      50.783 155.829  29.369  0.00  0.00    +0.001 C 
ATOM      2  C   UNL     1      51.213 156.970  29.990  0.00  0.00    +0.015 C 
ATOM      3  C   UNL     1      50.384 158.044  30.326  0.00  0.00    +0.054 C 
ATOM      4  C   UNL     1      49.064 157.879  29.982  0.00  0.00    +0.043 C 
ATOM      5  C   UNL     1      48.603 156.756  29.362  0.00  0.00    +0.008 C 
ATOM      6  C   UNL     1      49.452 155.699  29.037  0.00  0.00    +0.001 C 
ATOM      7  S   UNL     1      47.897 159.169  30.350  0.00  0.00    -0.084 S 
ATOM      8  C   UNL     1      48.803 160.480  31.148  0.00  0.00    +0.043 C 
ATOM      9  C   UNL     1      50.152 160.328  31.349  0.00  0.00    +0.054 C 
ATOM     10  C   UNL     1      50.801 161.399  31.983  0.00  0.00    +0.015 C 
ATOM     11  C   UNL     1      50.175 162.543  32.393  0.00  0.00    +0.001 C 
ATOM     12  C   UNL     1      48.815 162.670  32.177  0.00  0.00    +0.001 C 
ATOM     13  C   UNL     1      48.170 161.623  31.556  0.00  0.00    +0.008 C 
ATOM     14  N   UNL     1      50.908 159.187  30.968  0.00  0.00    -0.312 N 
ATOM     15  H   UNL     1      51.872 159.194  31.167  0.00  0.00    +0.152 HD
ENDROOT
TORSDOF 0
