REMARK  Name = =
REMARK  0 active torsions:
REMARK  status: ('A' for Active; 'I' for Inactive)
REMARK                            x       y       z     vdW  Elec       q    Type
REMARK                         _______ _______ _______ _____ _____    ______ ____
ROOT
ATOM      1  C   UNL     1      52.176 156.317  28.151  0.00  0.00    +0.019 C 
ATOM      2  C   UNL     1      52.656 157.290  27.295  0.00  0.00    +0.099 C 
ATOM      3  N   UNL     1      53.241 156.861  26.162  0.00  0.00    -0.242 NA
ATOM      4  C   UNL     1      53.361 155.564  25.860  0.00  0.00    +0.099 C 
ATOM      5  C   UNL     1      52.886 154.606  26.704  0.00  0.00    +0.021 C 
ATOM      6  C   UNL     1      52.273 154.965  27.886  0.00  0.00    +0.003 C 
ATOM      7  C   UNL     1      51.793 153.998  28.741  0.00  0.00    +0.000 C 
ATOM      8  C   UNL     1      51.179 154.365  29.924  0.00  0.00    +0.000 C 
ATOM      9  C   UNL     1      51.079 155.712  30.193  0.00  0.00    +0.000 C 
ATOM     10  C   UNL     1      51.561 156.689  29.337  0.00  0.00    +0.002 C 
ENDROOT
TORSDOF 0
