REMARK  Name = =
REMARK  0 active torsions:
REMARK  status: ('A' for Active; 'I' for Inactive)
REMARK                            x       y       z     vdW  Elec       q    Type
REMARK                         _______ _______ _______ _____ _____    ______ ____
ROOT
ATOM      1  C   UNL     1      51.792 155.535  27.957  0.00  0.00    +0.180 C 
ATOM      2  N   UNL     1      51.520 154.406  27.398  0.00  0.00    -0.224 NA
ATOM      3  C   UNL     1      52.384 154.162  26.265  0.00  0.00    +0.252 C 
ATOM      4  N   UNL     1      53.204 155.346  26.264  0.00  0.00    -0.240 NA
ATOM      5  C   UNL     1      52.824 156.108  27.259  0.00  0.00    +0.133 C 
ATOM      6  C   UNL     1      53.260 157.339  27.716  0.00  0.00    +0.122 C 
ATOM      7  N   UNL     1      52.707 157.942  28.780  0.00  0.00    -0.221 NA
ATOM      8  C   UNL     1      51.698 157.377  29.460  0.00  0.00    +0.200 C 
ATOM      9  N   UNL     1      51.266 156.184  29.028  0.00  0.00    -0.204 NA
ENDROOT
TORSDOF 0
