REMARK  Name = =
REMARK  4 active torsions:
REMARK  status: ('A' for Active; 'I' for Inactive)
REMARK    1  A    between atoms: N_1  and  C_3
REMARK    2  A    between atoms: N_1  and  S_12
REMARK    3  A    between atoms: S_12  and  N_15
REMARK    4  A    between atoms: C_16  and  O_18
REMARK                            x       y       z     vdW  Elec       q    Type
REMARK                         _______ _______ _______ _____ _____    ______ ____
ROOT
ATOM      1  N   UNL     1      52.303 154.094  26.961  0.00  0.00    -0.186 N 
ATOM      2  H   UNL     1      52.266 153.111  26.927  0.00  0.00    +0.177 HD
ENDROOT
BRANCH   1   4
ATOM      3  C   UNL     1      53.723 154.253  24.948  0.00  0.00    +0.033 C 
ATOM      4  C   UNL     1      52.935 154.829  25.921  0.00  0.00    +0.148 C 
ATOM      5  N   UNL     1      52.784 156.182  25.870  0.00  0.00    -0.228 NA
ATOM      6  C   UNL     1      53.346 156.967  24.948  0.00  0.00    +0.100 C 
ATOM      7  C   UNL     1      54.128 156.409  23.983  0.00  0.00    +0.021 C 
ATOM      8  C   UNL     1      54.310 155.046  23.993  0.00  0.00    +0.004 C 
ATOM      9  C   UNL     1      55.116 154.464  23.027  0.00  0.00    +0.000 C 
ATOM     10  C   UNL     1      55.315 153.118  23.041  0.00  0.00    +0.000 C 
ATOM     11  C   UNL     1      54.728 152.327  23.997  0.00  0.00    +0.000 C 
ATOM     12  C   UNL     1      53.923 152.869  24.968  0.00  0.00    +0.003 C 
ENDBRANCH   1   4
BRANCH   1  13
ATOM     13  S   UNL     1      51.605 154.950  28.278  0.00  0.00    +0.130 S 
ATOM     14  O   UNL     1      50.110 155.067  28.128  0.00  0.00    -0.135 OA
ATOM     15  O   UNL     1      51.899 154.153  29.539  0.00  0.00    -0.135 OA
BRANCH  13  16
ATOM     16  N   UNL     1      52.328 156.515  28.392  0.00  0.00    -0.138 N 
ATOM     17  C   UNL     1      51.556 157.582  28.966  0.00  0.00    +0.418 C 
ATOM     18  O   UNL     1      50.384 157.300  29.354  0.00  0.00    -0.225 OA
ATOM     19  H   UNL     1      53.246 156.672  28.072  0.00  0.00    +0.181 HD
BRANCH  17  20
ATOM     20  O   UNL     1      52.024 158.877  29.110  0.00  0.00    -0.465 OA
ATOM     21  H   UNL     1      52.890 159.097  28.826  0.00  0.00    +0.297 HD
ENDBRANCH  17  20
ENDBRANCH  13  16
ENDBRANCH   1  13
TORSDOF 4
