REMARK  Name = =
REMARK  3 active torsions:
REMARK  status: ('A' for Active; 'I' for Inactive)
REMARK    1  A    between atoms: C_3  and  C_10
REMARK    2  A    between atoms: N_11  and  O_12
REMARK    3  A    between atoms: O_12  and  C_13
REMARK                            x       y       z     vdW  Elec       q    Type
REMARK                         _______ _______ _______ _____ _____    ______ ____
ROOT
ATOM      1  C   UNL     1      51.089 155.874  29.296  0.00  0.00    +0.181 C 
ATOM      2  N   UNL     1      51.214 154.637  28.967  0.00  0.00    -0.222 NA
ATOM      3  C   UNL     1      52.501 154.498  28.357  0.00  0.00    +0.252 C 
ATOM      4  N   UNL     1      53.038 155.847  28.414  0.00  0.00    -0.238 NA
ATOM      5  C   UNL     1      52.195 156.623  28.964  0.00  0.00    +0.133 C 
ATOM      6  C   UNL     1      52.185 157.990  29.271  0.00  0.00    +0.122 C 
ATOM      7  N   UNL     1      51.103 158.511  29.873  0.00  0.00    -0.221 NA
ATOM      8  C   UNL     1      50.029 157.774  30.193  0.00  0.00    +0.200 C 
ATOM      9  N   UNL     1      50.048 156.472  29.897  0.00  0.00    -0.204 NA
ENDROOT
BRANCH   3  10
ATOM     10  C   UNL     1      52.404 153.994  26.975  0.00  0.00    +0.163 C 
ATOM     11  N   UNL     1      53.238 154.381  26.094  0.00  0.00    -0.071 NA
BRANCH  11  12
ATOM     12  O   UNL     1      53.267 154.004  24.795  0.00  0.00    -0.299 OA
BRANCH  12  13
ATOM     13  C   UNL     1      54.405 153.824  24.045  0.00  0.00    +0.423 C 
ATOM     14  O   UNL     1      55.495 154.264  24.476  0.00  0.00    -0.224 OA
ATOM     15  N   UNL     1      54.278 153.137  22.805  0.00  0.00    -0.293 N 
ATOM     16  H   UNL     1      55.071 152.989  22.241  0.00  0.00    +0.148 HD
ATOM     17  H   UNL     1      53.397 152.810  22.512  0.00  0.00    +0.148 HD
ENDBRANCH  12  13
ENDBRANCH  11  12
ENDBRANCH   3  10
TORSDOF 3
