REMARK  Name = =
REMARK  3 active torsions:
REMARK  status: ('A' for Active; 'I' for Inactive)
REMARK    1  A    between atoms: C_1  and  N_30
REMARK    2  A    between atoms: C_9  and  C_16
REMARK    3  A    between atoms: N_30  and  O_31
REMARK                            x       y       z     vdW  Elec       q    Type
REMARK                         _______ _______ _______ _____ _____    ______ ____
ROOT
ATOM      1  C   UNL     1      54.173 153.503  24.424  0.00  0.00    +0.167 C 
ATOM      2  C   UNL     1      53.448 153.749  25.590  0.00  0.00    +0.116 C 
ATOM      3  C   UNL     1      53.213 155.058  25.967  0.00  0.00    +0.160 C 
ATOM      4  C   UNL     1      53.717 156.067  25.157  0.00  0.00    +0.038 C 
ATOM      5  C   UNL     1      54.431 155.832  24.008  0.00  0.00    +0.000 C 
ATOM      6  C   UNL     1      54.657 154.522  23.645  0.00  0.00    -0.000 C 
ATOM      7  O   UNL     1      52.531 155.353  27.062  0.00  0.00    -0.454 OA
ATOM      8  C   UNL     1      52.036 154.443  27.858  0.00  0.00    +0.151 C 
ATOM      9  C   UNL     1      51.329 154.730  28.997  0.00  0.00    +0.143 C 
ATOM     10  C   UNL     1      50.834 153.723  29.792  0.00  0.00    +0.184 C 
ATOM     11  O   UNL     1      50.183 153.971  30.838  0.00  0.00    -0.291 OA
ATOM     12  C   UNL     1      51.034 152.379  29.470  0.00  0.00    +0.040 C 
ATOM     13  C   UNL     1      51.749 152.089  28.320  0.00  0.00    +0.025 C 
ATOM     14  C   UNL     1      52.276 153.034  27.474  0.00  0.00    +0.112 C 
ATOM     15  N   UNL     1      52.970 152.751  26.357  0.00  0.00    -0.242 NA
ENDROOT
BRANCH   9  16
ATOM     16  C   UNL     1      51.089 156.112  29.382  0.00  0.00    -0.007 C 
ATOM     17  C   UNL     1      52.079 157.037  29.512  0.00  0.00    +0.012 C 
ATOM     18  C   UNL     1      51.839 158.372  29.886  0.00  0.00    +0.054 C 
ATOM     19  C   UNL     1      50.535 158.722  30.122  0.00  0.00    +0.043 C 
ATOM     20  C   UNL     1      49.533 157.817  29.999  0.00  0.00    +0.007 C 
ATOM     21  C   UNL     1      49.785 156.524  29.635  0.00  0.00    -0.003 C 
ATOM     22  S   UNL     1      50.163 160.427  30.606  0.00  0.00    -0.084 S 
ATOM     23  C   UNL     1      51.710 161.279  30.657  0.00  0.00    +0.043 C 
ATOM     24  C   UNL     1      52.866 160.624  30.357  0.00  0.00    +0.054 C 
ATOM     25  C   UNL     1      54.052 161.370  30.421  0.00  0.00    +0.015 C 
ATOM     26  C   UNL     1      54.067 162.698  30.766  0.00  0.00    +0.001 C 
ATOM     27  C   UNL     1      52.868 163.330  31.064  0.00  0.00    +0.001 C 
ATOM     28  C   UNL     1      51.710 162.590  31.000  0.00  0.00    +0.008 C 
ATOM     29  N   UNL     1      52.926 159.258  29.995  0.00  0.00    -0.312 N 
ATOM     30  H   UNL     1      53.818 158.890  29.800  0.00  0.00    +0.152 HD
ENDBRANCH   9  16
BRANCH   1  31
ATOM     31  N   UNL     1      54.427 152.164  24.016  0.00  0.00    -0.078 NA
BRANCH  31  32
ATOM     32  O   UNL     1      54.002 151.903  22.770  0.00  0.00    -0.294 OA
ATOM     33  H   UNL     1      54.201 150.980  22.547  0.00  0.00    +0.238 HD
ENDBRANCH  31  32
ENDBRANCH   1  31
TORSDOF 3
