REMARK  Name = =
REMARK  8 active torsions:
REMARK  status: ('A' for Active; 'I' for Inactive)
REMARK    1  A    between atoms: N_1  and  C_3
REMARK    2  A    between atoms: N_1  and  S_12
REMARK    3  A    between atoms: N_1  and  S_19
REMARK    4  A    between atoms: S_12  and  N_15
REMARK    5  A    between atoms: C_16  and  O_18
REMARK    6  A    between atoms: S_19  and  P_20
REMARK    7  A    between atoms: P_20  and  O_22
REMARK    8  A    between atoms: P_20  and  O_23
REMARK                            x       y       z     vdW  Elec       q    Type
REMARK                         _______ _______ _______ _____ _____    ______ ____
ROOT
ATOM      1  N   UNL     1      52.519 154.499  26.549  0.00  0.00    -0.103 N 
ENDROOT
BRANCH   1   3
ATOM      2  C   UNL     1      53.654 152.453  25.850  0.00  0.00    +0.034 C 
ATOM      3  C   UNL     1      53.658 153.797  26.065  0.00  0.00    +0.163 C 
ATOM      4  N   UNL     1      54.775 154.549  25.823  0.00  0.00    -0.227 NA
ATOM      5  C   UNL     1      55.918 153.998  25.364  0.00  0.00    +0.100 C 
ATOM      6  C   UNL     1      55.935 152.640  25.140  0.00  0.00    +0.021 C 
ATOM      7  C   UNL     1      54.802 151.857  25.382  0.00  0.00    +0.004 C 
ATOM      8  C   UNL     1      54.807 150.495  25.161  0.00  0.00    +0.000 C 
ATOM      9  C   UNL     1      53.684 149.736  25.404  0.00  0.00    +0.000 C 
ATOM     10  C   UNL     1      52.534 150.323  25.873  0.00  0.00    +0.000 C 
ATOM     11  C   UNL     1      52.544 151.691  26.089  0.00  0.00    +0.003 C 
ENDBRANCH   1   3
BRANCH   1  12
ATOM     12  S   UNL     1      52.537 155.056  28.171  0.00  0.00    +0.142 S 
ATOM     13  O   UNL     1      51.204 154.742  28.803  0.00  0.00    -0.134 OA
ATOM     14  O   UNL     1      53.587 154.278  28.910  0.00  0.00    -0.134 OA
BRANCH  12  15
ATOM     15  N   UNL     1      52.888 156.712  28.317  0.00  0.00    -0.137 N 
ATOM     16  C   UNL     1      52.331 157.447  29.386  0.00  0.00    +0.418 C 
ATOM     17  O   UNL     1      51.577 156.898  30.234  0.00  0.00    -0.225 OA
ATOM     18  H   UNL     1      53.475 157.155  27.662  0.00  0.00    +0.181 HD
BRANCH  16  19
ATOM     19  O   UNL     1      52.576 158.813  29.570  0.00  0.00    -0.465 OA
ATOM     20  H   UNL     1      53.129 159.275  28.971  0.00  0.00    +0.297 HD
ENDBRANCH  16  19
ENDBRANCH  12  15
ENDBRANCH   1  12
BRANCH   1  21
ATOM     21  S   UNL     1      51.178 154.743  25.455  0.00  0.00    +0.089 S 
BRANCH  21  22
ATOM     22  P   UNL     1      51.700 155.809  23.728  0.00  0.00    +0.406 P 
ATOM     23  O   UNL     1      52.614 154.975  22.829  0.00  0.00    -0.245 OA
BRANCH  22  24
ATOM     24  O   UNL     1      52.493 157.244  24.046  0.00  0.00    -0.315 OA
ATOM     25  H   UNL     1      53.296 157.063  24.559  0.00  0.00    +0.221 HD
ENDBRANCH  22  24
BRANCH  22  26
ATOM     26  O   UNL     1      50.272 156.054  22.826  0.00  0.00    -0.315 OA
ATOM     27  H   UNL     1      49.647 156.582  23.347  0.00  0.00    +0.221 HD
ENDBRANCH  22  26
ENDBRANCH  21  22
ENDBRANCH   1  21
TORSDOF 8
