REMARK  Name = =
REMARK  12 active torsions:
REMARK  status: ('A' for Active; 'I' for Inactive)
REMARK    1  A    between atoms: N_1  and  C_3
REMARK    2  A    between atoms: N_1  and  S_12
REMARK    3  A    between atoms: N_1  and  S_19
REMARK    4  A    between atoms: S_12  and  N_15
REMARK    5  A    between atoms: C_16  and  O_18
REMARK    6  A    between atoms: S_19  and  P_20
REMARK    7  A    between atoms: S_19  and  P_25
REMARK    8  A    between atoms: P_20  and  O_22
REMARK    9  A    between atoms: P_20  and  O_23
REMARK   10  A    between atoms: P_20  and  S_24
REMARK   11  A    between atoms: P_25  and  O_27
REMARK   12  A    between atoms: P_25  and  O_28
REMARK                            x       y       z     vdW  Elec       q    Type
REMARK                         _______ _______ _______ _____ _____    ______ ____
ROOT
ATOM      1  N   UNL     1      53.647 153.742  26.300  0.00  0.00    -0.118 N 
ENDROOT
BRANCH   1   3
ATOM      2  C   UNL     1      54.176 151.464  25.662  0.00  0.00    +0.034 C 
ATOM      3  C   UNL     1      54.632 152.717  25.992  0.00  0.00    +0.161 C 
ATOM      4  N   UNL     1      55.932 152.955  26.025  0.00  0.00    -0.227 NA
ATOM      5  C   UNL     1      56.853 152.014  25.744  0.00  0.00    +0.100 C 
ATOM      6  C   UNL     1      56.469 150.737  25.405  0.00  0.00    +0.021 C 
ATOM      7  C   UNL     1      55.103 150.481  25.370  0.00  0.00    +0.004 C 
ATOM      8  C   UNL     1      54.637 149.208  25.033  0.00  0.00    +0.000 C 
ATOM      9  C   UNL     1      53.284 148.953  24.997  0.00  0.00    +0.000 C 
ATOM     10  C   UNL     1      52.388 149.960  25.294  0.00  0.00    +0.000 C 
ATOM     11  C   UNL     1      52.805 151.214  25.626  0.00  0.00    +0.003 C 
ENDBRANCH   1   3
BRANCH   1  12
ATOM     12  S   UNL     1      53.047 153.664  27.919  0.00  0.00    +0.141 S 
ATOM     13  O   UNL     1      54.084 152.951  28.778  0.00  0.00    -0.134 OA
ATOM     14  O   UNL     1      51.749 152.890  28.014  0.00  0.00    -0.134 OA
BRANCH  12  15
ATOM     15  N   UNL     1      52.720 155.212  28.576  0.00  0.00    -0.137 N 
ATOM     16  C   UNL     1      51.819 155.342  29.641  0.00  0.00    +0.418 C 
ATOM     17  O   UNL     1      51.247 154.324  30.119  0.00  0.00    -0.225 OA
ATOM     18  H   UNL     1      53.164 156.009  28.206  0.00  0.00    +0.181 HD
BRANCH  16  19
ATOM     19  O   UNL     1      51.493 156.570  30.239  0.00  0.00    -0.465 OA
ATOM     20  H   UNL     1      51.886 157.362  29.928  0.00  0.00    +0.297 HD
ENDBRANCH  16  19
ENDBRANCH  12  15
ENDBRANCH   1  12
BRANCH   1  21
ATOM     21  S   UNL     1      53.170 154.817  25.252  0.00  0.00    +0.011 S 
ATOM     22  H   UNL     1      52.665 153.999  24.290  0.00  0.00    +0.122 HD
BRANCH  21  23
ATOM     23  P   UNL     1      51.644 155.547  25.206  0.00  0.00    +0.391 P 
ATOM     24  O   UNL     1      50.946 155.751  26.530  0.00  0.00    -0.246 OA
BRANCH  23  25
ATOM     25  O   UNL     1      50.517 154.695  24.228  0.00  0.00    -0.316 OA
ATOM     26  H   UNL     1      50.426 153.787  24.556  0.00  0.00    +0.221 HD
ENDBRANCH  23  25
BRANCH  23  27
ATOM     27  O   UNL     1      51.688 157.117  24.499  0.00  0.00    -0.316 OA
ATOM     28  H   UNL     1      52.308 157.677  24.993  0.00  0.00    +0.221 HD
ENDBRANCH  23  27
ENDBRANCH  21  23
BRANCH  21  29
ATOM     29  P   UNL     1      54.603 155.824  24.731  0.00  0.00    +0.217 P 
BRANCH  29  30
ATOM     30  O   UNL     1      56.186 156.044  25.075  0.00  0.00    -0.340 OA
ATOM     31  H   UNL     1      56.414 155.550  25.878  0.00  0.00    +0.218 HD
ENDBRANCH  29  30
BRANCH  29  32
ATOM     32  O   UNL     1      55.368 154.871  23.530  0.00  0.00    -0.340 OA
ATOM     33  H   UNL     1      55.101 153.944  23.634  0.00  0.00    +0.218 HD
ENDBRANCH  29  32
BRANCH  29  34
ATOM     34  S   UNL     1      55.787 157.002  23.534  0.00  0.00    -0.092 S 
ATOM     35  H   UNL     1      55.711 158.294  23.952  0.00  0.00    +0.111 HD
ENDBRANCH  29  34
ENDBRANCH  21  29
ENDBRANCH   1  21
TORSDOF 12
REMARK  Name = =
REMARK  12 active torsions:
REMARK  status: ('A' for Active; 'I' for Inactive)
REMARK    1  A    between atoms: N_1  and  C_3
REMARK    2  A    between atoms: N_1  and  S_12
REMARK    3  A    between atoms: N_1  and  S_19
REMARK    4  A    between atoms: S_12  and  N_15
REMARK    5  A    between atoms: C_16  and  O_18
REMARK    6  A    between atoms: S_19  and  P_20
REMARK    7  A    between atoms: S_19  and  P_25
REMARK    8  A    between atoms: P_20  and  O_22
REMARK    9  A    between atoms: P_20  and  O_23
REMARK   10  A    between atoms: P_20  and  S_24
REMARK   11  A    between atoms: P_25  and  O_27
REMARK   12  A    between atoms: P_25  and  O_28
REMARK                            x       y       z     vdW  Elec       q    Type
REMARK                         _______ _______ _______ _____ _____    ______ ____
ROOT
ATOM      1  O   HOH     1      54.421 156.330  26.055  0.00  0.00    -0.253 OA
ATOM      2  H   HOH     0      55.391 156.330  26.055  0.00  0.00    +0.253 HD
ENDROOT
TORSDOF 0
