REMARK  Name = =
REMARK  3 active torsions:
REMARK  status: ('A' for Active; 'I' for Inactive)
REMARK    1  A    between atoms: C_1  and  N_31
REMARK    2  A    between atoms: C_9  and  C_16
REMARK    3  A    between atoms: N_31  and  O_32
REMARK                            x       y       z     vdW  Elec       q    Type
REMARK                         _______ _______ _______ _____ _____    ______ ____
ROOT
ATOM      1  C   UNL     1      53.875 153.080  24.497  0.00  0.00    +0.167 C 
ATOM      2  C   UNL     1      53.336 153.487  25.725  0.00  0.00    +0.116 C 
ATOM      3  C   UNL     1      53.259 154.826  26.035  0.00  0.00    +0.160 C 
ATOM      4  C   UNL     1      53.735 155.720  25.082  0.00  0.00    +0.038 C 
ATOM      5  C   UNL     1      54.263 155.314  23.878  0.00  0.00    +0.000 C 
ATOM      6  C   UNL     1      54.344 153.976  23.561  0.00  0.00    -0.000 C 
ATOM      7  O   UNL     1      52.760 155.246  27.174  0.00  0.00    -0.454 OA
ATOM      8  C   UNL     1      52.331 154.345  28.022  0.00  0.00    +0.151 C 
ATOM      9  C   UNL     1      51.803 154.768  29.228  0.00  0.00    +0.145 C 
ATOM     10  C   UNL     1      51.348 153.819  30.126  0.00  0.00    +0.184 C 
ATOM     11  O   UNL     1      50.871 154.251  31.220  0.00  0.00    -0.291 OA
ATOM     12  C   UNL     1      51.410 152.469  29.849  0.00  0.00    +0.040 C 
ATOM     13  C   UNL     1      51.926 151.978  28.664  0.00  0.00    +0.025 C 
ATOM     14  C   UNL     1      52.392 152.912  27.738  0.00  0.00    +0.112 C 
ATOM     15  N   UNL     1      52.906 152.510  26.565  0.00  0.00    -0.242 NA
ENDROOT
BRANCH   9  16
ATOM     16  C   UNL     1      51.747 156.194  29.499  0.00  0.00    +0.021 C 
ATOM     17  C   UNL     1      50.736 156.767  30.236  0.00  0.00    +0.151 C 
ATOM     18  C   UNL     1      50.657 158.127  30.510  0.00  0.00    +0.082 C 
ATOM     19  C   UNL     1      51.654 158.920  30.007  0.00  0.00    +0.045 C 
ATOM     20  C   UNL     1      52.657 158.391  29.284  0.00  0.00    +0.008 C 
ATOM     21  C   UNL     1      52.733 157.020  29.009  0.00  0.00    -0.001 C 
ATOM     22  S   UNL     1      51.648 160.675  30.301  0.00  0.00    -0.084 S 
ATOM     23  C   UNL     1      50.184 160.991  31.283  0.00  0.00    +0.043 C 
ATOM     24  C   UNL     1      49.367 159.954  31.630  0.00  0.00    +0.054 C 
ATOM     25  C   UNL     1      48.234 160.242  32.398  0.00  0.00    +0.015 C 
ATOM     26  C   UNL     1      47.906 161.506  32.815  0.00  0.00    +0.001 C 
ATOM     27  C   UNL     1      48.760 162.524  32.441  0.00  0.00    +0.001 C 
ATOM     28  C   UNL     1      49.878 162.242  31.684  0.00  0.00    +0.008 C 
ATOM     29  N   UNL     1      49.574 158.606  31.277  0.00  0.00    -0.310 N 
ATOM     30  F   UNL     1      49.779 155.902  30.700  0.00  0.00    -0.203 F 
ATOM     31  H   UNL     1      48.912 157.948  31.590  0.00  0.00    +0.152 HD
ENDBRANCH   9  16
BRANCH   1  32
ATOM     32  N   UNL     1      53.938 151.700  24.215  0.00  0.00    -0.078 NA
BRANCH  32  33
ATOM     33  O   UNL     1      54.463 151.491  22.987  0.00  0.00    -0.294 OA
ATOM     34  H   UNL     1      54.499 150.538  22.809  0.00  0.00    +0.238 HD
ENDBRANCH  32  33
ENDBRANCH   1  32
TORSDOF 3
