MODEL 1
REMARK VINA RESULT:    -9.013      0.000      0.000
REMARK INTER + INTRA:         -11.043
REMARK INTER:                 -11.121
REMARK INTRA:                   0.078
REMARK UNBOUND:                 0.078
REMARK  Name = =
REMARK  4 active torsions:
REMARK  status: ('A' for Active; 'I' for Inactive)
REMARK    1  A    between atoms: N_1  and  C_7
REMARK    2  A    between atoms: C_2  and  C_19
REMARK    3  A    between atoms: C_9  and  N_13
REMARK    4  A    between atoms: C_19  and  C_21
REMARK                            x       y       z     vdW  Elec       q    Type
REMARK                         _______ _______ _______ _____ _____    ______ ____
ROOT
ATOM      1  N   UNL     1      52.693 155.709  27.166  0.00  0.00    -0.260 NA
ATOM      2  C   UNL     1      52.248 154.401  26.735  0.00  0.00    +0.129 C 
ATOM      3  C   UNL     1      52.405 154.375  25.222  0.00  0.00    +0.164 C 
ATOM      4  O   UNL     1      52.196 155.622  24.664  0.00  0.00    -0.350 OA
ATOM      5  C   UNL     1      53.153 156.558  25.003  0.00  0.00    +0.160 C 
ATOM      6  C   UNL     1      53.769 156.310  26.362  0.00  0.00    +0.105 C 
ENDROOT
BRANCH   1   7
ATOM      7  C   UNL     1      52.161 156.416  28.279  0.00  0.00    +0.117 C 
ATOM      8  C   UNL     1      52.372 157.666  28.651  0.00  0.00    +0.040 C 
ATOM      9  C   UNL     1      51.618 157.976  29.861  0.00  0.00    +0.068 C 
ATOM     10  C   UNL     1      50.554 156.912  29.908  0.00  0.00    +0.082 C 
ATOM     11  C   UNL     1      51.231 155.780  29.234  0.00  0.00    +0.166 C 
ATOM     12  O   UNL     1      51.079 154.546  29.406  0.00  0.00    -0.295 OA
BRANCH   9  13
ATOM     13  N   UNL     1      51.105 159.299  29.925  0.00  0.00    -0.260 NA
ATOM     14  C   UNL     1      52.019 160.318  30.271  0.00  0.00    +0.146 C 
ATOM     15  N   UNL     1      51.819 160.707  31.671  0.00  0.00    -0.284 NA
ATOM     16  C   UNL     1      50.543 161.398  31.701  0.00  0.00    +0.071 C 
ATOM     17  C   UNL     1      49.455 160.451  31.349  0.00  0.00    +0.034 C 
ATOM     18  C   UNL     1      49.760 159.474  30.278  0.00  0.00    +0.075 C 
ATOM     19  H   UNL     1      52.568 161.328  31.979  0.00  0.00    +0.125 HD
ENDBRANCH   9  13
ENDBRANCH   1   7
BRANCH   2  20
ATOM     20  C   UNL     1      53.135 153.343  27.334  0.00  0.00    +0.081 C 
ATOM     21  N   UNL     1      53.531 153.485  28.549  0.00  0.00    -0.300 NA
ATOM     22  H   UNL     1      53.254 154.274  29.069  0.00  0.00    +0.186 HD
BRANCH  20  23
ATOM     23  C   UNL     1      53.510 152.197  26.510  0.00  0.00    +0.090 C 
ATOM     24  N   UNL     1      52.758 151.172  26.436  0.00  0.00    -0.189 NA
ATOM     25  N   UNL     1      53.052 150.049  25.672  0.00  0.00    -0.258 N 
ATOM     26  C   UNL     1      53.915 150.251  24.524  0.00  0.00    +0.107 C 
ATOM     27  C   UNL     1      55.074 151.124  24.869  0.00  0.00    +0.029 C 
ATOM     28  C   UNL     1      54.781 152.268  25.769  0.00  0.00    +0.050 C 
ATOM     29  H   UNL     1      52.692 149.161  25.898  0.00  0.00    +0.169 HD
ENDBRANCH  20  23
ENDBRANCH   2  20
TORSDOF 4
ENDMDL
