REMARK  Name = =
REMARK  3 active torsions:
REMARK  status: ('A' for Active; 'I' for Inactive)
REMARK    1  A    between atoms: C_4  and  C_10
REMARK    2  A    between atoms: C_5  and  S_9
REMARK    3  A    between atoms: C_10  and  O_12
REMARK                            x       y       z     vdW  Elec       q    Type
REMARK                         _______ _______ _______ _____ _____    ______ ____
ROOT
ATOM      1  C   UNL     1      51.684 156.172  28.035  0.00  0.00    +0.106 C 
ATOM      2  C   UNL     1      52.405 156.772  26.857  0.00  0.00    +0.094 C 
ATOM      3  N   UNL     1      53.606 156.552  27.698  0.00  0.00    -0.254 N 
ATOM      4  C   UNL     1      54.497 157.625  27.485  0.00  0.00    +0.131 C 
ATOM      5  C   UNL     1      53.862 158.656  26.944  0.00  0.00    +0.021 C 
ATOM      6  C   UNL     1      52.410 158.282  26.760  0.00  0.00    +0.054 C 
ATOM      7  C   UNL     1      52.965 155.374  28.128  0.00  0.00    +0.231 C 
ATOM      8  O   UNL     1      53.340 154.237  28.428  0.00  0.00    -0.274 OA
ENDROOT
BRANCH   5   9
ATOM      9  S   UNL     1      54.584 160.229  26.500  0.00  0.00    -0.144 S 
ATOM     10  H   UNL     1      55.910 160.221  26.803  0.00  0.00    +0.107 HD
ENDBRANCH   5   9
BRANCH   4  11
ATOM     11  C   UNL     1      55.924 157.576  27.826  0.00  0.00    +0.352 C 
ATOM     12  O   UNL     1      56.449 156.556  28.338  0.00  0.00    -0.244 OA
BRANCH  11  13
ATOM     13  O   UNL     1      56.758 158.660  27.596  0.00  0.00    -0.476 OA
ATOM     14  H   UNL     1      56.413 159.444  27.216  0.00  0.00    +0.295 HD
ENDBRANCH  11  13
ENDBRANCH   4  11
TORSDOF 3
