REMARK  Name = =
REMARK  4 active torsions:
REMARK  status: ('A' for Active; 'I' for Inactive)
REMARK    1  A    between atoms: C_1  and  C_9
REMARK    2  A    between atoms: C_4  and  C_15
REMARK    3  A    between atoms: C_5  and  S_14
REMARK    4  A    between atoms: C_15  and  O_17
REMARK                            x       y       z     vdW  Elec       q    Type
REMARK                         _______ _______ _______ _____ _____    ______ ____
ROOT
ATOM      1  C   UNL     1      53.490 153.032  27.152  0.00  0.00    +0.172 C 
ATOM      2  C   UNL     1      52.791 153.887  26.085  0.00  0.00    +0.102 C 
ATOM      3  N   UNL     1      54.099 153.825  25.410  0.00  0.00    -0.253 N 
ATOM      4  C   UNL     1      54.234 155.053  24.728  0.00  0.00    +0.131 C 
ATOM      5  C   UNL     1      53.440 155.974  25.290  0.00  0.00    +0.021 C 
ATOM      6  C   UNL     1      52.719 155.341  26.422  0.00  0.00    +0.055 C 
ATOM      7  C   UNL     1      54.237 152.529  25.978  0.00  0.00    +0.239 C 
ATOM      8  O   UNL     1      54.798 151.511  25.514  0.00  0.00    -0.274 OA
ENDROOT
BRANCH   1   9
ATOM      9  C   UNL     1      52.514 152.099  27.742  0.00  0.00    +0.238 C 
ATOM     10  O   UNL     1      51.908 152.293  28.826  0.00  0.00    -0.274 OA
ATOM     11  N   UNL     1      52.225 150.877  27.043  0.00  0.00    -0.248 N 
ATOM     12  C   UNL     1      51.296 149.923  27.544  0.00  0.00    +0.306 C 
ATOM     13  O   UNL     1      50.718 150.156  28.619  0.00  0.00    -0.265 OA
ATOM     14  H   UNL     1      52.684 150.694  26.191  0.00  0.00    +0.158 HD
ENDBRANCH   1   9
BRANCH   5  15
ATOM     15  S   UNL     1      53.328 157.658  24.711  0.00  0.00    -0.144 S 
ATOM     16  H   UNL     1      54.157 157.827  23.646  0.00  0.00    +0.107 HD
ENDBRANCH   5  15
BRANCH   4  17
ATOM     17  C   UNL     1      55.097 155.277  23.600  0.00  0.00    +0.352 C 
ATOM     18  O   UNL     1      55.419 154.320  22.860  0.00  0.00    -0.244 OA
BRANCH  17  19
ATOM     19  O   UNL     1      55.586 156.523  23.303  0.00  0.00    -0.476 OA
ATOM     20  H   UNL     1      55.360 157.256  23.841  0.00  0.00    +0.295 HD
ENDBRANCH  17  19
ENDBRANCH   4  17
TORSDOF 4
