REMARK  Name = =
REMARK  6 active torsions:
REMARK  status: ('A' for Active; 'I' for Inactive)
REMARK    1  A    between atoms: C_1  and  C_9
REMARK    2  A    between atoms: C_1  and  S_18
REMARK    3  A    between atoms: C_4  and  C_15
REMARK    4  A    between atoms: C_5  and  S_14
REMARK    5  A    between atoms: C_15  and  O_17
REMARK    6  A    between atoms: S_18  and  S_19
REMARK                            x       y       z     vdW  Elec       q    Type
REMARK                         _______ _______ _______ _____ _____    ______ ____
ROOT
ATOM      1  C   UNL     1      52.931 154.593  25.290  0.00  0.00    +0.203 C 
ATOM      2  C   UNL     1      53.248 153.572  26.318  0.00  0.00    +0.111 C 
ATOM      3  N   UNL     1      53.166 152.564  25.258  0.00  0.00    -0.252 N 
ATOM      4  C   UNL     1      52.850 151.349  25.916  0.00  0.00    +0.132 C 
ATOM      5  C   UNL     1      52.243 151.601  27.061  0.00  0.00    +0.021 C 
ATOM      6  C   UNL     1      52.129 153.079  27.207  0.00  0.00    +0.056 C 
ATOM      7  C   UNL     1      53.467 153.566  24.322  0.00  0.00    +0.249 C 
ATOM      8  O   UNL     1      53.961 153.618  23.178  0.00  0.00    -0.273 OA
ENDROOT
BRANCH   1   9
ATOM      9  C   UNL     1      53.802 155.788  25.393  0.00  0.00    +0.248 C 
ATOM     10  O   UNL     1      53.663 156.581  26.356  0.00  0.00    -0.273 OA
ATOM     11  N   UNL     1      54.805 156.081  24.433  0.00  0.00    -0.247 N 
ATOM     12  C   UNL     1      55.638 157.244  24.539  0.00  0.00    +0.306 C 
ATOM     13  O   UNL     1      55.508 158.046  25.497  0.00  0.00    -0.265 OA
ATOM     14  H   UNL     1      54.933 155.469  23.673  0.00  0.00    +0.158 HD
ENDBRANCH   1   9
BRANCH   5  15
ATOM     15  S   UNL     1      51.680 150.335  28.193  0.00  0.00    -0.144 S 
ATOM     16  H   UNL     1      51.977 149.109  27.686  0.00  0.00    +0.107 HD
ENDBRANCH   5  15
BRANCH   4  17
ATOM     17  C   UNL     1      53.157 150.005  25.398  0.00  0.00    +0.352 C 
ATOM     18  O   UNL     1      52.532 149.012  25.827  0.00  0.00    -0.244 OA
BRANCH  17  19
ATOM     19  O   UNL     1      54.125 149.794  24.441  0.00  0.00    -0.476 OA
ATOM     20  H   UNL     1      54.611 150.518  24.099  0.00  0.00    +0.295 HD
ENDBRANCH  17  19
ENDBRANCH   4  17
BRANCH   1  21
ATOM     21  S   UNL     1      51.192 154.920  24.967  0.00  0.00    -0.068 S 
BRANCH  21  22
ATOM     22  S   UNL     1      50.898 155.748  23.021  0.00  0.00    -0.109 S 
ATOM     23  H   UNL     1      49.572 155.978  22.822  0.00  0.00    +0.114 HD
ENDBRANCH  21  22
ENDBRANCH   1  21
TORSDOF 6
