REMARK  Name = =
REMARK  7 active torsions:
REMARK  status: ('A' for Active; 'I' for Inactive)
REMARK    1  A    between atoms: C_1  and  C_9
REMARK    2  A    between atoms: C_1  and  S_18
REMARK    3  A    between atoms: C_4  and  C_15
REMARK    4  A    between atoms: C_5  and  S_14
REMARK    5  A    between atoms: C_15  and  O_17
REMARK    6  A    between atoms: P_20  and  O_22
REMARK    7  A    between atoms: P_20  and  O_23
REMARK                            x       y       z     vdW  Elec       q    Type
REMARK                         _______ _______ _______ _____ _____    ______ ____
ROOT
ATOM      1  C   UNL     1      53.275 153.908  27.265  0.00  0.00    +0.192 C 
ATOM      2  C   UNL     1      53.164 155.134  28.043  0.00  0.00    +0.110 C 
ATOM      3  N   UNL     1      51.886 154.628  28.498  0.00  0.00    -0.252 N 
ATOM      4  C   UNL     1      51.314 155.747  29.139  0.00  0.00    +0.132 C 
ATOM      5  C   UNL     1      51.808 156.873  28.646  0.00  0.00    +0.021 C 
ATOM      6  C   UNL     1      52.784 156.458  27.592  0.00  0.00    +0.056 C 
ATOM      7  C   UNL     1      52.077 153.331  27.987  0.00  0.00    +0.248 C 
ATOM      8  O   UNL     1      51.536 152.211  28.069  0.00  0.00    -0.273 OA
ENDROOT
BRANCH   1   9
ATOM      9  S   UNL     1      53.112 153.772  25.628  0.00  0.00    -0.121 S 
ATOM     10  S   UNL     1      54.487 154.425  24.779  0.00  0.00    -0.080 S 
ATOM     11  P   UNL     1      54.375 156.255  24.689  0.00  0.00    +0.300 P 
ATOM     12  O   UNL     1      52.968 156.563  24.182  0.00  0.00    -0.245 OA
ATOM     13  S   UNL     1      52.039 154.942  25.098  0.00  0.00    -0.038 S 
ATOM     14  H   UNL     1      52.832 152.458  25.414  0.00  0.00    +0.105 HD
ATOM     15  H   UNL     1      54.518 153.916  23.518  0.00  0.00    +0.112 HD
ATOM     16  H   UNL     1      51.187 154.372  24.204  0.00  0.00    +0.132 HD
BRANCH  11  17
ATOM     17  O   UNL     1      55.441 156.978  23.598  0.00  0.00    -0.327 OA
ATOM     18  H   UNL     1      56.354 156.810  23.878  0.00  0.00    +0.219 HD
ENDBRANCH  11  17
BRANCH  11  19
ATOM     19  O   UNL     1      54.645 156.962  26.204  0.00  0.00    -0.327 OA
ATOM     20  H   UNL     1      54.046 156.567  26.857  0.00  0.00    +0.219 HD
ENDBRANCH  11  19
ENDBRANCH   1   9
BRANCH   1  21
ATOM     21  C   UNL     1      54.444 153.130  27.782  0.00  0.00    +0.247 C 
ATOM     22  O   UNL     1      55.087 152.437  26.985  0.00  0.00    -0.273 OA
ATOM     23  N   UNL     1      54.841 153.154  29.130  0.00  0.00    -0.247 N 
ATOM     24  C   UNL     1      55.957 152.400  29.578  0.00  0.00    +0.306 C 
ATOM     25  O   UNL     1      56.619 151.692  28.778  0.00  0.00    -0.265 OA
ATOM     26  H   UNL     1      54.337 153.702  29.774  0.00  0.00    +0.158 HD
ENDBRANCH   1  21
BRANCH   5  27
ATOM     27  S   UNL     1      51.382 158.537  29.152  0.00  0.00    -0.144 S 
ATOM     28  H   UNL     1      50.452 158.485  30.143  0.00  0.00    +0.107 HD
ENDBRANCH   5  27
BRANCH   4  29
ATOM     29  C   UNL     1      50.297 155.715  30.218  0.00  0.00    +0.352 C 
ATOM     30  O   UNL     1      49.183 156.269  30.082  0.00  0.00    -0.244 OA
BRANCH  29  31
ATOM     31  O   UNL     1      50.550 155.070  31.411  0.00  0.00    -0.476 OA
ATOM     32  H   UNL     1      51.373 154.644  31.548  0.00  0.00    +0.295 HD
ENDBRANCH  29  31
ENDBRANCH   4  29
TORSDOF 7
