REMARK  Name = =
REMARK  15 active torsions:
REMARK  status: ('A' for Active; 'I' for Inactive)
REMARK    1  A    between atoms: C_1  and  C_9
REMARK    2  A    between atoms: C_1  and  S_18
REMARK    3  A    between atoms: C_4  and  C_15
REMARK    4  A    between atoms: C_5  and  S_14
REMARK    5  A    between atoms: C_15  and  O_17
REMARK    6  A    between atoms: S_18  and  S_19
REMARK    7  A    between atoms: S_18  and  S_30
REMARK    8  A    between atoms: S_19  and  P_20
REMARK    9  A    between atoms: P_20  and  O_22
REMARK   10  A    between atoms: P_20  and  O_23
REMARK   11  A    between atoms: O_23  and  C_24
REMARK   12  A    between atoms: C_24  and  C_26
REMARK   13  A    between atoms: C_26  and  O_27
REMARK   14  A    between atoms: C_26  and  N_28
REMARK   15  A    between atoms: N_28  and  O_29
REMARK                            x       y       z     vdW  Elec       q    Type
REMARK                         _______ _______ _______ _____ _____    ______ ____
ROOT
ATOM      1  C   UNL     1      51.979 155.621  28.180  0.00  0.00    +0.192 C 
ATOM      2  C   UNL     1      52.111 157.046  28.477  0.00  0.00    +0.110 C 
ATOM      3  N   UNL     1      50.782 157.093  29.112  0.00  0.00    -0.252 N 
ATOM      4  C   UNL     1      50.791 158.266  29.884  0.00  0.00    +0.132 C 
ATOM      5  C   UNL     1      52.030 158.675  30.118  0.00  0.00    +0.021 C 
ATOM      6  C   UNL     1      52.968 157.690  29.442  0.00  0.00    +0.056 C 
ATOM      7  C   UNL     1      50.503 155.862  28.426  0.00  0.00    +0.248 C 
ATOM      8  O   UNL     1      49.446 155.273  28.164  0.00  0.00    -0.273 OA
ENDROOT
BRANCH   1   9
ATOM      9  C   UNL     1      52.102 155.482  26.671  0.00  0.00    +0.247 C 
ATOM     10  O   UNL     1      51.336 154.721  26.031  0.00  0.00    -0.273 OA
ATOM     11  N   UNL     1      53.100 156.223  25.958  0.00  0.00    -0.247 N 
ATOM     12  C   UNL     1      53.225 156.101  24.540  0.00  0.00    +0.306 C 
ATOM     13  O   UNL     1      52.479 155.356  23.892  0.00  0.00    -0.265 OA
ATOM     14  H   UNL     1      53.706 156.823  26.451  0.00  0.00    +0.158 HD
ENDBRANCH   1   9
BRANCH   5  15
ATOM     15  S   UNL     1      52.495 160.122  31.057  0.00  0.00    -0.144 S 
ATOM     16  H   UNL     1      51.375 160.751  31.504  0.00  0.00    +0.107 HD
ENDBRANCH   5  15
BRANCH   4  17
ATOM     17  C   UNL     1      49.547 158.920  30.350  0.00  0.00    +0.352 C 
ATOM     18  O   UNL     1      49.611 160.117  30.674  0.00  0.00    -0.244 OA
BRANCH  17  19
ATOM     19  O   UNL     1      48.344 158.239  30.431  0.00  0.00    -0.476 OA
ATOM     20  H   UNL     1      48.299 157.336  30.186  0.00  0.00    +0.295 HD
ENDBRANCH  17  19
ENDBRANCH   4  17
BRANCH   1  21
ATOM     21  S   UNL     1      52.822 154.536  28.968  0.00  0.00    -0.122 S 
ATOM     22  H   UNL     1      54.063 154.864  29.416  0.00  0.00    +0.105 HD
BRANCH  21  23
ATOM     23  S   UNL     1      51.865 154.304  30.180  0.00  0.00    -0.121 S 
ATOM     24  H   UNL     1      50.626 153.977  29.723  0.00  0.00    +0.113 HD
ENDBRANCH  21  23
BRANCH  21  25
ATOM     25  S   UNL     1      53.449 153.186  27.944  0.00  0.00    +0.029 S 
BRANCH  25  26
ATOM     26  P   UNL     1      52.097 152.074  27.469  0.00  0.00    +0.452 P 
ATOM     27  O   UNL     1      50.968 152.984  26.955  0.00  0.00    -0.233 OA
BRANCH  26  28
ATOM     28  O   UNL     1      51.450 151.161  28.749  0.00  0.00    -0.307 OA
ATOM     29  H   UNL     1      51.225 151.751  29.486  0.00  0.00    +0.222 HD
ENDBRANCH  26  28
BRANCH  26  30
ATOM     30  O   UNL     1      52.498 151.042  26.162  0.00  0.00    -0.381 OA
BRANCH  30  31
ATOM     31  C   UNL     1      53.707 151.157  25.538  0.00  0.00    +0.368 C 
ATOM     32  O   UNL     1      54.487 150.170  25.496  0.00  0.00    -0.245 OA
BRANCH  31  33
ATOM     33  C   UNL     1      54.155 152.390  24.904  0.00  0.00    +0.294 C 
BRANCH  33  34
ATOM     34  O   UNL     1      54.463 153.371  25.626  0.00  0.00    -0.360 OA
ATOM     35  H   UNL     1      54.345 153.135  26.559  0.00  0.00    +0.213 HD
ENDBRANCH  33  34
BRANCH  33  36
ATOM     36  N   UNL     1      54.263 152.543  23.499  0.00  0.00    -0.159 NA
ATOM     37  H   UNL     1      53.333 152.358  23.123  0.00  0.00    +0.157 HD
BRANCH  36  38
ATOM     38  O   UNL     1      54.682 153.695  22.915  0.00  0.00    -0.312 OA
ATOM     39  H   UNL     1      55.568 153.919  23.240  0.00  0.00    +0.236 HD
ENDBRANCH  36  38
ENDBRANCH  33  36
ENDBRANCH  31  33
ENDBRANCH  30  31
ENDBRANCH  26  30
ENDBRANCH  25  26
ENDBRANCH  21  25
ENDBRANCH   1  21
TORSDOF 15
