REMARK  Name = =
REMARK  3 active torsions:
REMARK  status: ('A' for Active; 'I' for Inactive)
REMARK    1  A    between atoms: C_4  and  O_11
REMARK    2  A    between atoms: C_7  and  C_12
REMARK    3  A    between atoms: C_12  and  C_14
REMARK                            x       y       z     vdW  Elec       q    Type
REMARK                         _______ _______ _______ _____ _____    ______ ____
ROOT
ATOM      1  C   UNL     1     -11.169 -43.982  29.781  0.00  0.00    +0.135 C 
ATOM      2  C   UNL     1     -12.467 -43.806  29.362  0.00  0.00    +0.022 C 
ATOM      3  C   UNL     1     -13.433 -44.554  29.994  0.00  0.00    +0.036 C 
ATOM      4  C   UNL     1     -13.136 -45.448  31.008  0.00  0.00    +0.134 C 
ATOM      5  C   UNL     1     -11.835 -45.621  31.425  0.00  0.00    +0.040 C 
ATOM      6  C   UNL     1     -10.853 -44.870  30.792  0.00  0.00    +0.040 C 
ATOM      7  C   UNL     1     -12.865 -42.882  28.296  0.00  0.00    +0.096 C 
ATOM      8  C   UNL     1     -11.751 -42.098  27.694  0.00  0.00    +0.060 C 
ATOM      9  C   UNL     1     -10.513 -41.988  28.517  0.00  0.00    +0.206 C 
ATOM     10  O   UNL     1     -10.198 -43.223  29.138  0.00  0.00    -0.476 OA
ENDROOT
BRANCH   4  11
ATOM     11  O   UNL     1     -14.120 -46.196  31.637  0.00  0.00    -0.506 OA
ATOM     12  H   UNL     1     -15.016 -46.104  31.378  0.00  0.00    +0.292 HD
ENDBRANCH   4  11
BRANCH   7  13
ATOM     13  C   UNL     1     -13.617 -43.560  27.208  0.00  0.00    +0.229 C 
ATOM     14  O   UNL     1     -13.530 -44.800  26.997  0.00  0.00    -0.286 OA
BRANCH  13  15
ATOM     15  C   UNL     1     -14.481 -42.771  26.357  0.00  0.00    +0.278 C 
ATOM     16  O   UNL     1     -15.129 -41.818  26.845  0.00  0.00    -0.267 OA
ATOM     17  N   UNL     1     -14.637 -43.027  24.968  0.00  0.00    -0.323 N 
ATOM     18  H   UNL     1     -15.237 -42.463  24.428  0.00  0.00    +0.145 HD
ATOM     19  H   UNL     1     -14.145 -43.768  24.546  0.00  0.00    +0.145 HD
ENDBRANCH  13  15
ENDBRANCH   7  13
TORSDOF 3
