REMARK  Name = =
REMARK  5 active torsions:
REMARK  status: ('A' for Active; 'I' for Inactive)
REMARK    1  A    between atoms: C_1  and  C_9
REMARK    2  A    between atoms: C_1  and  C_14
REMARK    3  A    between atoms: C_6  and  O_13
REMARK    4  A    between atoms: N_16  and  N_17
REMARK    5  A    between atoms: C_18  and  C_20
REMARK                            x       y       z     vdW  Elec       q    Type
REMARK                         _______ _______ _______ _____ _____    ______ ____
ROOT
ATOM      1  C   UNL     1     -13.717 -43.146  27.578  0.00  0.00    +0.231 C 
ATOM      2  O   UNL     1     -14.668 -43.192  28.423  0.00  0.00    -0.286 OA
ENDROOT
BRANCH   1   9
ATOM      3  C   UNL     1     -11.515 -43.305  30.348  0.00  0.00    +0.135 C 
ATOM      4  C   UNL     1     -12.357 -43.883  29.437  0.00  0.00    +0.022 C 
ATOM      5  C   UNL     1     -13.264 -44.824  29.881  0.00  0.00    +0.036 C 
ATOM      6  C   UNL     1     -13.348 -45.195  31.205  0.00  0.00    +0.134 C 
ATOM      7  C   UNL     1     -12.514 -44.628  32.139  0.00  0.00    +0.040 C 
ATOM      8  C   UNL     1     -11.606 -43.684  31.678  0.00  0.00    +0.040 C 
ATOM      9  C   UNL     1     -12.357 -43.571  27.989  0.00  0.00    +0.096 C 
ATOM     10  C   UNL     1     -11.369 -42.503  27.624  0.00  0.00    +0.060 C 
ATOM     11  C   UNL     1     -10.939 -41.612  28.736  0.00  0.00    +0.206 C 
ATOM     12  O   UNL     1     -10.592 -42.350  29.904  0.00  0.00    -0.476 OA
BRANCH   6  13
ATOM     13  O   UNL     1     -14.266 -46.139  31.625  0.00  0.00    -0.506 OA
ATOM     14  H   UNL     1     -14.844 -46.538  31.005  0.00  0.00    +0.292 HD
ENDBRANCH   6  13
ENDBRANCH   1   9
BRANCH   1  15
ATOM     15  C   UNL     1     -14.032 -42.670  26.229  0.00  0.00    +0.297 C 
ATOM     16  O   UNL     1     -13.261 -43.034  25.303  0.00  0.00    -0.265 OA
ATOM     17  N   UNL     1     -15.135 -41.852  25.963  0.00  0.00    -0.228 N 
ATOM     18  H   UNL     1     -15.728 -41.575  26.699  0.00  0.00    +0.173 HD
BRANCH  17  19
ATOM     19  N   UNL     1     -15.400 -41.426  24.659  0.00  0.00    -0.226 N 
ATOM     20  C   UNL     1     -16.718 -41.497  24.121  0.00  0.00    +0.315 C 
ATOM     21  O   UNL     1     -17.610 -41.953  24.870  0.00  0.00    -0.264 OA
ATOM     22  H   UNL     1     -14.667 -41.072  24.105  0.00  0.00    +0.173 HD
BRANCH  20  23
ATOM     23  C   UNL     1     -16.972 -41.051  22.769  0.00  0.00    +0.298 C 
ATOM     24  O   UNL     1     -16.037 -40.603  22.080  0.00  0.00    -0.265 OA
ATOM     25  N   UNL     1     -18.285 -41.132  22.253  0.00  0.00    -0.322 N 
ATOM     26  H   UNL     1     -19.012 -41.489  22.812  0.00  0.00    +0.145 HD
ATOM     27  H   UNL     1     -18.472 -40.831  21.334  0.00  0.00    +0.145 HD
ENDBRANCH  20  23
ENDBRANCH  17  19
ENDBRANCH   1  15
TORSDOF 5
