MODEL 1
REMARK VINA RESULT:    -8.193      0.000      0.000
REMARK INTER + INTRA:         -16.308
REMARK INTER:                 -13.700
REMARK INTRA:                  -2.607
REMARK UNBOUND:                -2.607
REMARK  Name = =
REMARK  14 active torsions:
REMARK  status: ('A' for Active; 'I' for Inactive)
REMARK    1  A    between atoms: N_1  and  S_23
REMARK    2  A    between atoms: C_2  and  C_7
REMARK    3  A    between atoms: C_4  and  C_17
REMARK    4  A    between atoms: C_9  and  O_16
REMARK    5  A    between atoms: C_10  and  C_13
REMARK    6  A    between atoms: C_13  and  O_15
REMARK    7  A    between atoms: S_23  and  S_24
REMARK    8  A    between atoms: S_23  and  S_25
REMARK    9  A    between atoms: S_25  and  N_26
REMARK   10  A    between atoms: S_25  and  O_31
REMARK   11  A    between atoms: O_31  and  P_32
REMARK   12  A    between atoms: P_32  and  C_34
REMARK   13  A    between atoms: P_32  and  O_37
REMARK   14  A    between atoms: C_34  and  O_36
REMARK                            x       y       z     vdW  Elec       q    Type
REMARK                         _______ _______ _______ _____ _____    ______ ____
ROOT
ATOM      1  N   UNL     1     -20.321 -41.825  24.561  0.00  0.00    -0.228 NA
ATOM      2  C   UNL     1     -19.337 -41.679  23.538  0.00  0.00    +0.090 C 
ATOM      3  C   UNL     1     -18.004 -41.134  24.031  0.00  0.00    +0.026 C 
ATOM      4  C   UNL     1     -17.601 -41.756  25.309  0.00  0.00    +0.025 C 
ATOM      5  C   UNL     1     -18.558 -41.765  26.225  0.00  0.00    +0.023 C 
ATOM      6  C   UNL     1     -19.847 -41.137  25.755  0.00  0.00    +0.084 C 
ENDROOT
BRANCH   2   7
ATOM      7  C   UNL     1     -19.766 -40.834  22.409  0.00  0.00    -0.004 C 
ATOM      8  C   UNL     1     -19.713 -39.467  22.426  0.00  0.00    +0.034 C 
ATOM      9  C   UNL     1     -20.128 -38.674  21.320  0.00  0.00    +0.140 C 
ATOM     10  C   UNL     1     -20.604 -39.271  20.185  0.00  0.00    +0.109 C 
ATOM     11  C   UNL     1     -20.655 -40.677  20.174  0.00  0.00    +0.009 C 
ATOM     12  C   UNL     1     -20.246 -41.408  21.258  0.00  0.00    -0.003 C 
BRANCH  10  13
ATOM     13  C   UNL     1     -21.053 -38.554  19.002  0.00  0.00    +0.341 C 
ATOM     14  O   UNL     1     -21.960 -38.951  18.274  0.00  0.00    -0.245 OA
BRANCH  13  15
ATOM     15  O   UNL     1     -20.441 -37.337  18.643  0.00  0.00    -0.477 OA
ATOM     16  H   UNL     1     -20.875 -36.525  18.818  0.00  0.00    +0.295 HD
ENDBRANCH  13  15
ENDBRANCH  10  13
BRANCH   9  17
ATOM     17  O   UNL     1     -20.033 -37.310  21.441  0.00  0.00    -0.505 OA
ATOM     18  H   UNL     1     -19.265 -36.925  21.815  0.00  0.00    +0.292 HD
ENDBRANCH   9  17
ENDBRANCH   2   7
BRANCH   4  19
ATOM     19  C   UNL     1     -16.275 -42.309  25.540  0.00  0.00    -0.022 C 
ATOM     20  C   UNL     1     -15.758 -42.345  26.809  0.00  0.00    -0.004 C 
ATOM     21  C   UNL     1     -14.494 -42.874  27.011  0.00  0.00    -0.000 C 
ATOM     22  C   UNL     1     -13.706 -43.376  26.002  0.00  0.00    -0.000 C 
ATOM     23  C   UNL     1     -14.250 -43.329  24.737  0.00  0.00    -0.000 C 
ATOM     24  C   UNL     1     -15.507 -42.810  24.493  0.00  0.00    -0.004 C 
ENDBRANCH   4  19
BRANCH   1  25
ATOM     25  S   UNL     1     -21.301 -42.886  24.606  0.00  0.00    -0.080 S 
ATOM     26  H   UNL     1     -21.029 -43.999  23.873  0.00  0.00    +0.121 HD
BRANCH  25  27
ATOM     27  S   UNL     1     -21.416 -43.074  26.195  0.00  0.00    -0.108 S 
ATOM     28  H   UNL     1     -20.463 -42.323  26.810  0.00  0.00    +0.114 HD
ENDBRANCH  25  27
BRANCH  25  29
ATOM     29  S   UNL     1     -22.998 -42.044  24.071  0.00  0.00    +0.009 S 
ATOM     30  H   UNL     1     -24.055 -42.154  24.919  0.00  0.00    +0.142 HD
BRANCH  29  31
ATOM     31  N   UNL     1     -23.155 -42.740  22.585  0.00  0.00    -0.113 N 
ATOM     32  N   UNL     1     -23.792 -42.307  21.511  0.00  0.00    -0.041 NA
ATOM     33  N   UNL     1     -23.697 -43.166  20.528  0.00  0.00    -0.024 NA
ATOM     34  N   UNL     1     -22.983 -44.189  20.949  0.00  0.00    -0.107 NA
ATOM     35  C   UNL     1     -22.644 -43.930  22.221  0.00  0.00    +0.223 C 
ENDBRANCH  29  31
BRANCH  29  36
ATOM     36  O   UNL     1     -22.648 -40.643  23.814  0.00  0.00    -0.225 OA
BRANCH  36  37
ATOM     37  P   UNL     1     -23.782 -39.428  23.822  0.00  0.00    +0.448 P 
ATOM     38  O   UNL     1     -25.199 -39.913  23.955  0.00  0.00    -0.246 OA
BRANCH  37  39
ATOM     39  C   UNL     1     -23.544 -38.420  22.371  0.00  0.00    +0.419 C 
ATOM     40  O   UNL     1     -23.932 -38.849  21.251  0.00  0.00    -0.237 OA
BRANCH  39  41
ATOM     41  O   UNL     1     -22.942 -37.168  22.428  0.00  0.00    -0.472 OA
ATOM     42  H   UNL     1     -23.464 -36.403  22.574  0.00  0.00    +0.296 HD
ENDBRANCH  39  41
ENDBRANCH  37  39
BRANCH  37  43
ATOM     43  O   UNL     1     -23.448 -38.446  25.184  0.00  0.00    -0.316 OA
ATOM     44  H   UNL     1     -22.581 -38.025  25.074  0.00  0.00    +0.220 HD
ENDBRANCH  37  43
ENDBRANCH  36  37
ENDBRANCH  29  36
ENDBRANCH  25  29
ENDBRANCH   1  25
TORSDOF 14
ENDMDL
