REMARK  Name = =
REMARK  0 active torsions:
REMARK  status: ('A' for Active; 'I' for Inactive)
REMARK                            x       y       z     vdW  Elec       q    Type
REMARK                         _______ _______ _______ _____ _____    ______ ____
ROOT
ATOM      1  C   UNL     1      -1.056  -5.504  29.369  0.00  0.00    +0.069 C 
ATOM      2  N   UNL     1      -1.961  -6.622  29.171  0.00  0.00    -0.297 NA
ATOM      3  C   UNL     1      -1.446  -7.865  29.627  0.00  0.00    +0.069 C 
ATOM      4  C   UNL     1      -0.111  -7.824  30.260  0.00  0.00    +0.017 C 
ATOM      5  C   UNL     1       0.888  -6.930  29.611  0.00  0.00    +0.003 C 
ATOM      6  C   UNL     1       0.245  -5.915  28.666  0.00  0.00    +0.017 C 
ATOM      7  H   UNL     1      -2.159  -6.703  28.174  0.00  0.00    +0.123 HD
ENDROOT
TORSDOF 0
