REMARK  Name = =
REMARK  1 active torsions:
REMARK  status: ('A' for Active; 'I' for Inactive)
REMARK    1  A    between atoms: C_1  and  C_15
REMARK                            x       y       z     vdW  Elec       q    Type
REMARK                         _______ _______ _______ _____ _____    ______ ____
ROOT
ATOM      1  C   UNL     1      -1.356  -4.604  28.362  0.00  0.00    -0.006 C 
ATOM      2  C   UNL     1      -2.185  -4.842  29.436  0.00  0.00    +0.018 C 
ATOM      3  C   UNL     1      -2.988  -3.846  29.981  0.00  0.00    +0.099 A 
ATOM      4  C   UNL     1      -2.986  -2.568  29.464  0.00  0.00    +0.099 A 
ATOM      5  C   UNL     1      -2.151  -2.321  28.379  0.00  0.00    +0.020 C 
ATOM      6  C   UNL     1      -1.357  -3.324  27.848  0.00  0.00    -0.001 C 
ATOM      7  N   UNL     1      -3.763  -1.598  29.986  0.00  0.00    -0.242 NA
ATOM      8  C   UNL     1      -4.549  -1.906  31.037  0.00  0.00    +0.099 A 
ATOM      9  C   UNL     1      -5.372  -0.954  31.623  0.00  0.00    +0.021 C 
ATOM     10  C   UNL     1      -6.193  -1.220  32.698  0.00  0.00    +0.002 C 
ATOM     11  C   UNL     1      -6.219  -2.487  33.241  0.00  0.00    +0.002 C 
ATOM     12  C   UNL     1      -5.409  -3.449  32.675  0.00  0.00    +0.021 C 
ATOM     13  C   UNL     1      -4.579  -3.171  31.585  0.00  0.00    +0.099 A 
ATOM     14  N   UNL     1      -3.797  -4.123  31.046  0.00  0.00    -0.242 NA
ENDROOT
BRANCH   1  15
ATOM     15  C   UNL     1      -0.508  -5.646  27.784  0.00  0.00    +0.081 C 
ATOM     16  N   UNL     1      -1.225  -6.904  27.740  0.00  0.00    -0.291 NA
ATOM     17  C   UNL     1      -0.520  -7.920  27.008  0.00  0.00    +0.095 C 
ATOM     18  C   UNL     1       0.922  -7.731  26.844  0.00  0.00    -0.014 C 
ATOM     19  C   UNL     1       1.622  -6.806  27.756  0.00  0.00    -0.028 C 
ATOM     20  C   UNL     1       0.745  -5.923  28.582  0.00  0.00    +0.046 C 
ATOM     21  H   UNL     1      -2.129  -6.749  27.294  0.00  0.00    +0.124 HD
ENDBRANCH   1  15
TORSDOF 1
