REMARK  Name = =
REMARK  2 active torsions:
REMARK  status: ('A' for Active; 'I' for Inactive)
REMARK    1  A    between atoms: C_1  and  C_15
REMARK    2  A    between atoms: C_20  and  C_21
REMARK                            x       y       z     vdW  Elec       q    Type
REMARK                         _______ _______ _______ _____ _____    ______ ____
ROOT
ATOM      1  C   UNL     1      -4.157  -2.649  31.112  0.00  0.00    -0.006 C 
ATOM      2  C   UNL     1      -4.031  -2.297  29.755  0.00  0.00    +0.018 C 
ATOM      3  C   UNL     1      -2.847  -2.328  29.077  0.00  0.00    +0.099 A 
ATOM      4  C   UNL     1      -1.692  -2.720  29.726  0.00  0.00    +0.099 A 
ATOM      5  C   UNL     1      -1.796  -3.067  31.049  0.00  0.00    +0.020 C 
ATOM      6  C   UNL     1      -2.991  -3.036  31.735  0.00  0.00    -0.001 C 
ATOM      7  N   UNL     1      -0.540  -2.741  29.033  0.00  0.00    -0.242 NA
ATOM      8  C   UNL     1      -0.437  -2.405  27.750  0.00  0.00    +0.099 A 
ATOM      9  C   UNL     1       0.739  -2.422  27.030  0.00  0.00    +0.021 C 
ATOM     10  C   UNL     1       0.838  -2.074  25.702  0.00  0.00    +0.002 C 
ATOM     11  C   UNL     1      -0.327  -1.684  25.067  0.00  0.00    +0.002 C 
ATOM     12  C   UNL     1      -1.522  -1.654  25.755  0.00  0.00    +0.021 C 
ATOM     13  C   UNL     1      -1.599  -2.012  27.102  0.00  0.00    +0.099 A 
ATOM     14  N   UNL     1      -2.771  -1.982  27.772  0.00  0.00    -0.242 NA
ENDROOT
BRANCH   1  15
ATOM     15  C   UNL     1      -5.479  -2.612  31.761  0.00  0.00    +0.077 C 
ATOM     16  N   UNL     1      -5.340  -2.716  33.164  0.00  0.00    -0.295 NA
ATOM     17  C   UNL     1      -6.507  -2.853  33.939  0.00  0.00    +0.069 C 
ATOM     18  C   UNL     1      -7.731  -2.749  33.078  0.00  0.00    +0.017 C 
ATOM     19  C   UNL     1      -7.704  -1.586  32.116  0.00  0.00    +0.003 C 
ATOM     20  C   UNL     1      -6.449  -1.610  31.253  0.00  0.00    +0.019 C 
ATOM     21  H   UNL     1      -4.861  -1.874  33.484  0.00  0.00    +0.124 HD
BRANCH  20  22
ATOM     22  C   UNL     1      -5.917  -0.223  30.999  0.00  0.00    +0.002 C 
ATOM     23  C   UNL     1      -6.917   0.631  30.255  0.00  0.00    +0.000 C 
ATOM     24  C   UNL     1      -7.817   1.474  31.062  0.00  0.00    +0.000 C 
ATOM     25  C   UNL     1      -7.160   2.137  32.244  0.00  0.00    +0.000 C 
ATOM     26  C   UNL     1      -5.679   1.996  32.124  0.00  0.00    +0.000 C 
ATOM     27  C   UNL     1      -5.359   0.495  32.174  0.00  0.00    +0.000 C 
ENDBRANCH  20  22
ENDBRANCH   1  15
TORSDOF 2
