REMARK  Name = =
REMARK  3 active torsions:
REMARK  status: ('A' for Active; 'I' for Inactive)
REMARK    1  A    between atoms: C_1  and  C_7
REMARK    2  A    between atoms: C_6  and  C_21
REMARK    3  A    between atoms: C_24  and  N_27
REMARK                            x       y       z     vdW  Elec       q    Type
REMARK                         _______ _______ _______ _____ _____    ______ ____
ROOT
ATOM      1  C   UNL     1      -0.749  -3.780  28.920  0.00  0.00    +0.077 C 
ATOM      2  N   UNL     1      -0.015  -4.699  29.769  0.00  0.00    -0.295 NA
ATOM      3  C   UNL     1       1.308  -4.973  29.251  0.00  0.00    +0.069 C 
ATOM      4  C   UNL     1       2.152  -3.741  29.063  0.00  0.00    +0.017 C 
ATOM      5  C   UNL     1       1.305  -2.555  29.477  0.00  0.00    +0.003 C 
ATOM      6  C   UNL     1       0.065  -2.550  28.616  0.00  0.00    +0.019 C 
ATOM      7  H   UNL     1      -0.533  -5.576  29.831  0.00  0.00    +0.124 HD
ENDROOT
BRANCH   1   8
ATOM      8  C   UNL     1      -2.019  -3.473  29.611  0.00  0.00    -0.006 C 
ATOM      9  C   UNL     1      -2.402  -2.158  29.710  0.00  0.00    +0.018 C 
ATOM     10  C   UNL     1      -3.603  -1.845  30.359  0.00  0.00    +0.099 A 
ATOM     11  C   UNL     1      -4.413  -2.828  30.902  0.00  0.00    +0.099 A 
ATOM     12  C   UNL     1      -4.010  -4.159  30.793  0.00  0.00    +0.020 C 
ATOM     13  C   UNL     1      -2.816  -4.464  30.147  0.00  0.00    -0.001 C 
ATOM     14  N   UNL     1      -5.562  -2.496  31.519  0.00  0.00    -0.242 NA
ATOM     15  C   UNL     1      -5.945  -1.216  31.622  0.00  0.00    +0.099 A 
ATOM     16  C   UNL     1      -7.131  -0.852  32.257  0.00  0.00    +0.021 C 
ATOM     17  C   UNL     1      -7.514   0.470  32.355  0.00  0.00    +0.002 C 
ATOM     18  C   UNL     1      -6.700   1.442  31.811  0.00  0.00    +0.002 C 
ATOM     19  C   UNL     1      -5.516   1.079  31.176  0.00  0.00    +0.021 C 
ATOM     20  C   UNL     1      -5.131  -0.244  31.077  0.00  0.00    +0.099 A 
ATOM     21  N   UNL     1      -3.992  -0.561  30.464  0.00  0.00    -0.242 NA
ENDBRANCH   1   8
BRANCH   6  22
ATOM     22  C   UNL     1       0.433  -2.418  27.178  0.00  0.00    +0.002 C 
ATOM     23  C   UNL     1      -0.431  -1.407  26.445  0.00  0.00    +0.002 C 
ATOM     24  C   UNL     1      -0.063  -1.452  24.979  0.00  0.00    +0.020 C 
ATOM     25  C   UNL     1       1.400  -1.165  24.754  0.00  0.00    +0.075 C 
ATOM     26  C   UNL     1       2.236  -2.130  25.526  0.00  0.00    +0.020 C 
ATOM     27  C   UNL     1       1.862  -1.971  27.008  0.00  0.00    +0.002 C 
BRANCH  25  28
ATOM     28  N   UNL     1       1.661  -1.294  23.337  0.00  0.00    -0.281 N 
ATOM     29  C   UNL     1       1.112  -2.367  22.555  0.00  0.00    +0.093 C 
ATOM     30  C   UNL     1       2.093  -2.826  21.512  0.00  0.00    +0.022 C 
ATOM     31  C   UNL     1       2.367  -1.671  20.580  0.00  0.00    +0.011 C 
ATOM     32  C   UNL     1       2.927  -0.469  21.270  0.00  0.00    +0.085 C 
ATOM     33  C   UNL     1       2.486  -0.341  22.672  0.00  0.00    +0.226 C 
ATOM     34  O   UNL     1       2.866   0.675  23.309  0.00  0.00    -0.275 OA
ENDBRANCH  25  28
ENDBRANCH   6  22
TORSDOF 3
