REMARK  Name = =
REMARK  0 active torsions:
REMARK  status: ('A' for Active; 'I' for Inactive)
REMARK                            x       y       z     vdW  Elec       q    Type
REMARK                         _______ _______ _______ _____ _____    ______ ____
ROOT
ATOM      1  C   UNL     1     -13.277 -43.183  27.588  0.00  0.00    +0.142 C 
ATOM      2  O   UNL     1     -12.097 -42.667  27.137  0.00  0.00    -0.354 OA
ATOM      3  C   UNL     1     -11.046 -42.704  28.008  0.00  0.00    +0.142 C 
ATOM      4  C   UNL     1     -10.834 -44.019  28.690  0.00  0.00    +0.032 C 
ATOM      5  C   UNL     1     -11.783 -45.095  28.228  0.00  0.00    +0.005 C 
ATOM      6  C   UNL     1     -13.173 -44.536  28.226  0.00  0.00    +0.032 C 
ENDROOT
TORSDOF 0
