REMARK  Name = =
REMARK  2 active torsions:
REMARK  status: ('A' for Active; 'I' for Inactive)
REMARK    1  A    between atoms: O_1  and  C_2
REMARK    2  A    between atoms: O_1  and  S_7
REMARK                            x       y       z     vdW  Elec       q    Type
REMARK                         _______ _______ _______ _____ _____    ______ ____
ROOT
ATOM      1  O   UNL     1     -12.347 -43.114  27.241  0.00  0.00    -0.337 OA
ENDROOT
BRANCH   1   2
ATOM      2  C   UNL     1     -13.611 -42.897  26.786  0.00  0.00    +0.277 C 
ATOM      3  N   UNL     1     -14.488 -42.148  27.266  0.00  0.00    -0.230 NA
ATOM      4  C   UNL     1     -15.736 -42.066  26.641  0.00  0.00    +0.141 C 
ATOM      5  C   UNL     1     -15.697 -42.487  25.203  0.00  0.00    +0.093 C 
ATOM      6  S   UNL     1     -14.294 -43.683  25.336  0.00  0.00    -0.053 S 
ENDBRANCH   1   2
BRANCH   1   7
ATOM      7  S   UNL     1     -12.106 -43.407  28.905  0.00  0.00    +0.011 S 
ATOM      8  O   UNL     1     -13.417 -43.546  29.616  0.00  0.00    -0.065 OA
ATOM      9  O   UNL     1     -11.262 -44.632  29.018  0.00  0.00    -0.065 OA
ATOM     10  H   UNL     1     -11.472 -42.363  29.502  0.00  0.00    +0.227 HD
ENDBRANCH   1   7
TORSDOF 2
