REMARK  Name = =
REMARK  4 active torsions:
REMARK  status: ('A' for Active; 'I' for Inactive)
REMARK    1  A    between atoms: C_1  and  O_26
REMARK    2  A    between atoms: C_3  and  C_6
REMARK    3  A    between atoms: C_4  and  N_17
REMARK    4  A    between atoms: O_26  and  S_27
REMARK                            x       y       z     vdW  Elec       q    Type
REMARK                         _______ _______ _______ _____ _____    ______ ____
ROOT
ATOM      1  C   UNL     1     -17.931 -42.471  25.301  0.00  0.00    +0.278 C 
ATOM      2  N   UNL     1     -18.334 -41.707  24.380  0.00  0.00    -0.229 NA
ATOM      3  C   UNL     1     -19.717 -41.466  24.208  0.00  0.00    +0.147 C 
ATOM      4  C   UNL     1     -20.386 -41.531  25.538  0.00  0.00    +0.139 C 
ATOM      5  S   UNL     1     -19.452 -43.013  26.138  0.00  0.00    -0.038 S 
ENDROOT
BRANCH   3   6
ATOM      6  C   UNL     1     -19.875 -40.089  23.577  0.00  0.00    +0.148 C 
ATOM      7  C   UNL     1     -21.282 -39.754  23.332  0.00  0.00    +0.182 C 
ATOM      8  O   UNL     1     -22.087 -39.304  24.165  0.00  0.00    -0.291 OA
ATOM      9  C   UNL     1     -21.584 -40.037  21.939  0.00  0.00    +0.038 C 
ATOM     10  C   UNL     1     -20.382 -40.261  21.284  0.00  0.00    +0.038 C 
ATOM     11  C   UNL     1     -20.443 -40.554  19.923  0.00  0.00    +0.003 C 
ATOM     12  C   UNL     1     -21.612 -40.633  19.211  0.00  0.00    +0.000 C 
ATOM     13  C   UNL     1     -22.791 -40.409  19.874  0.00  0.00    +0.000 C 
ATOM     14  C   UNL     1     -22.773 -40.113  21.235  0.00  0.00    +0.003 C 
ATOM     15  C   UNL     1     -19.278 -40.129  22.224  0.00  0.00    +0.182 C 
ATOM     16  O   UNL     1     -18.072 -40.064  21.940  0.00  0.00    -0.291 OA
ENDBRANCH   3   6
BRANCH   4  17
ATOM     17  N   UNL     1     -21.761 -41.685  25.572  0.00  0.00    -0.256 NA
ATOM     18  C   UNL     1     -22.386 -42.660  24.765  0.00  0.00    +0.100 C 
ATOM     19  C   UNL     1     -22.988 -43.606  25.759  0.00  0.00    -0.009 C 
ATOM     20  C   UNL     1     -22.979 -43.053  27.015  0.00  0.00    -0.009 C 
ATOM     21  C   UNL     1     -22.360 -41.696  26.864  0.00  0.00    +0.100 C 
ATOM     22  C   UNL     1     -23.483 -43.735  28.118  0.00  0.00    -0.003 C 
ATOM     23  C   UNL     1     -24.001 -44.994  27.930  0.00  0.00    -0.000 C 
ATOM     24  C   UNL     1     -24.027 -45.583  26.677  0.00  0.00    -0.000 C 
ATOM     25  C   UNL     1     -23.523 -44.891  25.598  0.00  0.00    -0.003 C 
ENDBRANCH   4  17
BRANCH   1  26
ATOM     26  O   UNL     1     -16.627 -42.799  25.588  0.00  0.00    -0.337 OA
BRANCH  26  27
ATOM     27  S   UNL     1     -15.471 -41.625  26.084  0.00  0.00    +0.011 S 
ATOM     28  O   UNL     1     -14.753 -42.165  27.308  0.00  0.00    -0.065 OA
ATOM     29  O   UNL     1     -14.441 -41.413  25.026  0.00  0.00    -0.065 OA
ATOM     30  H   UNL     1     -16.114 -40.453  26.334  0.00  0.00    +0.227 HD
ENDBRANCH  26  27
ENDBRANCH   1  26
TORSDOF 4
