REMARK  Name = =
REMARK  7 active torsions:
REMARK  status: ('A' for Active; 'I' for Inactive)
REMARK    1  A    between atoms: C_1  and  C_19
REMARK    2  A    between atoms: C_1  and  C_29
REMARK    3  A    between atoms: C_16  and  C_24
REMARK    4  A    between atoms: C_29  and  O_31
REMARK    5  A    between atoms: O_31  and  C_32
REMARK    6  A    between atoms: C_32  and  C_34
REMARK    7  A    between atoms: C_37  and  O_40
REMARK                            x       y       z     vdW  Elec       q    Type
REMARK                         _______ _______ _______ _____ _____    ______ ____
ROOT
ATOM      1  C   UNL     1      52.698 155.388  27.544  0.00  0.00    +0.109 C 
ATOM      2  C   UNL     1      51.318 155.790  27.127  0.00  0.00    +0.013 C 
ATOM      3  C   UNL     1      50.426 156.194  28.259  0.00  0.00    +0.005 C 
ATOM      4  C   UNL     1      51.224 156.961  29.294  0.00  0.00    +0.018 C 
ATOM      5  C   UNL     1      52.401 157.559  28.596  0.00  0.00    +0.005 C 
ATOM      6  C   UNL     1      53.030 158.690  29.362  0.00  0.00    +0.005 C 
ATOM      7  C   UNL     1      52.053 159.661  29.910  0.00  0.00    +0.021 C 
ATOM      8  C   UNL     1      50.721 159.143  30.237  0.00  0.00    -0.052 C 
ATOM      9  C   UNL     1      50.333 157.914  29.960  0.00  0.00    -0.052 C 
ATOM     10  C   UNL     1      48.953 157.468  30.329  0.00  0.00    +0.021 C 
ATOM     11  C   UNL     1      48.690 157.933  31.741  0.00  0.00    +0.005 C 
ATOM     12  C   UNL     1      48.965 159.374  31.975  0.00  0.00    +0.006 C 
ATOM     13  C   UNL     1      49.759 160.046  30.912  0.00  0.00    +0.018 C 
ATOM     14  C   UNL     1      48.756 160.635  29.945  0.00  0.00    +0.004 C 
ATOM     15  C   UNL     1      47.431 160.604  30.677  0.00  0.00    +0.003 C 
ATOM     16  C   UNL     1      47.721 160.226  32.103  0.00  0.00    +0.029 C 
ATOM     17  C   UNL     1      53.403 156.449  28.354  0.00  0.00    +0.013 C 
ENDROOT
BRANCH   1  19
ATOM     18  O   UNL     1      54.187 156.300  25.936  0.00  0.00    -0.330 OA
ATOM     19  C   UNL     1      53.518 155.137  26.310  0.00  0.00    +0.242 C 
ATOM     20  O   UNL     1      52.741 154.639  25.265  0.00  0.00    -0.330 OA
ATOM     21  C   UNL     1      53.656 154.138  24.313  0.00  0.00    +0.147 C 
ATOM     22  C   UNL     1      54.402 155.327  23.752  0.00  0.00    +0.064 C 
ATOM     23  C   UNL     1      55.081 156.028  24.907  0.00  0.00    +0.147 C 
ENDBRANCH   1  19
BRANCH  16  24
ATOM     24  C   UNL     1      48.044 161.422  32.963  0.00  0.00    +0.146 C 
ATOM     25  N   UNL     1      49.091 161.019  33.897  0.00  0.00    -0.246 NA
ATOM     26  C   UNL     1      50.121 161.765  33.714  0.00  0.00    +0.194 C 
ATOM     27  N   UNL     1      49.851 162.700  32.671  0.00  0.00    -0.225 NA
ATOM     28  C   UNL     1      48.660 162.526  32.219  0.00  0.00    +0.098 C 
ENDBRANCH  16  24
BRANCH   1  29
ATOM     29  C   UNL     1      52.689 154.120  28.336  0.00  0.00    +0.166 C 
ATOM     30  S   UNL     1      52.116 154.021  29.835  0.00  0.00    -0.015 S 
BRANCH  29  31
ATOM     31  O   UNL     1      53.207 153.005  27.719  0.00  0.00    -0.418 OA
BRANCH  31  32
ATOM     32  C   UNL     1      52.345 152.103  27.120  0.00  0.00    +0.346 C 
ATOM     33  O   UNL     1      51.101 152.147  27.284  0.00  0.00    -0.244 OA
BRANCH  32  34
ATOM     34  C   UNL     1      52.910 151.056  26.261  0.00  0.00    +0.076 C 
ATOM     35  C   UNL     1      54.006 151.304  25.465  0.00  0.00    +0.010 C 
ATOM     36  C   UNL     1      54.527 150.313  24.663  0.00  0.00    +0.037 C 
ATOM     37  C   UNL     1      53.977 149.042  24.622  0.00  0.00    +0.134 C 
ATOM     38  C   UNL     1      52.886 148.835  25.428  0.00  0.00    +0.037 C 
ATOM     39  C   UNL     1      52.346 149.801  26.237  0.00  0.00    +0.010 C 
BRANCH  37  40
ATOM     40  O   UNL     1      54.515 148.057  23.808  0.00  0.00    -0.506 OA
ATOM     41  H   UNL     1      55.262 148.246  23.275  0.00  0.00    +0.292 HD
ENDBRANCH  37  40
ENDBRANCH  32  34
ENDBRANCH  31  32
ENDBRANCH  29  31
ENDBRANCH   1  29
TORSDOF 7
