REMARK  Name = =
REMARK  3 active torsions:
REMARK  status: ('A' for Active; 'I' for Inactive)
REMARK    1  A    between atoms: C_10  and  N_11
REMARK    2  A    between atoms: N_11  and  S_12
REMARK    3  A    between atoms: S_12  and  C_15
REMARK                            x       y       z     vdW  Elec       q    Type
REMARK                         _______ _______ _______ _____ _____    ______ ____
ROOT
ATOM      1  N   UNL     1      52.217 156.485  30.000  0.00  0.00    -0.200 N 
ATOM      2  H   UNL     1      52.176 155.838  30.741  0.00  0.00    +0.175 HD
ENDROOT
BRANCH   1  12
ATOM      3  C   UNL     1      51.124 158.498  29.091  0.00  0.00    +0.131 C 
ATOM      4  N   UNL     1      50.118 159.412  29.212  0.00  0.00    -0.241 NA
ATOM      5  C   UNL     1      49.228 159.325  30.208  0.00  0.00    +0.117 C 
ATOM      6  C   UNL     1      49.328 158.302  31.118  0.00  0.00    +0.170 C 
ATOM      7  N   UNL     1      48.437 158.182  32.147  0.00  0.00    -0.206 NA
ATOM      8  C   UNL     1      47.451 159.089  32.255  0.00  0.00    +0.196 C 
ATOM      9  N   UNL     1      47.324 160.100  31.383  0.00  0.00    -0.243 NA
ATOM     10  C   UNL     1      48.202 160.231  30.358  0.00  0.00    +0.176 C 
ATOM     11  N   UNL     1      50.301 157.421  30.996  0.00  0.00    -0.175 NA
ATOM     12  C   UNL     1      51.225 157.485  29.989  0.00  0.00    +0.157 C 
ENDBRANCH   1  12
BRANCH   1  13
ATOM     13  S   UNL     1      53.483 156.267  28.875  0.00  0.00    +0.075 S 
ATOM     14  O   UNL     1      54.349 157.511  28.875  0.00  0.00    -0.150 OA
ATOM     15  O   UNL     1      54.335 155.057  29.218  0.00  0.00    -0.150 OA
BRANCH  13  16
ATOM     16  C   UNL     1      52.824 155.970  27.297  0.00  0.00    +0.125 C 
ATOM     17  C   UNL     1      52.113 154.785  27.080  0.00  0.00    +0.020 C 
ATOM     18  C   UNL     1      51.617 154.542  25.817  0.00  0.00    +0.001 C 
ATOM     19  C   UNL     1      51.800 155.430  24.763  0.00  0.00    +0.000 C 
ATOM     20  C   UNL     1      52.499 156.597  24.975  0.00  0.00    +0.001 C 
ATOM     21  C   UNL     1      52.991 156.831  26.242  0.00  0.00    +0.020 C 
ENDBRANCH  13  16
ENDBRANCH   1  13
TORSDOF 3
