REMARK  Name = =
REMARK  3 active torsions:
REMARK  status: ('A' for Active; 'I' for Inactive)
REMARK    1  A    between atoms: N_11  and  N_12
REMARK    2  A    between atoms: N_11  and  S_19
REMARK    3  A    between atoms: S_19  and  C_22
REMARK                            x       y       z     vdW  Elec       q    Type
REMARK                         _______ _______ _______ _____ _____    ______ ____
ROOT
ATOM      1  C   UNL     1      50.855 159.537  31.923  0.00  0.00    +0.136 C 
ATOM      2  N   UNL     1      49.579 159.664  32.350  0.00  0.00    -0.236 NA
ATOM      3  C   UNL     1      48.566 159.751  31.456  0.00  0.00    +0.136 C 
ATOM      4  C   UNL     1      48.797 159.713  30.097  0.00  0.00    +0.185 C 
ATOM      5  N   UNL     1      47.756 159.802  29.218  0.00  0.00    -0.203 NA
ATOM      6  C   UNL     1      46.499 159.928  29.678  0.00  0.00    +0.200 C 
ATOM      7  N   UNL     1      46.230 159.969  30.990  0.00  0.00    -0.221 NA
ATOM      8  C   UNL     1      47.262 159.881  31.880  0.00  0.00    +0.123 C 
ATOM      9  N   UNL     1      50.067 159.587  29.673  0.00  0.00    -0.206 NA
ATOM     10  C   UNL     1      51.093 159.500  30.565  0.00  0.00    +0.187 C 
ATOM     11  N   UNL     1      52.442 159.366  30.129  0.00  0.00    -0.110 N 
ENDROOT
BRANCH  11  12
ATOM     12  N   UNL     1      53.288 160.437  29.877  0.00  0.00    -0.184 NA
ATOM     13  C   UNL     1      54.589 160.280  30.473  0.00  0.00    +0.094 C 
ATOM     14  C   UNL     1      55.621 160.729  29.460  0.00  0.00    +0.019 C 
ATOM     15  C   UNL     1      55.962 162.177  29.809  0.00  0.00    +0.002 C 
ATOM     16  C   UNL     1      54.751 163.002  29.421  0.00  0.00    +0.002 C 
ATOM     17  C   UNL     1      53.647 162.812  30.413  0.00  0.00    +0.019 C 
ATOM     18  C   UNL     1      52.695 161.711  30.060  0.00  0.00    +0.094 C 
ENDBRANCH  11  12
BRANCH  11  19
ATOM     19  S   UNL     1      53.048 157.764  29.903  0.00  0.00    +0.090 S 
ATOM     20  O   UNL     1      52.192 156.778  30.671  0.00  0.00    -0.149 OA
ATOM     21  O   UNL     1      54.473 157.635  30.362  0.00  0.00    -0.149 OA
BRANCH  19  22
ATOM     22  C   UNL     1      52.999 157.291  28.222  0.00  0.00    +0.127 C 
ATOM     23  C   UNL     1      51.980 156.481  27.760  0.00  0.00    +0.020 C 
ATOM     24  C   UNL     1      51.906 156.084  26.434  0.00  0.00    +0.001 C 
ATOM     25  C   UNL     1      52.857 156.492  25.533  0.00  0.00    +0.000 C 
ATOM     26  C   UNL     1      53.877 157.297  25.975  0.00  0.00    +0.001 C 
ATOM     27  C   UNL     1      53.948 157.693  27.306  0.00  0.00    +0.020 C 
ENDBRANCH  19  22
ENDBRANCH  11  19
TORSDOF 3
