REMARK  Name = =
REMARK  2 active torsions:
REMARK  status: ('A' for Active; 'I' for Inactive)
REMARK    1  A    between atoms: C_1  and  C_9
REMARK    2  A    between atoms: C_1  and  S_12
REMARK                            x       y       z     vdW  Elec       q    Type
REMARK                         _______ _______ _______ _____ _____    ______ ____
ROOT
ATOM      1  C   UNL     1      52.552 154.004  27.150  0.00  0.00    +0.169 C 
ATOM      2  C   UNL     1      53.833 153.459  26.588  0.00  0.00    +0.035 C 
ATOM      3  C   UNL     1      53.880 153.843  25.124  0.00  0.00    +0.066 C 
ATOM      4  C   UNL     1      52.633 154.594  24.857  0.00  0.00    +0.153 C 
ATOM      5  O   UNL     1      52.396 155.253  23.871  0.00  0.00    -0.296 OA
ATOM      6  C   UNL     1      51.688 154.428  25.988  0.00  0.00    +0.091 C 
ENDROOT
BRANCH   1   9
ATOM      7  O   UNL     1      52.424 157.239  28.316  0.00  0.00    -0.184 OA
ATOM      8  O   UNL     1      52.786 156.389  27.378  0.00  0.00    -0.188 OA
ATOM      9  C   UNL     1      52.888 155.182  28.054  0.00  0.00    +0.291 C 
ATOM     10  O   UNL     1      51.904 155.208  29.044  0.00  0.00    -0.296 OA
ATOM     11  C   UNL     1      51.543 156.556  29.140  0.00  0.00    +0.331 C 
ENDBRANCH   1   9
BRANCH   1  12
ATOM     12  S   UNL     1      51.726 152.804  28.176  0.00  0.00    -0.029 S 
ATOM     13  O   UNL     1      51.858 151.473  27.492  0.00  0.00    -0.176 OA
ATOM     14  O   UNL     1      52.329 152.789  29.541  0.00  0.00    -0.176 OA
ATOM     15  H   UNL     1      50.411 153.110  28.336  0.00  0.00    +0.210 HD
ENDBRANCH   1  12
TORSDOF 2
