REMARK  Name = =
REMARK  7 active torsions:
REMARK  status: ('A' for Active; 'I' for Inactive)
REMARK    1  A    between atoms: S_1  and  C_4
REMARK    2  A    between atoms: S_1  and  O_15
REMARK    3  A    between atoms: C_4  and  C_12
REMARK    4  A    between atoms: O_15  and  C_16
REMARK    5  A    between atoms: C_18  and  O_25
REMARK    6  A    between atoms: C_20  and  O_24
REMARK    7  A    between atoms: C_21  and  C_22
REMARK                            x       y       z     vdW  Elec       q    Type
REMARK                         _______ _______ _______ _____ _____    ______ ____
ROOT
ATOM      1  S   UNL     1      52.099 153.297  28.110  0.00  0.00    +0.032 S 
ATOM      2  O   UNL     1      53.530 153.189  28.537  0.00  0.00    -0.062 OA
ATOM      3  O   UNL     1      51.230 152.670  29.173  0.00  0.00    -0.062 OA
ENDROOT
BRANCH   1   4
ATOM      4  C   UNL     1      51.687 155.024  28.061  0.00  0.00    +0.185 C 
ATOM      5  C   UNL     1      50.179 155.223  28.225  0.00  0.00    +0.037 C 
ATOM      6  C   UNL     1      49.947 155.606  29.648  0.00  0.00    +0.066 C 
ATOM      7  C   UNL     1      51.252 155.348  30.324  0.00  0.00    +0.153 C 
ATOM      8  O   UNL     1      51.452 154.941  31.455  0.00  0.00    -0.296 OA
ATOM      9  C   UNL     1      52.277 155.711  29.276  0.00  0.00    +0.093 C 
BRANCH   4  12
ATOM     10  O   UNL     1      54.261 156.175  26.724  0.00  0.00    -0.184 OA
ATOM     11  O   UNL     1      53.402 155.233  26.459  0.00  0.00    -0.188 OA
ATOM     12  C   UNL     1      52.141 155.694  26.812  0.00  0.00    +0.293 C 
ATOM     13  O   UNL     1      52.326 157.051  27.096  0.00  0.00    -0.296 OA
ATOM     14  C   UNL     1      53.548 157.348  26.517  0.00  0.00    +0.331 C 
ENDBRANCH   4  12
ENDBRANCH   1   4
BRANCH   1  15
ATOM     15  O   UNL     1      51.796 152.522  26.656  0.00  0.00    -0.360 OA
BRANCH  15  16
ATOM     16  C   UNL     1      52.724 152.129  25.738  0.00  0.00    +0.180 C 
ATOM     17  C   UNL     1      53.340 153.054  24.935  0.00  0.00    +0.077 C 
ATOM     18  C   UNL     1      54.289 152.653  23.995  0.00  0.00    +0.140 C 
ATOM     19  C   UNL     1      54.618 151.304  23.867  0.00  0.00    +0.073 C 
ATOM     20  C   UNL     1      54.004 150.386  24.666  0.00  0.00    +0.143 C 
ATOM     21  C   UNL     1      53.055 150.810  25.602  0.00  0.00    +0.113 C 
BRANCH  21  22
ATOM     22  C   UNL     1      52.409 149.835  26.446  0.00  0.00    +0.240 C 
ATOM     23  O   UNL     1      52.536 148.624  26.200  0.00  0.00    -0.283 OA
ENDBRANCH  21  22
BRANCH  20  24
ATOM     24  O   UNL     1      54.285 149.037  24.588  0.00  0.00    -0.505 OA
ATOM     25  H   UNL     1      54.916 148.725  23.970  0.00  0.00    +0.292 HD
ENDBRANCH  20  24
BRANCH  18  26
ATOM     26  O   UNL     1      54.938 153.551  23.161  0.00  0.00    -0.505 OA
ATOM     27  H   UNL     1      54.744 154.466  23.217  0.00  0.00    +0.292 HD
ENDBRANCH  18  26
ENDBRANCH  15  16
ENDBRANCH   1  15
TORSDOF 7
