REMARK  Name = =
REMARK  8 active torsions:
REMARK  status: ('A' for Active; 'I' for Inactive)
REMARK    1  A    between atoms: O_1  and  C_2
REMARK    2  A    between atoms: O_1  and  S_15
REMARK    3  A    between atoms: C_3  and  N_8
REMARK    4  A    between atoms: C_4  and  O_14
REMARK    5  A    between atoms: C_6  and  O_13
REMARK    6  A    between atoms: C_7  and  C_11
REMARK    7  A    between atoms: S_15  and  C_18
REMARK    8  A    between atoms: C_18  and  C_26
REMARK                            x       y       z     vdW  Elec       q    Type
REMARK                         _______ _______ _______ _____ _____    ______ ____
ROOT
ATOM      1  O   UNL     1      51.976 153.575  26.815  0.00  0.00    -0.359 OA
ENDROOT
BRANCH   1   2
ATOM      2  C   UNL     1      52.771 152.882  25.894  0.00  0.00    +0.194 C 
ATOM      3  C   UNL     1      53.533 153.558  24.962  0.00  0.00    +0.120 C 
ATOM      4  C   UNL     1      54.340 152.905  24.048  0.00  0.00    +0.153 C 
ATOM      5  C   UNL     1      54.362 151.528  24.092  0.00  0.00    +0.075 C 
ATOM      6  C   UNL     1      53.621 150.804  24.995  0.00  0.00    +0.143 C 
ATOM      7  C   UNL     1      52.816 151.500  25.903  0.00  0.00    +0.114 C 
BRANCH   3   8
ATOM      8  N   UNL     1      53.422 154.972  24.896  0.00  0.00    -0.299 N 
ATOM      9  C   UNL     1      52.854 156.268  25.064  0.00  0.00    +0.112 C 
ATOM     10  C   UNL     1      54.138 156.238  24.423  0.00  0.00    +0.112 C 
ENDBRANCH   3   8
BRANCH   7  11
ATOM     11  C   UNL     1      52.005 150.702  26.789  0.00  0.00    +0.240 C 
ATOM     12  O   UNL     1      51.389 151.232  27.728  0.00  0.00    -0.283 OA
ENDBRANCH   7  11
BRANCH   6  13
ATOM     13  O   UNL     1      53.638 149.421  25.044  0.00  0.00    -0.505 OA
ATOM     14  H   UNL     1      54.171 148.937  24.444  0.00  0.00    +0.292 HD
ENDBRANCH   6  13
BRANCH   4  15
ATOM     15  O   UNL     1      55.106 153.601  23.115  0.00  0.00    -0.504 OA
ATOM     16  H   UNL     1      55.644 153.133  22.507  0.00  0.00    +0.292 HD
ENDBRANCH   4  15
ENDBRANCH   1   2
BRANCH   1  17
ATOM     17  S   UNL     1      52.732 154.100  28.232  0.00  0.00    +0.032 S 
ATOM     18  O   UNL     1      54.223 154.283  27.988  0.00  0.00    -0.062 OA
ATOM     19  O   UNL     1      52.623 153.052  29.292  0.00  0.00    -0.062 OA
BRANCH  17  20
ATOM     20  C   UNL     1      52.088 155.635  28.821  0.00  0.00    +0.185 C 
ATOM     21  C   UNL     1      53.047 156.156  29.889  0.00  0.00    +0.037 C 
ATOM     22  C   UNL     1      53.295 157.597  29.564  0.00  0.00    +0.066 C 
ATOM     23  C   UNL     1      52.238 157.947  28.565  0.00  0.00    +0.153 C 
ATOM     24  O   UNL     1      51.712 159.022  28.460  0.00  0.00    -0.296 OA
ATOM     25  C   UNL     1      52.013 156.688  27.770  0.00  0.00    +0.093 C 
BRANCH  20  28
ATOM     26  O   UNL     1      48.631 155.695  29.144  0.00  0.00    -0.184 OA
ATOM     27  O   UNL     1      49.732 155.370  28.501  0.00  0.00    -0.188 OA
ATOM     28  C   UNL     1      50.723 155.468  29.448  0.00  0.00    +0.293 C 
ATOM     29  O   UNL     1      50.400 156.613  30.161  0.00  0.00    -0.296 OA
ATOM     30  C   UNL     1      49.026 156.756  29.928  0.00  0.00    +0.331 C 
ENDBRANCH  20  28
ENDBRANCH  17  20
ENDBRANCH   1  17
TORSDOF 8
