REMARK  Name = =
REMARK  5 active torsions:
REMARK  status: ('A' for Active; 'I' for Inactive)
REMARK    1  A    between atoms: N_1  and  S_7
REMARK    2  A    between atoms: C_5  and  C_11
REMARK    3  A    between atoms: S_7  and  N_10
REMARK    4  A    between atoms: C_11  and  C_13
REMARK    5  A    between atoms: C_12  and  C_19
REMARK                            x       y       z     vdW  Elec       q    Type
REMARK                         _______ _______ _______ _____ _____    ______ ____
ROOT
ATOM      1  N   UNL     1      -4.595  -4.180  31.770  0.00  0.00    -0.076 N 
ATOM      2  C   UNL     1      -4.175  -4.332  30.467  0.00  0.00    +0.327 C 
ATOM      3  O   UNL     1      -4.495  -3.767  29.403  0.00  0.00    -0.251 OA
ATOM      4  N   UNL     1      -3.140  -5.351  30.222  0.00  0.00    -0.312 N 
ATOM      5  C   UNL     1      -5.483  -3.325  32.372  0.00  0.00    +0.272 C 
ATOM      6  O   UNL     1      -5.409  -3.430  33.703  0.00  0.00    -0.268 OA
ATOM      7  H   UNL     1      -2.786  -5.883  30.971  0.00  0.00    +0.147 HD
ATOM      8  H   UNL     1      -2.803  -5.500  29.309  0.00  0.00    +0.147 HD
ENDROOT
BRANCH   1   9
ATOM      9  S   UNL     1      -3.751  -5.261  32.940  0.00  0.00    +0.119 S 
ATOM     10  O   UNL     1      -3.610  -4.462  34.203  0.00  0.00    -0.138 OA
ATOM     11  O   UNL     1      -2.417  -5.581  32.412  0.00  0.00    -0.138 OA
BRANCH   9  12
ATOM     12  N   UNL     1      -4.714  -6.662  33.125  0.00  0.00    -0.190 NA
ATOM     13  H   UNL     1      -5.629  -6.400  33.492  0.00  0.00    +0.146 HD
ATOM     14  H   UNL     1      -4.259  -7.304  33.773  0.00  0.00    +0.146 HD
ENDBRANCH   9  12
ENDBRANCH   1   9
BRANCH   5  15
ATOM     15  C   UNL     1      -6.471  -2.348  32.015  0.00  0.00    +0.034 C 
ATOM     16  C   UNL     1      -7.714  -2.345  32.454  0.00  0.00    -0.013 C 
BRANCH  15  17
ATOM     17  C   UNL     1      -6.143  -1.236  31.041  0.00  0.00    +0.048 C 
ATOM     18  C   UNL     1      -7.143  -0.101  31.308  0.00  0.00    +0.009 C 
ATOM     19  C   UNL     1      -6.953   0.261  32.782  0.00  0.00    +0.005 C 
ATOM     20  C   UNL     1      -5.656   1.002  32.893  0.00  0.00    +0.026 C 
ATOM     21  C   UNL     1      -4.526   0.397  32.161  0.00  0.00    -0.030 C 
ATOM     22  C   UNL     1      -4.760  -0.671  31.196  0.00  0.00    -0.027 C 
ENDBRANCH  15  17
BRANCH  16  23
ATOM     23  C   UNL     1      -8.315  -3.277  33.344  0.00  0.00    +0.094 C 
ATOM     24  S   UNL     1      -9.964  -3.573  33.226  0.00  0.00    -0.077 S 
ENDBRANCH  16  23
ENDBRANCH   5  15
TORSDOF 5
