REMARK  Name = =
REMARK  4 active torsions:
REMARK  status: ('A' for Active; 'I' for Inactive)
REMARK    1  A    between atoms: C_1  and  S_19
REMARK    2  A    between atoms: C_4  and  O_23
REMARK    3  A    between atoms: C_6  and  C_7
REMARK    4  A    between atoms: S_19  and  N_22
REMARK                            x       y       z     vdW  Elec       q    Type
REMARK                         _______ _______ _______ _____ _____    ______ ____
ROOT
ATOM      1  C   UNL     1     -11.657 -44.688  27.915  0.00  0.00    +0.118 C 
ATOM      2  C   UNL     1     -10.375 -44.953  27.492  0.00  0.00    +0.023 C 
ATOM      3  C   UNL     1      -9.238 -44.443  28.073  0.00  0.00    +0.038 C 
ATOM      4  C   UNL     1      -9.433 -43.612  29.150  0.00  0.00    +0.133 C 
ATOM      5  C   UNL     1     -10.710 -43.338  29.582  0.00  0.00    +0.034 C 
ATOM      6  C   UNL     1     -11.866 -43.851  28.997  0.00  0.00    +0.005 C 
ENDROOT
BRANCH   6   7
ATOM      7  C   UNL     1     -13.156 -43.410  29.418  0.00  0.00    +0.066 C 
ATOM      8  C   UNL     1     -13.604 -43.607  30.841  0.00  0.00    +0.096 C 
ATOM      9  N   UNL     1     -15.042 -43.263  30.780  0.00  0.00    -0.332 N 
ATOM     10  C   UNL     1     -15.443 -43.391  29.424  0.00  0.00    +0.040 C 
ATOM     11  C   UNL     1     -14.258 -42.924  28.619  0.00  0.00    -0.005 C 
ATOM     12  C   UNL     1     -14.474 -42.261  27.547  0.00  0.00    +0.003 C 
ATOM     13  C   UNL     1     -15.791 -41.931  27.016  0.00  0.00    +0.147 C 
ATOM     14  N   UNL     1     -15.615 -41.261  25.937  0.00  0.00    -0.262 NA
ATOM     15  C   UNL     1     -14.209 -41.105  25.687  0.00  0.00    +0.094 C 
ATOM     16  C   UNL     1     -13.500 -41.685  26.622  0.00  0.00    +0.018 C 
ATOM     17  C   UNL     1     -16.929 -42.376  27.796  0.00  0.00    +0.003 C 
ATOM     18  C   UNL     1     -16.695 -43.058  28.925  0.00  0.00    +0.012 C 
ATOM     19  H   UNL     1     -15.613 -42.996  31.536  0.00  0.00    +0.147 HD
ENDBRANCH   6   7
BRANCH   1  20
ATOM     20  S   UNL     1     -12.948 -45.475  27.104  0.00  0.00    +0.057 S 
ATOM     21  O   UNL     1     -12.437 -46.778  26.554  0.00  0.00    -0.153 OA
ATOM     22  O   UNL     1     -14.043 -45.934  28.056  0.00  0.00    -0.153 OA
BRANCH  20  23
ATOM     23  N   UNL     1     -13.629 -44.633  25.765  0.00  0.00    -0.203 NA
ATOM     24  H   UNL     1     -13.995 -43.734  26.079  0.00  0.00    +0.144 HD
ATOM     25  H   UNL     1     -14.386 -45.187  25.364  0.00  0.00    +0.144 HD
ENDBRANCH  20  23
ENDBRANCH   1  20
BRANCH   4  26
ATOM     26  O   UNL     1      -8.297 -43.079  29.752  0.00  0.00    -0.506 OA
ATOM     27  H   UNL     1      -7.447 -43.295  29.422  0.00  0.00    +0.292 HD
ENDBRANCH   4  26
TORSDOF 4
