REMARK  Name = =
REMARK  6 active torsions:
REMARK  status: ('A' for Active; 'I' for Inactive)
REMARK    1  A    between atoms: C_1  and  S_19
REMARK    2  A    between atoms: C_4  and  O_30
REMARK    3  A    between atoms: C_6  and  C_7
REMARK    4  A    between atoms: S_19  and  N_22
REMARK    5  A    between atoms: N_22  and  O_23
REMARK    6  A    between atoms: O_23  and  C_24
REMARK                            x       y       z     vdW  Elec       q    Type
REMARK                         _______ _______ _______ _____ _____    ______ ____
ROOT
ATOM      1  C   UNL     1     -12.581 -44.225  31.242  0.00  0.00    +0.121 C 
ATOM      2  C   UNL     1     -13.940 -43.993  31.192  0.00  0.00    +0.023 C 
ATOM      3  C   UNL     1     -14.566 -43.033  31.928  0.00  0.00    +0.038 C 
ATOM      4  C   UNL     1     -13.817 -42.245  32.770  0.00  0.00    +0.133 C 
ATOM      5  C   UNL     1     -12.441 -42.461  32.837  0.00  0.00    +0.034 C 
ATOM      6  C   UNL     1     -11.822 -43.424  32.098  0.00  0.00    +0.002 C 
ENDROOT
BRANCH   6   7
ATOM      7  C   UNL     1     -10.394 -43.634  32.143  0.00  0.00    +0.053 C 
ATOM      8  C   UNL     1      -9.663 -42.906  33.277  0.00  0.00    +0.092 C 
ATOM      9  N   UNL     1      -8.243 -42.906  32.830  0.00  0.00    -0.335 N 
ATOM     10  C   UNL     1      -8.235 -43.331  31.470  0.00  0.00    +0.026 C 
ATOM     11  C   UNL     1      -9.614 -42.999  31.045  0.00  0.00    +0.065 C 
ATOM     12  C   UNL     1      -9.925 -42.321  29.994  0.00  0.00    +0.002 C 
ATOM     13  C   UNL     1      -8.848 -41.843  29.121  0.00  0.00    +0.078 C 
ATOM     14  N   UNL     1      -9.395 -41.193  28.136  0.00  0.00    -0.244 NA
ATOM     15  C   UNL     1     -10.809 -41.184  28.263  0.00  0.00    +0.099 C 
ATOM     16  C   UNL     1     -11.154 -41.845  29.354  0.00  0.00    +0.018 C 
ATOM     17  C   UNL     1      -7.480 -42.150  29.497  0.00  0.00    +0.020 C 
ATOM     18  C   UNL     1      -7.204 -42.841  30.591  0.00  0.00    +0.012 C 
ATOM     19  H   UNL     1      -7.459 -42.659  33.371  0.00  0.00    +0.147 HD
ENDBRANCH   6   7
BRANCH   1  20
ATOM     20  S   UNL     1     -11.924 -45.493  30.266  0.00  0.00    +0.090 S 
ATOM     21  O   UNL     1     -10.438 -45.294  30.119  0.00  0.00    -0.150 OA
ATOM     22  O   UNL     1     -12.165 -46.855  30.850  0.00  0.00    -0.150 OA
BRANCH  20  23
ATOM     23  N   UNL     1     -12.686 -45.475  28.723  0.00  0.00    -0.020 NA
ATOM     24  H   UNL     1     -13.695 -45.558  28.848  0.00  0.00    +0.195 HD
BRANCH  23  25
ATOM     25  O   UNL     1     -12.410 -44.309  28.056  0.00  0.00    -0.383 OA
BRANCH  25  26
ATOM     26  C   UNL     1     -13.454 -43.752  27.339  0.00  0.00    +0.186 C 
ATOM     27  C   UNL     1     -14.612 -43.395  27.983  0.00  0.00    +0.138 C 
ATOM     28  N   UNL     1     -15.626 -42.849  27.245  0.00  0.00    -0.239 NA
ATOM     29  C   UNL     1     -15.530 -42.651  25.918  0.00  0.00    +0.099 C 
ATOM     30  C   UNL     1     -14.369 -43.002  25.237  0.00  0.00    +0.024 C 
ATOM     31  C   UNL     1     -13.352 -43.552  25.987  0.00  0.00    +0.043 C 
ENDBRANCH  25  26
ENDBRANCH  23  25
ENDBRANCH  20  23
ENDBRANCH   1  20
BRANCH   4  32
ATOM     32  O   UNL     1     -14.459 -41.272  33.514  0.00  0.00    -0.506 OA
ATOM     33  H   UNL     1     -15.386 -41.160  33.439  0.00  0.00    +0.292 HD
ENDBRANCH   4  32
TORSDOF 6
