REMARK  Name = =
REMARK  3 active torsions:
REMARK  status: ('A' for Active; 'I' for Inactive)
REMARK    1  A    between atoms: P_1  and  N_3
REMARK    2  A    between atoms: P_1  and  O_4
REMARK    3  A    between atoms: P_1  and  O_5
REMARK                            x       y       z     vdW  Elec       q    Type
REMARK                         _______ _______ _______ _____ _____    ______ ____
ROOT
ATOM      1  P   UNL     1      51.984 154.650  28.147  0.00  0.00    +0.400 P 
ATOM      2  O   UNL     1      50.642 155.046  28.720  0.00  0.00    -0.240 OA
ENDROOT
BRANCH   1   3
ATOM      3  N   UNL     1      52.575 153.170  28.829  0.00  0.00    -0.237 NA
ATOM      4  H   UNL     1      52.752 153.301  29.825  0.00  0.00    +0.130 HD
ATOM      5  H   UNL     1      53.442 152.903  28.362  0.00  0.00    +0.130 HD
ENDBRANCH   1   3
BRANCH   1   6
ATOM      6  O   UNL     1      53.095 155.902  28.262  0.00  0.00    -0.312 OA
ATOM      7  H   UNL     1      53.267 156.097  29.197  0.00  0.00    +0.221 HD
ENDBRANCH   1   6
BRANCH   1   8
ATOM      8  O   UNL     1      51.715 154.346  26.486  0.00  0.00    -0.312 OA
ATOM      9  H   UNL     1      51.382 155.151  26.060  0.00  0.00    +0.221 HD
ENDBRANCH   1   8
TORSDOF 3
