REMARK  Name = =
REMARK  0 active torsions:
REMARK  status: ('A' for Active; 'I' for Inactive)
REMARK                            x       y       z     vdW  Elec       q    Type
REMARK                         _______ _______ _______ _____ _____    ______ ____
ROOT
ATOM      1  C   UNL     1      50.404 155.543  29.450  0.00  0.00    +0.002 C 
ATOM      2  C   UNL     1      50.576 155.467  28.086  0.00  0.00    +0.021 C 
ATOM      3  C   UNL     1      51.606 154.719  27.553  0.00  0.00    +0.099 A 
ATOM      4  C   UNL     1      52.488 154.028  28.374  0.00  0.00    +0.099 A 
ATOM      5  C   UNL     1      52.270 154.136  29.730  0.00  0.00    +0.021 C 
ATOM      6  C   UNL     1      51.266 154.864  30.315  0.00  0.00    +0.002 C 
ATOM      7  N   UNL     1      53.502 153.287  27.901  0.00  0.00    -0.242 NA
ATOM      8  C   UNL     1      53.652 153.229  26.550  0.00  0.00    +0.099 A 
ATOM      9  C   UNL     1      54.676 152.485  25.988  0.00  0.00    +0.021 C 
ATOM     10  C   UNL     1      54.840 152.418  24.622  0.00  0.00    +0.002 C 
ATOM     11  C   UNL     1      54.001 153.078  23.749  0.00  0.00    +0.002 C 
ATOM     12  C   UNL     1      52.983 153.818  24.310  0.00  0.00    +0.021 C 
ATOM     13  C   UNL     1      52.808 153.895  25.687  0.00  0.00    +0.099 A 
ATOM     14  N   UNL     1      51.806 154.622  26.227  0.00  0.00    -0.242 NA
ENDROOT
TORSDOF 0
