REMARK  Name = =
REMARK  5 active torsions:
REMARK  status: ('A' for Active; 'I' for Inactive)
REMARK    1  A    between atoms: N_1  and  O_10
REMARK    2  A    between atoms: C_2  and  C_4
REMARK    3  A    between atoms: O_10  and  P_11
REMARK    4  A    between atoms: P_11  and  N_13
REMARK    5  A    between atoms: P_11  and  O_14
REMARK                            x       y       z     vdW  Elec       q    Type
REMARK                         _______ _______ _______ _____ _____    ______ ____
ROOT
ATOM      1  N   UNL     1      54.415 153.429  25.717  0.00  0.00    -0.181 N 
ATOM      2  C   UNL     1      53.420 152.487  26.070  0.00  0.00    +0.268 C 
ATOM      3  O   UNL     1      52.474 152.919  26.794  0.00  0.00    -0.268 OA
ATOM      4  H   UNL     1      55.166 153.126  25.158  0.00  0.00    +0.183 HD
ENDROOT
BRANCH   2   5
ATOM      5  C   UNL     1      53.445 151.087  25.644  0.00  0.00    +0.055 C 
ATOM      6  C   UNL     1      52.494 150.198  26.126  0.00  0.00    +0.005 C 
ATOM      7  C   UNL     1      52.475 148.862  25.753  0.00  0.00    +0.000 C 
ATOM      8  C   UNL     1      53.418 148.369  24.872  0.00  0.00    +0.000 C 
ATOM      9  C   UNL     1      54.377 149.233  24.375  0.00  0.00    +0.000 C 
ATOM     10  C   UNL     1      54.371 150.567  24.770  0.00  0.00    +0.005 C 
ENDBRANCH   2   5
BRANCH   1  11
ATOM     11  O   UNL     1      54.388 154.731  26.110  0.00  0.00    -0.185 OA
BRANCH  11  12
ATOM     12  P   UNL     1      52.914 155.471  25.885  0.00  0.00    +0.422 P 
ATOM     13  O   UNL     1      52.149 154.910  24.701  0.00  0.00    -0.238 OA
BRANCH  12  14
ATOM     14  N   UNL     1      52.004 155.348  27.369  0.00  0.00    -0.235 NA
ATOM     15  H   UNL     1      51.855 154.365  27.596  0.00  0.00    +0.130 HD
ATOM     16  H   UNL     1      51.102 155.811  27.254  0.00  0.00    +0.130 HD
ENDBRANCH  12  14
BRANCH  12  17
ATOM     17  O   UNL     1      53.137 157.132  25.548  0.00  0.00    -0.311 OA
ATOM     18  H   UNL     1      53.642 157.230  24.725  0.00  0.00    +0.221 HD
ENDBRANCH  12  17
ENDBRANCH  11  12
ENDBRANCH   1  11
TORSDOF 5
