REMARK  Name = =
REMARK  2 active torsions:
REMARK  status: ('A' for Active; 'I' for Inactive)
REMARK    1  A    between atoms: N_1  and  C_20
REMARK    2  A    between atoms: C_20  and  C_35
REMARK                            x       y       z     vdW  Elec       q    Type
REMARK                         _______ _______ _______ _____ _____    ______ ____
ROOT
ATOM      1  N   UNL     1      53.182 153.662  27.487  0.00  0.00    -0.260 NA
ATOM      2  C   UNL     1      52.682 154.886  27.044  0.00  0.00    +0.063 C 
ATOM      3  C   UNL     1      51.437 155.214  27.788  0.00  0.00    +0.023 C 
ATOM      4  C   UNL     1      51.882 155.546  29.205  0.00  0.00    +0.068 C 
ATOM      5  C   UNL     1      50.738 155.886  30.142  0.00  0.00    +0.226 C 
ATOM      6  O   UNL     1      51.032 157.177  30.692  0.00  0.00    -0.472 OA
ATOM      7  C   UNL     1      51.977 157.813  29.861  0.00  0.00    +0.135 C 
ATOM      8  C   UNL     1      52.456 156.892  29.016  0.00  0.00    +0.011 C 
ATOM      9  C   UNL     1      53.377 157.086  28.049  0.00  0.00    -0.022 C 
ATOM     10  C   UNL     1      53.898 158.353  27.892  0.00  0.00    -0.004 C 
ATOM     11  C   UNL     1      53.429 159.353  28.755  0.00  0.00    +0.003 C 
ATOM     12  C   UNL     1      52.478 159.116  29.740  0.00  0.00    +0.037 C 
ATOM     13  C   UNL     1      53.781 155.938  27.156  0.00  0.00    +0.042 C 
ATOM     14  C   UNL     1      49.449 155.858  29.440  0.00  0.00    +0.191 C 
ATOM     15  O   UNL     1      48.634 156.745  29.541  0.00  0.00    -0.292 OA
ATOM     16  C   UNL     1      49.134 154.691  28.569  0.00  0.00    +0.068 C 
ATOM     17  C   UNL     1      50.324 154.294  27.705  0.00  0.00    +0.010 C 
ATOM     18  C   UNL     1      52.798 154.539  29.775  0.00  0.00    +0.025 C 
ATOM     19  C   UNL     1      53.223 153.425  28.889  0.00  0.00    +0.074 C 
ENDROOT
BRANCH   1  20
ATOM     20  C   UNL     1      53.697 152.692  26.650  0.00  0.00    +0.194 C 
ATOM     21  C   UNL     1      53.012 151.366  26.768  0.00  0.00    +0.198 C 
ATOM     22  O   UNL     1      52.281 150.866  27.633  0.00  0.00    -0.289 OA
ATOM     23  C   UNL     1      53.388 150.645  25.538  0.00  0.00    +0.040 C 
ATOM     24  C   UNL     1      53.744 151.576  24.576  0.00  0.00    +0.040 C 
ATOM     25  C   UNL     1      54.136 151.117  23.329  0.00  0.00    +0.003 C 
ATOM     26  C   UNL     1      54.166 149.763  23.063  0.00  0.00    +0.000 C 
ATOM     27  C   UNL     1      53.807 148.836  24.036  0.00  0.00    +0.000 C 
ATOM     28  C   UNL     1      53.413 149.294  25.288  0.00  0.00    +0.003 C 
ATOM     29  C   UNL     1      53.597 152.890  25.187  0.00  0.00    +0.198 C 
ATOM     30  O   UNL     1      53.425 153.922  24.517  0.00  0.00    -0.289 OA
BRANCH  20  35
ATOM     31  C   UNL     1      55.682 152.320  28.147  0.00  0.00    +0.126 C 
ATOM     32  N   UNL     1      57.066 152.090  28.298  0.00  0.00    -0.189 NA
ATOM     33  S   UNL     1      57.613 152.050  26.596  0.00  0.00    +0.116 S 
ATOM     34  N   UNL     1      56.073 152.323  25.888  0.00  0.00    -0.192 NA
ATOM     35  C   UNL     1      55.161 152.439  26.978  0.00  0.00    +0.115 C 
ENDBRANCH  20  35
ENDBRANCH   1  20
TORSDOF 2
