REMARK  Name = =
REMARK  6 active torsions:
REMARK  status: ('A' for Active; 'I' for Inactive)
REMARK    1  A    between atoms: N_1  and  N_10
REMARK    2  A    between atoms: N_1  and  O_15
REMARK    3  A    between atoms: C_2  and  C_4
REMARK    4  A    between atoms: O_15  and  P_16
REMARK    5  A    between atoms: P_16  and  N_18
REMARK    6  A    between atoms: P_16  and  O_19
REMARK                            x       y       z     vdW  Elec       q    Type
REMARK                         _______ _______ _______ _____ _____    ______ ____
ROOT
ATOM      1  N   UNL     1      53.770 152.995  26.446  0.00  0.00    -0.090 N 
ATOM      2  C   UNL     1      54.381 153.597  25.358  0.00  0.00    +0.286 C 
ATOM      3  O   UNL     1      55.012 152.762  24.582  0.00  0.00    -0.266 OA
ENDROOT
BRANCH   2   4
ATOM      4  C   UNL     1      54.433 154.981  24.947  0.00  0.00    +0.057 C 
ATOM      5  C   UNL     1      55.355 155.337  23.935  0.00  0.00    +0.005 C 
ATOM      6  C   UNL     1      55.500 156.651  23.525  0.00  0.00    +0.000 C 
ATOM      7  C   UNL     1      54.746 157.633  24.104  0.00  0.00    +0.000 C 
ATOM      8  C   UNL     1      53.828 157.336  25.101  0.00  0.00    +0.000 C 
ATOM      9  C   UNL     1      53.691 156.007  25.504  0.00  0.00    +0.005 C 
ENDBRANCH   2   4
BRANCH   1  10
ATOM     10  N   UNL     1      52.939 153.670  27.363  0.00  0.00    -0.159 NA
ATOM     11  C   UNL     1      53.112 153.945  28.758  0.00  0.00    +0.115 C 
ATOM     12  C   UNL     1      51.674 154.069  29.255  0.00  0.00    +0.110 C 
ATOM     13  N   UNL     1      50.950 154.442  28.052  0.00  0.00    -0.198 NA
ATOM     14  C   UNL     1      51.656 154.219  27.001  0.00  0.00    +0.183 C 
ENDBRANCH   1  10
BRANCH   1  15
ATOM     15  O   UNL     1      53.940 151.650  26.626  0.00  0.00    -0.167 OA
BRANCH  15  16
ATOM     16  P   UNL     1      53.048 150.668  25.637  0.00  0.00    +0.424 P 
ATOM     17  O   UNL     1      51.907 151.421  25.009  0.00  0.00    -0.238 OA
BRANCH  16  18
ATOM     18  N   UNL     1      53.966 149.908  24.353  0.00  0.00    -0.235 NA
ATOM     19  H   UNL     1      53.346 149.323  23.792  0.00  0.00    +0.130 HD
ATOM     20  H   UNL     1      54.704 149.331  24.758  0.00  0.00    +0.130 HD
ENDBRANCH  16  18
BRANCH  16  21
ATOM     21  O   UNL     1      52.453 149.375  26.608  0.00  0.00    -0.311 OA
ATOM     22  H   UNL     1      51.932 149.735  27.342  0.00  0.00    +0.221 HD
ENDBRANCH  16  21
ENDBRANCH  15  16
ENDBRANCH   1  15
TORSDOF 6
