REMARK  Name = =
REMARK  13 active torsions:
REMARK  status: ('A' for Active; 'I' for Inactive)
REMARK    1  A    between atoms: C_1  and  C_8
REMARK    2  A    between atoms: N_7  and  N_10
REMARK    3  A    between atoms: N_7  and  O_15
REMARK    4  A    between atoms: O_15  and  P_16
REMARK    5  A    between atoms: P_16  and  N_18
REMARK    6  A    between atoms: P_16  and  O_19
REMARK    7  A    between atoms: O_21  and  O_28
REMARK    8  A    between atoms: O_23  and  P_24
REMARK    9  A    between atoms: P_24  and  O_26
REMARK   10  A    between atoms: P_24  and  O_27
REMARK   11  A    between atoms: O_28  and  P_29
REMARK   12  A    between atoms: P_29  and  O_31
REMARK   13  A    between atoms: P_29  and  O_32
REMARK                            x       y       z     vdW  Elec       q    Type
REMARK                         _______ _______ _______ _____ _____    ______ ____
ROOT
ATOM      1  N   UNL     1      52.989 154.155  25.406  0.00  0.00    -0.070 N 
ATOM      2  C   UNL     1      52.747 155.315  26.127  0.00  0.00    +0.289 C 
ATOM      3  O   UNL     1      52.845 156.420  25.458  0.00  0.00    -0.266 OA
ENDROOT
BRANCH   2   4
ATOM      4  C   UNL     1      52.394 155.496  27.517  0.00  0.00    +0.057 C 
ATOM      5  C   UNL     1      52.639 154.534  28.443  0.00  0.00    +0.005 C 
ATOM      6  C   UNL     1      52.218 154.751  29.747  0.00  0.00    +0.000 C 
ATOM      7  C   UNL     1      51.580 155.883  30.119  0.00  0.00    +0.000 C 
ATOM      8  C   UNL     1      51.311 156.885  29.222  0.00  0.00    +0.000 C 
ATOM      9  C   UNL     1      51.727 156.666  27.930  0.00  0.00    +0.005 C 
ENDBRANCH   2   4
BRANCH   1  10
ATOM     10  N   UNL     1      52.881 152.843  25.808  0.00  0.00    -0.168 N 
ATOM     11  C   UNL     1      53.815 151.785  25.518  0.00  0.00    +0.110 C 
ATOM     12  C   UNL     1      53.129 150.496  25.970  0.00  0.00    +0.118 C 
ATOM     13  N   UNL     1      51.955 150.978  26.635  0.00  0.00    -0.223 NA
ATOM     14  C   UNL     1      51.811 152.236  26.556  0.00  0.00    +0.187 C 
ENDBRANCH   1  10
BRANCH   1  15
ATOM     15  O   UNL     1      53.342 154.288  24.077  0.00  0.00    -0.163 OA
BRANCH  15  16
ATOM     16  P   UNL     1      54.981 154.647  24.004  0.00  0.00    +0.424 P 
ATOM     17  O   UNL     1      55.468 154.261  22.619  0.00  0.00    -0.238 OA
BRANCH  16  18
ATOM     18  N   UNL     1      55.848 153.728  25.211  0.00  0.00    -0.235 NA
ATOM     19  H   UNL     1      55.694 152.732  25.055  0.00  0.00    +0.130 HD
ATOM     20  H   UNL     1      55.511 153.983  26.139  0.00  0.00    +0.130 HD
ENDBRANCH  16  18
BRANCH  16  21
ATOM     21  O   UNL     1      55.221 156.299  24.242  0.00  0.00    -0.311 OA
ATOM     22  H   UNL     1      54.735 156.797  23.566  0.00  0.00    +0.221 HD
ENDBRANCH  16  21
ENDBRANCH  15  16
ENDBRANCH   1  15
TORSDOF 6
REMARK  Name = =
REMARK  13 active torsions:
REMARK  status: ('A' for Active; 'I' for Inactive)
REMARK    1  A    between atoms: C_1  and  C_8
REMARK    2  A    between atoms: N_7  and  N_10
REMARK    3  A    between atoms: N_7  and  O_15
REMARK    4  A    between atoms: O_15  and  P_16
REMARK    5  A    between atoms: P_16  and  N_18
REMARK    6  A    between atoms: P_16  and  O_19
REMARK    7  A    between atoms: O_21  and  O_28
REMARK    8  A    between atoms: O_23  and  P_24
REMARK    9  A    between atoms: P_24  and  O_26
REMARK   10  A    between atoms: P_24  and  O_27
REMARK   11  A    between atoms: O_28  and  P_29
REMARK   12  A    between atoms: P_29  and  O_31
REMARK   13  A    between atoms: P_29  and  O_32
REMARK                            x       y       z     vdW  Elec       q    Type
REMARK                         _______ _______ _______ _____ _____    ______ ____
ROOT
ATOM      1  P   UNL     1      51.832 160.595  30.643  0.00  0.00    +0.499 P 
ATOM      2  O   UNL     1      51.668 162.054  30.180  0.00  0.00    -0.225 OA
ENDROOT
BRANCH   1   3
ATOM      3  O   UNL     1      53.488 160.478  31.056  0.00  0.00    -0.301 OA
ATOM      4  H   UNL     1      53.682 159.578  31.363  0.00  0.00    +0.222 HD
ENDBRANCH   1   3
BRANCH   1   5
ATOM      5  O   UNL     1      50.844 160.416  31.961  0.00  0.00    -0.301 OA
ATOM      6  H   UNL     1      50.911 159.507  32.294  0.00  0.00    +0.222 HD
ENDBRANCH   1   5
BRANCH   1   7
ATOM      7  O   UNL     1      51.501 159.649  29.326  0.00  0.00    -0.122 OA
BRANCH   7   9
ATOM      8  P   UNL     1      50.529 158.351  29.781  0.00  0.00    +0.195 P 
ATOM      9  O   UNL     1      50.305 159.621  29.035  0.00  0.00    -0.189 OA
ENDBRANCH   7   9
ENDBRANCH   1   7
TORSDOF 4
REMARK  Name = =
REMARK  13 active torsions:
REMARK  status: ('A' for Active; 'I' for Inactive)
REMARK    1  A    between atoms: C_1  and  C_8
REMARK    2  A    between atoms: N_7  and  N_10
REMARK    3  A    between atoms: N_7  and  O_15
REMARK    4  A    between atoms: O_15  and  P_16
REMARK    5  A    between atoms: P_16  and  N_18
REMARK    6  A    between atoms: P_16  and  O_19
REMARK    7  A    between atoms: O_21  and  O_28
REMARK    8  A    between atoms: O_23  and  P_24
REMARK    9  A    between atoms: P_24  and  O_26
REMARK   10  A    between atoms: P_24  and  O_27
REMARK   11  A    between atoms: O_28  and  P_29
REMARK   12  A    between atoms: P_29  and  O_31
REMARK   13  A    between atoms: P_29  and  O_32
REMARK                            x       y       z     vdW  Elec       q    Type
REMARK                         _______ _______ _______ _____ _____    ______ ____
ROOT
ATOM      1  O   HOH     1      50.221 157.782  31.340  0.00  0.00    -0.253 OA
ATOM      2  H   HOH     0      51.191 157.782  31.340  0.00  0.00    +0.253 HD
ENDROOT
TORSDOF 0
REMARK  Name = =
REMARK  13 active torsions:
REMARK  status: ('A' for Active; 'I' for Inactive)
REMARK    1  A    between atoms: C_1  and  C_8
REMARK    2  A    between atoms: N_7  and  N_10
REMARK    3  A    between atoms: N_7  and  O_15
REMARK    4  A    between atoms: O_15  and  P_16
REMARK    5  A    between atoms: P_16  and  N_18
REMARK    6  A    between atoms: P_16  and  O_19
REMARK    7  A    between atoms: O_21  and  O_28
REMARK    8  A    between atoms: O_23  and  P_24
REMARK    9  A    between atoms: P_24  and  O_26
REMARK   10  A    between atoms: P_24  and  O_27
REMARK   11  A    between atoms: O_28  and  P_29
REMARK   12  A    between atoms: P_29  and  O_31
REMARK   13  A    between atoms: P_29  and  O_32
REMARK                            x       y       z     vdW  Elec       q    Type
REMARK                         _______ _______ _______ _____ _____    ______ ____
ROOT
ATOM      1  P   UNL     1      48.261 159.574  30.698  0.00  0.00    +0.470 P 
ATOM      2  O   UNL     1      48.758 159.349  32.128  0.00  0.00    -0.228 OA
ENDROOT
BRANCH   1   3
ATOM      3  O   UNL     1      48.842 158.267  29.789  0.00  0.00    -0.303 OA
ATOM      4  H   UNL     1      48.501 157.438  30.160  0.00  0.00    +0.222 HD
ENDBRANCH   1   3
BRANCH   1   5
ATOM      5  O   UNL     1      46.556 159.575  30.750  0.00  0.00    -0.303 OA
ATOM      6  H   UNL     1      46.243 158.731  31.111  0.00  0.00    +0.222 HD
ENDBRANCH   1   5
BRANCH   1   7
ATOM      7  O   UNL     1      48.833 161.017  30.080  0.00  0.00    -0.303 OA
ATOM      8  H   UNL     1      48.504 161.134  29.175  0.00  0.00    +0.222 HD
ENDBRANCH   1   7
TORSDOF 3
