MODEL 1
REMARK VINA RESULT:    -8.575      0.000      0.000
REMARK INTER + INTRA:         -15.888
REMARK INTER:                 -14.089
REMARK INTRA:                  -1.799
REMARK UNBOUND:                -1.799
REMARK  Name = =
REMARK  13 active torsions:
REMARK  status: ('A' for Active; 'I' for Inactive)
REMARK    1  A    between atoms: C_2  and  S_26
REMARK    2  A    between atoms: C_3  and  N_20
REMARK    3  A    between atoms: C_15  and  O_25
REMARK    4  A    between atoms: N_20  and  S_21
REMARK    5  A    between atoms: S_21  and  N_24
REMARK    6  A    between atoms: S_26  and  S_27
REMARK    7  A    between atoms: S_27  and  S_28
REMARK    8  A    between atoms: S_27  and  S_33
REMARK    9  A    between atoms: S_28  and  S_29
REMARK   10  A    between atoms: S_29  and  C_30
REMARK   11  A    between atoms: C_30  and  O_32
REMARK   12  A    between atoms: S_33  and  C_34
REMARK   13  A    between atoms: C_34  and  O_36
REMARK                            x       y       z     vdW  Elec       q    Type
REMARK                         _______ _______ _______ _____ _____    ______ ____
ROOT
ATOM      1  N   UNL     1      -1.657  -5.122  30.386  0.00  0.00    -0.260 NA
ATOM      2  C   UNL     1      -1.634  -6.078  29.271  0.00  0.00    +0.133 C 
ATOM      3  C   UNL     1      -0.941  -7.299  29.775  0.00  0.00    +0.109 C 
ATOM      4  C   UNL     1      -0.794  -7.053  31.251  0.00  0.00    +0.067 C 
ATOM      5  C   UNL     1      -1.856  -5.988  31.511  0.00  0.00    +0.069 C 
ATOM      6  C   UNL     1      -3.192  -6.684  31.338  0.00  0.00    +0.037 C 
ATOM      7  C   UNL     1      -3.370  -7.605  32.497  0.00  0.00    +0.007 C 
ATOM      8  C   UNL     1      -2.349  -8.710  32.364  0.00  0.00    +0.020 C 
ATOM      9  C   UNL     1      -0.964  -8.257  32.089  0.00  0.00    +0.075 C 
ATOM     10  N   UNL     1      -0.187  -7.927  33.263  0.00  0.00    -0.334 N 
ATOM     11  C   UNL     1       0.826  -7.010  32.866  0.00  0.00    +0.044 C 
ATOM     12  C   UNL     1       0.489  -6.469  31.649  0.00  0.00    -0.005 C 
ATOM     13  C   UNL     1       1.353  -5.556  31.090  0.00  0.00    +0.000 C 
ATOM     14  C   UNL     1       2.508  -5.192  31.718  0.00  0.00    +0.036 C 
ATOM     15  C   UNL     1       2.824  -5.746  32.939  0.00  0.00    +0.135 C 
ATOM     16  C   UNL     1       1.991  -6.662  33.535  0.00  0.00    +0.051 C 
ATOM     17  C   UNL     1      -4.276  -5.739  31.104  0.00  0.00    -0.028 C 
ATOM     18  C   UNL     1      -4.023  -4.550  30.591  0.00  0.00    -0.013 C 
ATOM     19  C   UNL     1      -2.657  -4.118  30.234  0.00  0.00    +0.099 C 
ATOM     20  H   UNL     1      -0.332  -8.275  34.173  0.00  0.00    +0.147 HD
ENDROOT
BRANCH   3  21
ATOM     21  N   UNL     1       0.284  -7.620  29.107  0.00  0.00    -0.168 NA
ATOM     22  H   UNL     1       0.987  -7.857  29.806  0.00  0.00    +0.150 HD
BRANCH  21  23
ATOM     23  S   UNL     1       0.100  -8.970  28.010  0.00  0.00    +0.093 S 
ATOM     24  O   UNL     1      -0.656  -8.539  26.776  0.00  0.00    -0.142 OA
ATOM     25  O   UNL     1       1.468  -9.452  27.618  0.00  0.00    -0.142 OA
BRANCH  23  26
ATOM     26  N   UNL     1      -0.704 -10.284  28.803  0.00  0.00    -0.193 NA
ATOM     27  H   UNL     1      -0.733 -10.108  29.808  0.00  0.00    +0.145 HD
ATOM     28  H   UNL     1      -0.197 -11.151  28.625  0.00  0.00    +0.145 HD
ENDBRANCH  23  26
ENDBRANCH  21  23
ENDBRANCH   3  21
BRANCH  15  29
ATOM     29  O   UNL     1       4.018  -5.371  33.592  0.00  0.00    -0.505 OA
ATOM     30  H   UNL     1       4.846  -5.538  33.187  0.00  0.00    +0.292 HD
ENDBRANCH  15  29
BRANCH   2  31
ATOM     31  S   UNL     1      -1.024  -5.320  27.849  0.00  0.00    -0.067 S 
BRANCH  31  32
ATOM     32  S   UNL     1       0.274  -4.221  27.912  0.00  0.00    -0.085 S 
ATOM     33  H   UNL     1       0.982  -3.709  28.953  0.00  0.00    +0.116 HD
BRANCH  32  34
ATOM     34  S   UNL     1      -0.554  -2.880  27.332  0.00  0.00    -0.018 S 
BRANCH  34  35
ATOM     35  S   UNL     1       0.170  -1.652  25.938  0.00  0.00    -0.001 S 
BRANCH  35  36
ATOM     36  C   UNL     1       1.516  -0.654  26.555  0.00  0.00    +0.209 C 
ATOM     37  S   UNL     1       2.302  -1.048  27.928  0.00  0.00    -0.003 S 
BRANCH  36  38
ATOM     38  O   UNL     1       1.929   0.486  25.882  0.00  0.00    -0.495 OA
ATOM     39  H   UNL     1       1.990   0.482  24.947  0.00  0.00    +0.293 HD
ENDBRANCH  36  38
ENDBRANCH  35  36
ENDBRANCH  34  35
ENDBRANCH  32  34
BRANCH  32  40
ATOM     40  S   UNL     1       1.407  -5.167  27.140  0.00  0.00    -0.014 S 
BRANCH  40  41
ATOM     41  C   UNL     1       2.862  -5.646  27.847  0.00  0.00    +0.208 C 
ATOM     42  S   UNL     1       4.133  -4.588  28.001  0.00  0.00    -0.003 S 
BRANCH  41  43
ATOM     43  O   UNL     1       3.115  -6.915  28.342  0.00  0.00    -0.495 OA
ATOM     44  H   UNL     1       3.500  -7.566  27.788  0.00  0.00    +0.293 HD
ENDBRANCH  41  43
ENDBRANCH  40  41
ENDBRANCH  32  40
ENDBRANCH  31  32
ENDBRANCH   2  31
TORSDOF 13
ENDMDL
