MODEL 1
REMARK VINA RESULT:    -5.865      0.000      0.000
REMARK INTER + INTRA:          -7.232
REMARK INTER:                  -6.722
REMARK INTRA:                  -0.510
REMARK UNBOUND:                -0.510
REMARK  Name = =
REMARK  3 active torsions:
REMARK  status: ('A' for Active; 'I' for Inactive)
REMARK    1  A    between atoms: C_1  and  N_19
REMARK    2  A    between atoms: N_19  and  S_20
REMARK    3  A    between atoms: S_20  and  N_23
REMARK                            x       y       z     vdW  Elec       q    Type
REMARK                         _______ _______ _______ _____ _____    ______ ____
ROOT
ATOM      1  C   UNL     1      60.387 161.498  40.983  0.00  0.00    +0.094 C 
ATOM      2  C   UNL     1      59.546 162.487  41.816  0.00  0.00    +0.022 C 
ATOM      3  C   UNL     1      58.127 161.957  41.727  0.00  0.00    +0.002 C 
ATOM      4  C   UNL     1      58.044 160.679  40.859  0.00  0.00    +0.004 C 
ATOM      5  C   UNL     1      58.436 161.061  39.510  0.00  0.00    +0.019 C 
ATOM      6  C   UNL     1      58.424 160.115  38.393  0.00  0.00    +0.004 C 
ATOM      7  C   UNL     1      58.910 160.761  37.100  0.00  0.00    +0.005 C 
ATOM      8  C   UNL     1      59.678 161.979  37.337  0.00  0.00    +0.025 C 
ATOM      9  C   UNL     1      59.730 163.014  36.475  0.00  0.00    +0.068 C 
ATOM     10  C   UNL     1      60.564 164.108  36.936  0.00  0.00    +0.151 C 
ATOM     11  O   UNL     1      60.181 165.280  36.747  0.00  0.00    -0.296 OA
ATOM     12  C   UNL     1      61.823 163.848  37.606  0.00  0.00    +0.069 C 
ATOM     13  C   UNL     1      61.759 162.716  38.660  0.00  0.00    +0.029 C 
ATOM     14  C   UNL     1      60.451 162.097  38.601  0.00  0.00    -0.050 C 
ATOM     15  C   UNL     1      59.883 161.579  39.647  0.00  0.00    -0.037 C 
ATOM     16  C   UNL     1      56.623 160.301  41.085  0.00  0.00    +0.000 C 
ATOM     17  C   UNL     1      56.447 160.521  42.575  0.00  0.00    +0.000 C 
ATOM     18  C   UNL     1      57.576 161.440  43.011  0.00  0.00    +0.000 C 
ENDROOT
BRANCH   1  19
ATOM     19  N   UNL     1      61.735 161.455  41.324  0.00  0.00    -0.167 NA
ATOM     20  H   UNL     1      61.862 161.839  42.261  0.00  0.00    +0.150 HD
BRANCH  19  21
ATOM     21  S   UNL     1      62.293 159.785  41.292  0.00  0.00    +0.093 S 
ATOM     22  O   UNL     1      63.249 159.510  42.399  0.00  0.00    -0.142 OA
ATOM     23  O   UNL     1      62.920 159.578  39.942  0.00  0.00    -0.142 OA
BRANCH  21  24
ATOM     24  N   UNL     1      60.969 158.686  41.425  0.00  0.00    -0.193 NA
ATOM     25  H   UNL     1      60.827 158.215  40.531  0.00  0.00    +0.145 HD
ATOM     26  H   UNL     1      60.125 159.199  41.677  0.00  0.00    +0.145 HD
ENDBRANCH  21  24
ENDBRANCH  19  21
ENDBRANCH   1  19
TORSDOF 3
ENDMDL
