MODEL 1
REMARK VINA RESULT:    -8.893      0.000      0.000
REMARK INTER + INTRA:          -8.408
REMARK INTER:                 -10.973
REMARK INTRA:                   2.565
REMARK UNBOUND:                 2.565
REMARK  Name = =
REMARK  5 active torsions:
REMARK  status: ('A' for Active; 'I' for Inactive)
REMARK    1  A    between atoms: N_1  and  C_29
REMARK    2  A    between atoms: C_5  and  C_19
REMARK    3  A    between atoms: N_8  and  C_17
REMARK    4  A    between atoms: P_36  and  O_38
REMARK    5  A    between atoms: P_36  and  O_39
REMARK                            x       y       z     vdW  Elec       q    Type
REMARK                         _______ _______ _______ _____ _____    ______ ____
ROOT
ATOM      1  N   UNL     1      57.641 162.019  40.895  0.00  0.00    -0.231 N 
ATOM      2  C   UNL     1      56.229 162.114  41.179  0.00  0.00    +0.088 C 
ATOM      3  C   UNL     1      55.533 163.197  41.674  0.00  0.00    +0.151 C 
ATOM      4  N   UNL     1      54.233 163.084  41.895  0.00  0.00    -0.226 NA
ATOM      5  C   UNL     1      53.589 161.931  41.645  0.00  0.00    +0.118 C 
ATOM      6  C   UNL     1      54.258 160.809  41.143  0.00  0.00    +0.024 C 
ATOM      7  C   UNL     1      55.616 160.913  40.906  0.00  0.00    +0.019 C 
ATOM      8  N   UNL     1      56.028 164.521  41.976  0.00  0.00    -0.243 N 
ATOM      9  C   UNL     1      57.069 165.192  41.291  0.00  0.00    +0.059 C 
ATOM     10  C   UNL     1      58.130 164.599  40.614  0.00  0.00    +0.068 C 
ATOM     11  C   UNL     1      59.034 165.434  40.009  0.00  0.00    +0.006 C 
ATOM     12  C   UNL     1      58.941 166.807  40.040  0.00  0.00    +0.000 C 
ATOM     13  C   UNL     1      57.858 167.362  40.730  0.00  0.00    +0.001 C 
ATOM     14  C   UNL     1      56.933 166.555  41.348  0.00  0.00    +0.015 C 
ATOM     15  C   UNL     1      58.400 163.180  40.461  0.00  0.00    +0.256 C 
ATOM     16  O   UNL     1      59.460 162.920  39.853  0.00  0.00    -0.269 OA
ENDROOT
BRANCH   5  17
ATOM     17  C   UNL     1      52.145 161.831  41.901  0.00  0.00    +0.180 C 
ATOM     18  N   UNL     1      51.363 162.899  41.712  0.00  0.00    -0.222 NA
ATOM     19  C   UNL     1      50.046 162.934  41.908  0.00  0.00    +0.121 C 
ATOM     20  C   UNL     1      49.456 161.765  42.343  0.00  0.00    +0.121 C 
ATOM     21  N   UNL     1      48.129 161.736  42.560  0.00  0.00    -0.221 NA
ATOM     22  C   UNL     1      47.434 162.863  42.339  0.00  0.00    +0.199 C 
ATOM     23  N   UNL     1      47.992 164.010  41.917  0.00  0.00    -0.221 NA
ATOM     24  C   UNL     1      49.314 164.095  41.685  0.00  0.00    +0.121 C 
ATOM     25  C   UNL     1      50.264 160.663  42.537  0.00  0.00    +0.121 C 
ATOM     26  N   UNL     1      51.585 160.692  42.322  0.00  0.00    -0.222 NA
ENDBRANCH   5  17
BRANCH   1  27
ATOM     27  C   UNL     1      58.274 160.753  41.019  0.00  0.00    +0.196 C 
ATOM     28  C   UNL     1      57.553 159.793  41.932  0.00  0.00    +0.067 C 
ATOM     29  C   UNL     1      58.395 158.704  42.490  0.00  0.00    +0.073 C 
ATOM     30  N   UNL     1      59.748 159.067  42.790  0.00  0.00    -0.295 NA
ATOM     31  C   UNL     1      60.385 159.525  41.623  0.00  0.00    +0.103 C 
ATOM     32  C   UNL     1      59.732 160.620  40.844  0.00  0.00    +0.184 C 
ATOM     33  O   UNL     1      57.847 160.177  39.749  0.00  0.00    -0.269 OA
ATOM     34  P   UNL     1      59.121 159.478  38.935  0.00  0.00    +0.381 P 
ATOM     35  O   UNL     1      60.452 160.134  39.215  0.00  0.00    -0.282 OA
ATOM     36  H   UNL     1      59.752 159.808  43.491  0.00  0.00    +0.123 HD
BRANCH  34  37
ATOM     37  O   UNL     1      58.904 159.566  37.237  0.00  0.00    -0.314 OA
ATOM     38  H   UNL     1      58.963 160.491  36.952  0.00  0.00    +0.221 HD
ENDBRANCH  34  37
BRANCH  34  39
ATOM     39  O   UNL     1      59.214 157.798  39.262  0.00  0.00    -0.314 OA
ATOM     40  H   UNL     1      59.585 157.662  40.149  0.00  0.00    +0.221 HD
ENDBRANCH  34  39
ENDBRANCH   1  27
BRANCH   8  41
ATOM     41  C   UNL     1      55.405 165.202  43.034  0.00  0.00    +0.283 C 
ATOM     42  O   UNL     1      54.376 165.919  42.732  0.00  0.00    -0.195 OA
ENDBRANCH   8  41
TORSDOF 5
ENDMDL
