REMARK  Name = =
REMARK  0 active torsions:
REMARK  status: ('A' for Active; 'I' for Inactive)
REMARK                            x       y       z     vdW  Elec       q    Type
REMARK                         _______ _______ _______ _____ _____    ______ ____
ROOT
ATOM      1  C   UNL     1      48.221 150.189  31.974  0.00  0.00    +0.026 C 
ATOM      2  C   UNL     1      47.559 148.872  31.868  0.00  0.00    +0.009 C 
ATOM      3  C   UNL     1      47.231 148.436  30.477  0.00  0.00    +0.026 C 
ATOM      4  C   UNL     1      48.195 148.975  29.478  0.00  0.00    -0.031 C 
ATOM      5  C   UNL     1      48.615 150.220  29.596  0.00  0.00    -0.030 C 
ATOM      6  C   UNL     1      48.108 151.032  30.724  0.00  0.00    +0.030 C 
ATOM      7  C   UNL     1      46.427 148.738  32.827  0.00  0.00    +0.005 C 
ATOM      8  C   UNL     1      46.996 149.048  34.220  0.00  0.00    +0.023 C 
ATOM      9  C   UNL     1      47.328 150.499  34.217  0.00  0.00    -0.044 C 
ATOM     10  C   UNL     1      47.907 151.011  33.141  0.00  0.00    -0.034 C 
ATOM     11  C   UNL     1      47.046 151.414  35.357  0.00  0.00    +0.048 C 
ATOM     12  C   UNL     1      46.984 150.624  36.587  0.00  0.00    -0.022 C 
ATOM     13  C   UNL     1      46.488 149.338  36.564  0.00  0.00    -0.026 C 
ATOM     14  C   UNL     1      46.003 148.700  35.310  0.00  0.00    +0.030 C 
ATOM     15  C   UNL     1      46.428 148.584  37.738  0.00  0.00    -0.005 C 
ATOM     16  C   UNL     1      46.858 149.102  38.938  0.00  0.00    -0.000 C 
ATOM     17  C   UNL     1      47.350 150.388  38.941  0.00  0.00    -0.000 C 
ATOM     18  C   UNL     1      47.418 151.148  37.788  0.00  0.00    -0.004 C 
ENDROOT
TORSDOF 0
