REMARK  Name = =
REMARK  4 active torsions:
REMARK  status: ('A' for Active; 'I' for Inactive)
REMARK    1  A    between atoms: C_1  and  S_19
REMARK    2  A    between atoms: S_19  and  P_20
REMARK    3  A    between atoms: P_20  and  O_22
REMARK    4  A    between atoms: P_20  and  O_23
REMARK                            x       y       z     vdW  Elec       q    Type
REMARK                         _______ _______ _______ _____ _____    ______ ____
ROOT
ATOM      1  C   UNL     1      50.820 155.370  28.794  0.00  0.00    +0.069 C 
ATOM      2  C   UNL     1      51.948 156.358  28.807  0.00  0.00    +0.018 C 
ATOM      3  C   UNL     1      53.289 155.705  28.699  0.00  0.00    +0.027 C 
ATOM      4  C   UNL     1      53.305 154.320  29.219  0.00  0.00    -0.031 C 
ATOM      5  C   UNL     1      52.273 153.718  29.784  0.00  0.00    -0.030 C 
ATOM      6  C   UNL     1      50.960 154.410  29.950  0.00  0.00    +0.040 C 
ATOM      7  C   UNL     1      51.884 157.372  29.898  0.00  0.00    +0.006 C 
ATOM      8  C   UNL     1      50.562 157.371  30.629  0.00  0.00    +0.023 C 
ATOM      9  C   UNL     1      49.408 157.139  29.754  0.00  0.00    -0.043 C 
ATOM     10  C   UNL     1      49.551 156.147  28.852  0.00  0.00    -0.024 C 
ATOM     11  C   UNL     1      48.148 157.925  29.828  0.00  0.00    +0.048 C 
ATOM     12  C   UNL     1      48.353 159.266  30.409  0.00  0.00    -0.022 C 
ATOM     13  C   UNL     1      49.416 159.497  31.223  0.00  0.00    -0.026 C 
ATOM     14  C   UNL     1      50.430 158.492  31.598  0.00  0.00    +0.030 C 
ATOM     15  C   UNL     1      49.554 160.769  31.737  0.00  0.00    -0.005 C 
ATOM     16  C   UNL     1      48.674 161.796  31.462  0.00  0.00    -0.000 C 
ATOM     17  C   UNL     1      47.602 161.533  30.631  0.00  0.00    -0.000 C 
ATOM     18  C   UNL     1      47.443 160.252  30.100  0.00  0.00    -0.004 C 
ENDROOT
BRANCH   1  19
ATOM     19  S   UNL     1      50.864 154.473  27.220  0.00  0.00    -0.061 S 
BRANCH  19  20
ATOM     20  P   UNL     1      52.530 155.112  26.090  0.00  0.00    +0.225 P 
ATOM     21  S   UNL     1      52.224 155.001  24.391  0.00  0.00    +0.003 S 
BRANCH  20  22
ATOM     22  O   UNL     1      52.799 156.754  26.440  0.00  0.00    -0.340 OA
ATOM     23  H   UNL     1      52.975 156.858  27.388  0.00  0.00    +0.218 HD
ENDBRANCH  20  22
BRANCH  20  24
ATOM     24  O   UNL     1      53.923 154.226  26.504  0.00  0.00    -0.340 OA
ATOM     25  H   UNL     1      54.080 154.298  27.458  0.00  0.00    +0.218 HD
ENDBRANCH  20  24
ENDBRANCH  19  20
ENDBRANCH   1  19
TORSDOF 4
