REMARK  Name = =
REMARK  8 active torsions:
REMARK  status: ('A' for Active; 'I' for Inactive)
REMARK    1  A    between atoms: C_1  and  S_25
REMARK    2  A    between atoms: C_10  and  C_19
REMARK    3  A    between atoms: C_19  and  P_21
REMARK    4  A    between atoms: P_21  and  O_23
REMARK    5  A    between atoms: P_21  and  O_24
REMARK    6  A    between atoms: S_25  and  P_26
REMARK    7  A    between atoms: P_26  and  O_28
REMARK    8  A    between atoms: P_26  and  O_29
REMARK                            x       y       z     vdW  Elec       q    Type
REMARK                         _______ _______ _______ _____ _____    ______ ____
ROOT
ATOM      1  C   UNL     1      50.816 158.284  29.714  0.00  0.00    +0.055 C 
ATOM      2  C   UNL     1      49.507 157.649  29.992  0.00  0.00    +0.015 C 
ATOM      3  C   UNL     1      48.333 158.495  29.558  0.00  0.00    +0.027 C 
ATOM      4  C   UNL     1      48.436 158.712  28.101  0.00  0.00    -0.031 C 
ATOM      5  C   UNL     1      49.614 158.854  27.582  0.00  0.00    -0.030 C 
ATOM      6  C   UNL     1      50.911 158.818  28.336  0.00  0.00    +0.036 C 
ATOM      7  C   UNL     1      49.330 157.523  31.522  0.00  0.00    +0.002 C 
ATOM      8  C   UNL     1      49.120 159.000  31.883  0.00  0.00    +0.005 C 
ATOM      9  C   UNL     1      50.501 159.603  31.779  0.00  0.00    +0.010 C 
ATOM     10  C   UNL     1      51.281 159.294  30.789  0.00  0.00    +0.040 C 
ATOM     11  C   UNL     1      50.900 160.350  32.970  0.00  0.00    +0.026 C 
ATOM     12  C   UNL     1      49.830 161.181  33.559  0.00  0.00    -0.026 C 
ATOM     13  C   UNL     1      48.571 160.613  33.636  0.00  0.00    -0.026 C 
ATOM     14  C   UNL     1      48.401 159.222  33.124  0.00  0.00    +0.026 C 
ATOM     15  C   UNL     1      47.563 161.361  34.196  0.00  0.00    -0.005 C 
ATOM     16  C   UNL     1      47.814 162.642  34.669  0.00  0.00    -0.000 C 
ATOM     17  C   UNL     1      49.067 163.207  34.595  0.00  0.00    -0.000 C 
ATOM     18  C   UNL     1      50.080 162.440  34.024  0.00  0.00    -0.005 C 
ENDROOT
BRANCH  10  19
ATOM     19  C   UNL     1      52.504 160.020  30.488  0.00  0.00    +0.058 C 
ATOM     20  C   UNL     1      53.383 159.563  29.577  0.00  0.00    +0.003 C 
BRANCH  19  21
ATOM     21  P   UNL     1      52.925 161.665  31.039  0.00  0.00    +0.356 P 
ATOM     22  O   UNL     1      52.928 161.837  32.521  0.00  0.00    -0.254 OA
BRANCH  21  23
ATOM     23  O   UNL     1      54.624 161.902  30.626  0.00  0.00    -0.321 OA
ATOM     24  H   UNL     1      55.161 161.226  31.067  0.00  0.00    +0.220 HD
ENDBRANCH  21  23
BRANCH  21  25
ATOM     25  O   UNL     1      52.145 162.882  30.220  0.00  0.00    -0.321 OA
ATOM     26  H   UNL     1      51.192 162.828  30.392  0.00  0.00    +0.220 HD
ENDBRANCH  21  25
ENDBRANCH  19  21
ENDBRANCH  10  19
BRANCH   1  27
ATOM     27  S   UNL     1      52.039 156.906  29.878  0.00  0.00    -0.065 S 
BRANCH  27  28
ATOM     28  P   UNL     1      52.110 155.741  28.154  0.00  0.00    +0.225 P 
ATOM     29  S   UNL     1      52.720 156.559  26.785  0.00  0.00    +0.003 S 
BRANCH  28  30
ATOM     30  O   UNL     1      50.560 155.137  27.798  0.00  0.00    -0.340 OA
ATOM     31  H   UNL     1      50.209 154.671  28.573  0.00  0.00    +0.218 HD
ENDBRANCH  28  30
BRANCH  28  32
ATOM     32  O   UNL     1      53.112 154.401  28.447  0.00  0.00    -0.340 OA
ATOM     33  H   UNL     1      54.009 154.707  28.655  0.00  0.00    +0.218 HD
ENDBRANCH  28  32
ENDBRANCH  27  28
ENDBRANCH   1  27
TORSDOF 8
