REMARK  Name = =
REMARK  0 active torsions:
REMARK  status: ('A' for Active; 'I' for Inactive)
REMARK                            x       y       z     vdW  Elec       q    Type
REMARK                         _______ _______ _______ _____ _____    ______ ____
ROOT
ATOM      1  C   UNL     1      51.684 156.172  28.035  0.00  0.00    +0.000 C 
ATOM      2  C   UNL     1      50.493 155.263  27.978  0.00  0.00    +0.000 C 
ATOM      3  C   UNL     1      49.198 155.944  28.302  0.00  0.00    +0.000 C 
ENDROOT
TORSDOF 0
