REMARK  Name = =
REMARK  2 active torsions:
REMARK  status: ('A' for Active; 'I' for Inactive)
REMARK    1  A    between atoms: C_1  and  C_11
REMARK    2  A    between atoms: C_11  and  C_12
REMARK                            x       y       z     vdW  Elec       q    Type
REMARK                         _______ _______ _______ _____ _____    ______ ____
ROOT
ATOM      1  C   UNL     1      51.967 157.435  29.037  0.00  0.00    +0.139 C 
ATOM      2  N   UNL     1      52.661 157.049  27.951  0.00  0.00    -0.228 NA
ATOM      3  C   UNL     1      52.630 155.809  27.438  0.00  0.00    +0.121 C 
ATOM      4  C   UNL     1      51.829 154.873  28.077  0.00  0.00    +0.121 C 
ATOM      5  N   UNL     1      51.790 153.627  27.574  0.00  0.00    -0.221 NA
ATOM      6  C   UNL     1      52.504 153.272  26.475  0.00  0.00    +0.199 C 
ATOM      7  N   UNL     1      53.289 154.157  25.835  0.00  0.00    -0.221 NA
ATOM      8  C   UNL     1      53.341 155.414  26.324  0.00  0.00    +0.121 C 
ATOM      9  C   UNL     1      51.107 155.244  29.194  0.00  0.00    +0.121 C 
ATOM     10  N   UNL     1      51.194 156.501  29.638  0.00  0.00    -0.228 NA
ENDROOT
BRANCH   1  11
ATOM     11  C   UNL     1      52.042 158.824  29.557  0.00  0.00    +0.066 C 
BRANCH  11  12
ATOM     12  C   UNL     1      50.772 159.090  30.334  0.00  0.00    +0.008 C 
ATOM     13  C   UNL     1      50.702 160.494  30.871  0.00  0.00    +0.000 C 
ENDBRANCH  11  12
ENDBRANCH   1  11
TORSDOF 2
