REMARK  Name = =
REMARK  4 active torsions:
REMARK  status: ('A' for Active; 'I' for Inactive)
REMARK    1  A    between atoms: C_1  and  C_2
REMARK    2  A    between atoms: C_1  and  C_19
REMARK    3  A    between atoms: O_13  and  O_15
REMARK    4  A    between atoms: C_16  and  O_18
REMARK                            x       y       z     vdW  Elec       q    Type
REMARK                         _______ _______ _______ _____ _____    ______ ____
ROOT
ATOM      1  C   UNL     1      51.529 157.839  29.213  0.00  0.00    +0.139 C 
ATOM      2  N   UNL     1      52.219 157.596  28.091  0.00  0.00    -0.228 NA
ATOM      3  C   UNL     1      52.457 156.318  27.697  0.00  0.00    +0.121 C 
ATOM      4  C   UNL     1      52.001 155.243  28.432  0.00  0.00    +0.121 C 
ATOM      5  N   UNL     1      52.227 153.980  28.058  0.00  0.00    -0.221 NA
ATOM      6  C   UNL     1      52.913 153.725  26.942  0.00  0.00    +0.199 C 
ATOM      7  N   UNL     1      53.375 154.729  26.197  0.00  0.00    -0.221 NA
ATOM      8  C   UNL     1      53.169 156.033  26.539  0.00  0.00    +0.121 C 
ATOM      9  C   UNL     1      51.295 155.518  29.580  0.00  0.00    +0.121 C 
ATOM     10  N   UNL     1      51.090 156.796  29.920  0.00  0.00    -0.228 NA
ENDROOT
BRANCH   1  11
ATOM     11  C   UNL     1      51.287 159.223  29.613  0.00  0.00    +0.066 C 
BRANCH  11  12
ATOM     12  C   UNL     1      52.421 159.753  30.454  0.00  0.00    +0.008 C 
ATOM     13  C   UNL     1      52.327 161.225  30.746  0.00  0.00    +0.000 C 
ENDBRANCH  11  12
ENDBRANCH   1  11
TORSDOF 2
REMARK  Name = =
REMARK  4 active torsions:
REMARK  status: ('A' for Active; 'I' for Inactive)
REMARK    1  A    between atoms: C_1  and  C_2
REMARK    2  A    between atoms: C_1  and  C_19
REMARK    3  A    between atoms: O_13  and  O_15
REMARK    4  A    between atoms: C_16  and  O_18
REMARK                            x       y       z     vdW  Elec       q    Type
REMARK                         _______ _______ _______ _____ _____    ______ ____
ROOT
ATOM      1  P   UNL     1      49.658 159.487  30.338  0.00  0.00    +0.000 P 
ENDROOT
TORSDOF 0
REMARK  Name = =
REMARK  4 active torsions:
REMARK  status: ('A' for Active; 'I' for Inactive)
REMARK    1  A    between atoms: C_1  and  C_2
REMARK    2  A    between atoms: C_1  and  C_19
REMARK    3  A    between atoms: O_13  and  O_15
REMARK    4  A    between atoms: C_16  and  O_18
REMARK                            x       y       z     vdW  Elec       q    Type
REMARK                         _______ _______ _______ _____ _____    ______ ____
ROOT
ATOM      1  O   UNL     1      49.568 158.066  30.665  0.00  0.00    -0.253 OA
ATOM      2  H   UNL     1      50.219 157.480  30.249  0.00  0.00    +0.253 HD
ENDROOT
BRANCH   1   3
ATOM      3  O   UNL     1      48.501 158.507  29.596  0.00  0.00    -0.253 OA
ATOM      4  H   UNL     1      47.850 159.093  30.012  0.00  0.00    +0.253 HD
ENDBRANCH   1   3
TORSDOF 1
REMARK  Name = =
REMARK  4 active torsions:
REMARK  status: ('A' for Active; 'I' for Inactive)
REMARK    1  A    between atoms: C_1  and  C_2
REMARK    2  A    between atoms: C_1  and  C_19
REMARK    3  A    between atoms: O_13  and  O_15
REMARK    4  A    between atoms: C_16  and  O_18
REMARK                            x       y       z     vdW  Elec       q    Type
REMARK                         _______ _______ _______ _____ _____    ______ ____
ROOT
ATOM      1  O   HOH     1      49.724 159.171  31.955  0.00  0.00    -0.253 OA
ATOM      2  H   HOH     0      50.694 159.171  31.955  0.00  0.00    +0.253 HD
ENDROOT
TORSDOF 0
REMARK  Name = =
REMARK  4 active torsions:
REMARK  status: ('A' for Active; 'I' for Inactive)
REMARK    1  A    between atoms: C_1  and  C_2
REMARK    2  A    between atoms: C_1  and  C_19
REMARK    3  A    between atoms: O_13  and  O_15
REMARK    4  A    between atoms: C_16  and  O_18
REMARK                            x       y       z     vdW  Elec       q    Type
REMARK                         _______ _______ _______ _____ _____    ______ ____
ROOT
ATOM      1  C   UNL     1      48.733 160.981  30.143  0.00  0.00    +0.415 C 
ATOM      2  O   UNL     1      48.596 161.414  28.993  0.00  0.00    -0.238 OA
ENDROOT
BRANCH   1   3
ATOM      3  O   UNL     1      48.207 161.595  31.265  0.00  0.00    -0.473 OA
ATOM      4  H   UNL     1      48.344 161.219  32.112  0.00  0.00    +0.296 HD
ENDBRANCH   1   3
TORSDOF 1
