REMARK  Name = =
REMARK  6 active torsions:
REMARK  status: ('A' for Active; 'I' for Inactive)
REMARK    1  A    between atoms: O_2  and  O_4
REMARK    2  A    between atoms: C_5  and  O_7
REMARK    3  A    between atoms: O_7  and  S_8
REMARK    4  A    between atoms: S_8  and  O_10
REMARK    5  A    between atoms: C_11  and  C_12
REMARK    6  A    between atoms: C_11  and  C_22
REMARK                            x       y       z     vdW  Elec       q    Type
REMARK                         _______ _______ _______ _____ _____    ______ ____
ROOT
ATOM      1  P   UNL     1      50.159 160.369  30.260  0.00  0.00    +0.000 P 
ENDROOT
TORSDOF 0
REMARK  Name = =
REMARK  6 active torsions:
REMARK  status: ('A' for Active; 'I' for Inactive)
REMARK    1  A    between atoms: O_2  and  O_4
REMARK    2  A    between atoms: C_5  and  O_7
REMARK    3  A    between atoms: O_7  and  S_8
REMARK    4  A    between atoms: S_8  and  O_10
REMARK    5  A    between atoms: C_11  and  C_12
REMARK    6  A    between atoms: C_11  and  C_22
REMARK                            x       y       z     vdW  Elec       q    Type
REMARK                         _______ _______ _______ _____ _____    ______ ____
ROOT
ATOM      1  O   UNL     1      49.925 159.770  28.879  0.00  0.00    -0.253 OA
ATOM      2  H   UNL     1      49.622 158.963  29.324  0.00  0.00    +0.253 HD
ENDROOT
BRANCH   1   3
ATOM      3  O   UNL     1      49.048 160.866  29.220  0.00  0.00    -0.253 OA
ATOM      4  H   UNL     1      49.351 161.673  28.775  0.00  0.00    +0.253 HD
ENDBRANCH   1   3
TORSDOF 1
REMARK  Name = =
REMARK  6 active torsions:
REMARK  status: ('A' for Active; 'I' for Inactive)
REMARK    1  A    between atoms: O_2  and  O_4
REMARK    2  A    between atoms: C_5  and  O_7
REMARK    3  A    between atoms: O_7  and  S_8
REMARK    4  A    between atoms: S_8  and  O_10
REMARK    5  A    between atoms: C_11  and  C_12
REMARK    6  A    between atoms: C_11  and  C_22
REMARK                            x       y       z     vdW  Elec       q    Type
REMARK                         _______ _______ _______ _____ _____    ______ ____
ROOT
ATOM      1  O   HOH     1      49.534 161.244  31.607  0.00  0.00    -0.253 OA
ATOM      2  H   HOH     0      50.504 161.244  31.607  0.00  0.00    +0.253 HD
ENDROOT
TORSDOF 0
REMARK  Name = =
REMARK  6 active torsions:
REMARK  status: ('A' for Active; 'I' for Inactive)
REMARK    1  A    between atoms: O_2  and  O_4
REMARK    2  A    between atoms: C_5  and  O_7
REMARK    3  A    between atoms: O_7  and  S_8
REMARK    4  A    between atoms: S_8  and  O_10
REMARK    5  A    between atoms: C_11  and  C_12
REMARK    6  A    between atoms: C_11  and  C_22
REMARK                            x       y       z     vdW  Elec       q    Type
REMARK                         _______ _______ _______ _____ _____    ______ ____
ROOT
ATOM      1  S   UNL     1      53.754 162.960  30.360  0.00  0.00    +0.194 S 
ATOM      2  O   UNL     1      54.811 162.002  29.822  0.00  0.00    -0.125 OA
ENDROOT
BRANCH   1   3
ATOM      3  O   UNL     1      53.865 164.393  29.443  0.00  0.00    -0.236 OA
ATOM      4  H   UNL     1      53.205 165.030  29.757  0.00  0.00    +0.246 HD
ENDBRANCH   1   3
BRANCH   1   5
ATOM      5  O   UNL     1      52.192 162.265  29.968  0.00  0.00    -0.288 OA
BRANCH   5   6
ATOM      6  C   UNL     1      51.771 161.060  30.450  0.00  0.00    +0.444 C 
ATOM      7  O   UNL     1      52.571 160.363  31.092  0.00  0.00    -0.235 OA
ENDBRANCH   5   6
ENDBRANCH   1   5
TORSDOF 3
REMARK  Name = =
REMARK  6 active torsions:
REMARK  status: ('A' for Active; 'I' for Inactive)
REMARK    1  A    between atoms: O_2  and  O_4
REMARK    2  A    between atoms: C_5  and  O_7
REMARK    3  A    between atoms: O_7  and  S_8
REMARK    4  A    between atoms: S_8  and  O_10
REMARK    5  A    between atoms: C_11  and  C_12
REMARK    6  A    between atoms: C_11  and  C_22
REMARK                            x       y       z     vdW  Elec       q    Type
REMARK                         _______ _______ _______ _____ _____    ______ ____
ROOT
ATOM      1  C   UNL     1      50.226 157.606  30.322  0.00  0.00    +0.139 C 
ATOM      2  N   UNL     1      51.448 157.238  29.910  0.00  0.00    -0.228 NA
ATOM      3  C   UNL     1      51.574 156.108  29.168  0.00  0.00    +0.121 C 
ATOM      4  C   UNL     1      50.473 155.347  28.835  0.00  0.00    +0.121 C 
ATOM      5  N   UNL     1      50.628 154.233  28.098  0.00  0.00    -0.221 NA
ATOM      6  C   UNL     1      51.841 153.814  27.656  0.00  0.00    +0.199 C 
ATOM      7  N   UNL     1      52.892 154.565  27.987  0.00  0.00    -0.221 NA
ATOM      8  C   UNL     1      52.815 155.682  28.716  0.00  0.00    +0.121 C 
ATOM      9  C   UNL     1      49.251 155.763  29.277  0.00  0.00    +0.121 C 
ATOM     10  N   UNL     1      49.146 156.869  30.002  0.00  0.00    -0.228 NA
ENDROOT
BRANCH   1  11
ATOM     11  C   UNL     1      49.973 158.834  31.146  0.00  0.00    +0.066 C 
BRANCH  11  12
ATOM     12  C   UNL     1      48.618 158.761  31.774  0.00  0.00    +0.008 C 
ATOM     13  C   UNL     1      47.486 159.117  30.860  0.00  0.00    +0.000 C 
ENDBRANCH  11  12
ENDBRANCH   1  11
TORSDOF 2
