REMARK  Name = =
REMARK  7 active torsions:
REMARK  status: ('A' for Active; 'I' for Inactive)
REMARK    1  A    between atoms: O_2  and  O_4
REMARK    2  A    between atoms: C_5  and  O_7
REMARK    3  A    between atoms: O_7  and  S_8
REMARK    4  A    between atoms: S_8  and  C_10
REMARK    5  A    between atoms: S_8  and  O_15
REMARK    6  A    between atoms: C_16  and  C_17
REMARK    7  A    between atoms: C_16  and  C_27
REMARK                            x       y       z     vdW  Elec       q    Type
REMARK                         _______ _______ _______ _____ _____    ______ ____
ROOT
ATOM      1  P   UNL     1      51.354 156.014  28.702  0.00  0.00    +0.000 P 
ENDROOT
TORSDOF 0
REMARK  Name = =
REMARK  7 active torsions:
REMARK  status: ('A' for Active; 'I' for Inactive)
REMARK    1  A    between atoms: O_2  and  O_4
REMARK    2  A    between atoms: C_5  and  O_7
REMARK    3  A    between atoms: O_7  and  S_8
REMARK    4  A    between atoms: S_8  and  C_10
REMARK    5  A    between atoms: S_8  and  O_15
REMARK    6  A    between atoms: C_16  and  C_17
REMARK    7  A    between atoms: C_16  and  C_27
REMARK                            x       y       z     vdW  Elec       q    Type
REMARK                         _______ _______ _______ _____ _____    ______ ____
ROOT
ATOM      1  O   UNL     1      49.856 156.300  28.734  0.00  0.00    -0.253 OA
ATOM      2  H   UNL     1      50.357 156.110  27.925  0.00  0.00    +0.253 HD
ENDROOT
BRANCH   1   3
ATOM      3  O   UNL     1      50.354 155.441  29.838  0.00  0.00    -0.253 OA
ATOM      4  H   UNL     1      49.853 155.631  30.647  0.00  0.00    +0.253 HD
ENDBRANCH   1   3
TORSDOF 1
REMARK  Name = =
REMARK  7 active torsions:
REMARK  status: ('A' for Active; 'I' for Inactive)
REMARK    1  A    between atoms: O_2  and  O_4
REMARK    2  A    between atoms: C_5  and  O_7
REMARK    3  A    between atoms: O_7  and  S_8
REMARK    4  A    between atoms: S_8  and  C_10
REMARK    5  A    between atoms: S_8  and  O_15
REMARK    6  A    between atoms: C_16  and  C_17
REMARK    7  A    between atoms: C_16  and  C_27
REMARK                            x       y       z     vdW  Elec       q    Type
REMARK                         _______ _______ _______ _____ _____    ______ ____
ROOT
ATOM      1  O   HOH     1      52.734 156.151  27.739  0.00  0.00    -0.253 OA
ATOM      2  H   HOH     0      53.704 156.151  27.739  0.00  0.00    +0.253 HD
ENDROOT
TORSDOF 0
REMARK  Name = =
REMARK  7 active torsions:
REMARK  status: ('A' for Active; 'I' for Inactive)
REMARK    1  A    between atoms: O_2  and  O_4
REMARK    2  A    between atoms: C_5  and  O_7
REMARK    3  A    between atoms: O_7  and  S_8
REMARK    4  A    between atoms: S_8  and  C_10
REMARK    5  A    between atoms: S_8  and  O_15
REMARK    6  A    between atoms: C_16  and  C_17
REMARK    7  A    between atoms: C_16  and  C_27
REMARK                            x       y       z     vdW  Elec       q    Type
REMARK                         _______ _______ _______ _____ _____    ______ ____
ROOT
ATOM      1  S   UNL     1      52.512 152.172  27.264  0.00  0.00    +0.012 S 
ATOM      2  O   UNL     1      53.948 152.441  27.674  0.00  0.00    -0.063 OA
ENDROOT
BRANCH   1   3
ATOM      3  C   UNL     1      52.508 151.798  25.558  0.00  0.00    +0.205 C 
ATOM      4  S   UNL     1      54.142 152.126  24.792  0.00  0.00    -0.097 S 
ATOM      5  C   UNL     1      54.648 150.367  24.584  0.00  0.00    +0.129 C 
ATOM      6  N   UNL     1      53.762 149.757  25.549  0.00  0.00    -0.286 NA
ATOM      7  C   UNL     1      52.453 150.291  25.401  0.00  0.00    +0.106 C 
ATOM      8  H   UNL     1      54.102 149.949  26.491  0.00  0.00    +0.124 HD
ENDBRANCH   1   3
BRANCH   1   9
ATOM      9  O   UNL     1      51.932 150.965  28.226  0.00  0.00    -0.264 OA
ATOM     10  H   UNL     1      51.966 151.246  29.154  0.00  0.00    +0.243 HD
ENDBRANCH   1   9
BRANCH   1  11
ATOM     11  O   UNL     1      51.694 153.671  27.526  0.00  0.00    -0.315 OA
BRANCH  11  12
ATOM     12  C   UNL     1      51.871 154.333  28.686  0.00  0.00    +0.442 C 
ATOM     13  O   UNL     1      52.370 153.764  29.672  0.00  0.00    -0.235 OA
ENDBRANCH  11  12
ENDBRANCH   1  11
TORSDOF 4
REMARK  Name = =
REMARK  7 active torsions:
REMARK  status: ('A' for Active; 'I' for Inactive)
REMARK    1  A    between atoms: O_2  and  O_4
REMARK    2  A    between atoms: C_5  and  O_7
REMARK    3  A    between atoms: O_7  and  S_8
REMARK    4  A    between atoms: S_8  and  C_10
REMARK    5  A    between atoms: S_8  and  O_15
REMARK    6  A    between atoms: C_16  and  C_17
REMARK    7  A    between atoms: C_16  and  C_27
REMARK                            x       y       z     vdW  Elec       q    Type
REMARK                         _______ _______ _______ _____ _____    ______ ____
ROOT
ATOM      1  C   UNL     1      50.942 158.313  30.094  0.00  0.00    +0.139 C 
ATOM      2  N   UNL     1      51.348 159.384  30.789  0.00  0.00    -0.228 NA
ATOM      3  C   UNL     1      50.501 160.300  31.285  0.00  0.00    +0.121 C 
ATOM      4  C   UNL     1      49.160 160.127  31.069  0.00  0.00    +0.121 C 
ATOM      5  N   UNL     1      48.312 161.041  31.565  0.00  0.00    -0.221 NA
ATOM      6  C   UNL     1      48.754 162.112  32.263  0.00  0.00    +0.199 C 
ATOM      7  N   UNL     1      50.076 162.266  32.465  0.00  0.00    -0.221 NA
ATOM      8  C   UNL     1      50.952 161.378  31.988  0.00  0.00    +0.121 C 
ATOM      9  C   UNL     1      48.707 159.025  30.351  0.00  0.00    +0.121 C 
ATOM     10  N   UNL     1      49.621 158.152  29.886  0.00  0.00    -0.228 NA
ENDROOT
BRANCH   1  11
ATOM     11  C   UNL     1      51.963 157.349  29.582  0.00  0.00    +0.066 C 
BRANCH  11  12
ATOM     12  C   UNL     1      52.827 158.269  28.689  0.00  0.00    +0.008 C 
ATOM     13  C   UNL     1      53.826 159.001  29.537  0.00  0.00    +0.000 C 
ENDBRANCH  11  12
ENDBRANCH   1  11
TORSDOF 2
