REMARK  Name = =
REMARK  11 active torsions:
REMARK  status: ('A' for Active; 'I' for Inactive)
REMARK    1  A    between atoms: P_1  and  O_4
REMARK    2  A    between atoms: P_1  and  C_5
REMARK    3  A    between atoms: P_1  and  C_22
REMARK    4  A    between atoms: O_2  and  O_3
REMARK    5  A    between atoms: C_5  and  O_7
REMARK    6  A    between atoms: O_7  and  S_8
REMARK    7  A    between atoms: S_8  and  C_10
REMARK    8  A    between atoms: S_8  and  O_21
REMARK    9  A    between atoms: C_10  and  C_15
REMARK   10  A    between atoms: C_22  and  C_23
REMARK   11  A    between atoms: C_22  and  C_33
REMARK                            x       y       z     vdW  Elec       q    Type
REMARK                         _______ _______ _______ _____ _____    ______ ____
ROOT
ATOM      1  C   UNL     1      51.544 156.744  29.533  0.00  0.00    +0.379 C 
ATOM      2  O   UNL     1      52.584 157.312  29.951  0.00  0.00    -0.241 OA
ENDROOT
BRANCH   1   3
ATOM      3  P   UNL     1      51.751 155.098  28.930  0.00  0.00    +0.160 P 
BRANCH   3   4
ATOM      4  O   UNL     1      50.316 155.051  27.969  0.00  0.00    -0.362 OA
ATOM      5  H   UNL     1      49.543 155.206  28.534  0.00  0.00    +0.215 HD
ENDBRANCH   3   4
BRANCH   3   6
ATOM      6  C   UNL     1      52.873 154.787  27.597  0.00  0.00    +0.111 C 
BRANCH   6   7
ATOM      7  C   UNL     1      52.832 153.414  27.032  0.00  0.00    +0.146 C 
ATOM      8  N   UNL     1      53.843 152.965  26.278  0.00  0.00    -0.227 NA
ATOM      9  C   UNL     1      53.867 151.721  25.736  0.00  0.00    +0.121 C 
ATOM     10  C   UNL     1      52.795 150.874  25.969  0.00  0.00    +0.121 C 
ATOM     11  N   UNL     1      52.807 149.635  25.434  0.00  0.00    -0.221 NA
ATOM     12  C   UNL     1      53.821 149.178  24.677  0.00  0.00    +0.199 C 
ATOM     13  N   UNL     1      54.846 150.027  24.468  0.00  0.00    -0.221 NA
ATOM     14  C   UNL     1      54.908 151.264  24.962  0.00  0.00    +0.121 C 
ATOM     15  C   UNL     1      51.764 151.342  26.741  0.00  0.00    +0.121 C 
ATOM     16  N   UNL     1      51.794 152.602  27.262  0.00  0.00    -0.227 NA
ENDBRANCH   6   7
BRANCH   6  17
ATOM     17  C   UNL     1      52.744 155.702  26.392  0.00  0.00    +0.015 C 
ATOM     18  C   UNL     1      52.321 154.992  25.152  0.00  0.00    +0.001 C 
ENDBRANCH   6  17
ENDBRANCH   3   6
ENDBRANCH   1   3
BRANCH   1  19
ATOM     19  O   UNL     1      50.404 157.470  29.611  0.00  0.00    -0.319 OA
BRANCH  19  20
ATOM     20  S   UNL     1      50.206 159.138  29.595  0.00  0.00    +0.009 S 
ATOM     21  O   UNL     1      51.554 159.767  29.801  0.00  0.00    -0.063 OA
BRANCH  20  22
ATOM     22  C   UNL     1      49.122 159.763  30.826  0.00  0.00    +0.177 C 
ATOM     23  S   UNL     1      48.112 158.434  31.568  0.00  0.00    -0.100 S 
ATOM     24  C   UNL     1      46.470 159.094  31.053  0.00  0.00    +0.129 C 
ATOM     25  N   UNL     1      46.815 160.420  30.726  0.00  0.00    -0.286 NA
ATOM     26  C   UNL     1      48.054 160.540  30.090  0.00  0.00    +0.103 C 
ATOM     27  H   UNL     1      46.841 160.967  31.586  0.00  0.00    +0.124 HD
BRANCH  22  28
ATOM     28  C   UNL     1      49.793 160.619  31.847  0.00  0.00    +0.048 C 
ATOM     29  C   UNL     1      49.818 162.076  31.526  0.00  0.00    +0.071 C 
ATOM     30  N   UNL     1      50.878 162.680  32.329  0.00  0.00    -0.297 NA
ATOM     31  C   UNL     1      50.428 162.629  33.705  0.00  0.00    +0.069 C 
ATOM     32  C   UNL     1      50.161 161.223  34.173  0.00  0.00    +0.017 C 
ATOM     33  C   UNL     1      49.257 160.456  33.234  0.00  0.00    +0.005 C 
ATOM     34  H   UNL     1      51.030 163.647  32.043  0.00  0.00    +0.123 HD
ENDBRANCH  22  28
ENDBRANCH  20  22
BRANCH  20  35
ATOM     35  O   UNL     1      49.645 159.644  28.094  0.00  0.00    -0.264 OA
ATOM     36  H   UNL     1      50.232 159.308  27.399  0.00  0.00    +0.243 HD
ENDBRANCH  20  35
ENDBRANCH  19  20
ENDBRANCH   1  19
TORSDOF 10
REMARK  Name = =
REMARK  11 active torsions:
REMARK  status: ('A' for Active; 'I' for Inactive)
REMARK    1  A    between atoms: P_1  and  O_4
REMARK    2  A    between atoms: P_1  and  C_5
REMARK    3  A    between atoms: P_1  and  C_22
REMARK    4  A    between atoms: O_2  and  O_3
REMARK    5  A    between atoms: C_5  and  O_7
REMARK    6  A    between atoms: O_7  and  S_8
REMARK    7  A    between atoms: S_8  and  C_10
REMARK    8  A    between atoms: S_8  and  O_21
REMARK    9  A    between atoms: C_10  and  C_15
REMARK   10  A    between atoms: C_22  and  C_23
REMARK   11  A    between atoms: C_22  and  C_33
REMARK                            x       y       z     vdW  Elec       q    Type
REMARK                         _______ _______ _______ _____ _____    ______ ____
ROOT
ATOM      1  O   UNL     1      52.385 154.737  30.264  0.00  0.00    -0.253 OA
ATOM      2  H   UNL     1      52.248 155.129  31.141  0.00  0.00    +0.253 HD
ENDROOT
BRANCH   1   3
ATOM      3  O   UNL     1      51.225 153.938  29.903  0.00  0.00    -0.253 OA
ATOM      4  H   UNL     1      51.362 153.546  29.026  0.00  0.00    +0.253 HD
ENDBRANCH   1   3
TORSDOF 1
