REMARK  Name = =
REMARK  0 active torsions:
REMARK  status: ('A' for Active; 'I' for Inactive)
REMARK                            x       y       z     vdW  Elec       q    Type
REMARK                         _______ _______ _______ _____ _____    ______ ____
ROOT
ATOM      1  C   UNL     1      -4.273  -4.281  30.847  0.00  0.00    -0.000 C 
ATOM      2  C   UNL     1      -3.236  -4.177  29.962  0.00  0.00    -0.000 C 
ATOM      3  C   UNL     1      -2.775  -2.966  29.491  0.00  0.00    -0.000 C 
ATOM      4  C   UNL     1      -3.361  -1.792  29.913  0.00  0.00    -0.004 C 
ATOM      5  C   UNL     1      -4.418  -1.885  30.814  0.00  0.00    -0.014 C 
ATOM      6  C   UNL     1      -4.874  -3.099  31.280  0.00  0.00    -0.004 C 
ATOM      7  C   UNL     1      -5.996  -2.856  32.214  0.00  0.00    -0.004 C 
ATOM      8  C   UNL     1      -6.132  -1.395  32.236  0.00  0.00    -0.014 C 
ATOM      9  C   UNL     1      -7.004  -0.548  32.920  0.00  0.00    -0.004 C 
ATOM     10  C   UNL     1      -6.961   0.826  32.794  0.00  0.00    -0.001 C 
ATOM     11  C   UNL     1      -6.007   1.354  31.951  0.00  0.00    -0.004 C 
ATOM     12  C   UNL     1      -5.126   0.553  31.256  0.00  0.00    -0.018 C 
ATOM     13  C   UNL     1      -5.201  -0.809  31.408  0.00  0.00    +0.066 C 
ENDROOT
TORSDOF 0
