REMARK  Name = =
REMARK  2 active torsions:
REMARK  status: ('A' for Active; 'I' for Inactive)
REMARK    1  A    between atoms: C_1  and  N_14
REMARK    2  A    between atoms: N_14  and  N_15
REMARK                            x       y       z     vdW  Elec       q    Type
REMARK                         _______ _______ _______ _____ _____    ______ ____
ROOT
ATOM      1  C   UNL     1      -3.460  -5.047  30.894  0.00  0.00    +0.057 C 
ATOM      2  C   UNL     1      -2.512  -4.858  29.920  0.00  0.00    +0.015 C 
ATOM      3  C   UNL     1      -2.256  -3.623  29.359  0.00  0.00    +0.001 C 
ATOM      4  C   UNL     1      -2.977  -2.528  29.794  0.00  0.00    -0.004 C 
ATOM      5  C   UNL     1      -3.951  -2.660  30.780  0.00  0.00    -0.013 C 
ATOM      6  C   UNL     1      -4.170  -3.904  31.305  0.00  0.00    +0.011 C 
ATOM      7  C   UNL     1      -5.242  -3.789  32.316  0.00  0.00    -0.003 C 
ATOM      8  C   UNL     1      -5.567  -2.348  32.303  0.00  0.00    -0.014 C 
ATOM      9  C   UNL     1      -6.508  -1.640  33.065  0.00  0.00    -0.004 C 
ATOM     10  C   UNL     1      -6.669  -0.283  32.893  0.00  0.00    -0.001 C 
ATOM     11  C   UNL     1      -5.918   0.416  31.977  0.00  0.00    -0.004 C 
ATOM     12  C   UNL     1      -4.990  -0.294  31.228  0.00  0.00    -0.018 C 
ATOM     13  C   UNL     1      -4.814  -1.655  31.386  0.00  0.00    +0.066 C 
ENDROOT
BRANCH   1  14
ATOM     14  N   UNL     1      -3.739  -6.312  31.492  0.00  0.00    -0.282 N 
ATOM     15  H   UNL     1      -4.407  -6.904  31.076  0.00  0.00    +0.166 HD
BRANCH  14  16
ATOM     16  N   UNL     1      -3.074  -6.737  32.676  0.00  0.00    -0.256 NA
ATOM     17  H   UNL     1      -2.419  -6.015  32.976  0.00  0.00    +0.140 HD
ATOM     18  H   UNL     1      -2.565  -7.601  32.489  0.00  0.00    +0.140 HD
ENDBRANCH  14  16
ENDBRANCH   1  14
TORSDOF 2
