REMARK  Name = =
REMARK  3 active torsions:
REMARK  status: ('A' for Active; 'I' for Inactive)
REMARK    1  A    between atoms: N_1  and  C_2
REMARK    2  A    between atoms: N_1  and  N_20
REMARK    3  A    between atoms: O_16  and  O_19
REMARK                            x       y       z     vdW  Elec       q    Type
REMARK                         _______ _______ _______ _____ _____    ______ ____
ROOT
ATOM      1  C   UNL     1      -2.960  -5.390  31.067  0.00  0.00    +0.069 C 
ATOM      2  C   UNL     1      -2.128  -5.264  29.976  0.00  0.00    +0.014 C 
ATOM      3  C   UNL     1      -2.133  -4.082  29.289  0.00  0.00    +0.001 C 
ATOM      4  C   UNL     1      -2.938  -3.027  29.656  0.00  0.00    -0.004 C 
ATOM      5  C   UNL     1      -3.767  -3.186  30.762  0.00  0.00    -0.013 C 
ATOM      6  C   UNL     1      -3.802  -4.352  31.489  0.00  0.00    +0.083 C 
ATOM      7  C   UNL     1      -4.772  -4.234  32.607  0.00  0.00    -0.016 C 
ATOM      8  C   UNL     1      -5.325  -2.866  32.481  0.00  0.00    -0.004 C 
ATOM      9  C   UNL     1      -6.280  -2.172  33.240  0.00  0.00    -0.000 C 
ATOM     10  C   UNL     1      -6.639  -0.880  32.925  0.00  0.00    -0.000 C 
ATOM     11  C   UNL     1      -6.034  -0.286  31.837  0.00  0.00    -0.000 C 
ATOM     12  C   UNL     1      -5.092  -0.976  31.088  0.00  0.00    -0.000 C 
ATOM     13  C   UNL     1      -4.723  -2.273  31.398  0.00  0.00    -0.004 C 
ENDROOT
BRANCH   1  14
ATOM     14  N   UNL     1      -2.990  -6.575  31.801  0.00  0.00    -0.175 NA
BRANCH  14  15
ATOM     15  N   UNL     1      -4.103  -6.947  32.551  0.00  0.00    -0.236 NA
ATOM     16  H   UNL     1      -3.922  -7.840  33.008  0.00  0.00    +0.142 HD
ATOM     17  H   UNL     1      -4.912  -7.038  31.937  0.00  0.00    +0.142 HD
ENDBRANCH  14  15
ENDBRANCH   1  14
TORSDOF 2
REMARK  Name = =
REMARK  3 active torsions:
REMARK  status: ('A' for Active; 'I' for Inactive)
REMARK    1  A    between atoms: N_1  and  C_2
REMARK    2  A    between atoms: N_1  and  N_20
REMARK    3  A    between atoms: O_16  and  O_19
REMARK                            x       y       z     vdW  Elec       q    Type
REMARK                         _______ _______ _______ _____ _____    ______ ____
ROOT
ATOM      1  P   UNL     1      -1.618  -7.642  31.807  0.00  0.00    +0.000 P 
ENDROOT
TORSDOF 0
REMARK  Name = =
REMARK  3 active torsions:
REMARK  status: ('A' for Active; 'I' for Inactive)
REMARK    1  A    between atoms: N_1  and  C_2
REMARK    2  A    between atoms: N_1  and  N_20
REMARK    3  A    between atoms: O_16  and  O_19
REMARK                            x       y       z     vdW  Elec       q    Type
REMARK                         _______ _______ _______ _____ _____    ______ ____
ROOT
ATOM      1  O   UNL     1      -2.133  -8.617  30.867  0.00  0.00    -0.253 OA
ATOM      2  H   UNL     1      -2.638  -7.805  30.705  0.00  0.00    +0.253 HD
ENDROOT
BRANCH   1   3
ATOM      3  O   UNL     1      -2.147  -8.977  32.561  0.00  0.00    -0.253 OA
ATOM      4  H   UNL     1      -1.642  -9.789  32.723  0.00  0.00    +0.253 HD
ENDBRANCH   1   3
TORSDOF 1
REMARK  Name = =
REMARK  3 active torsions:
REMARK  status: ('A' for Active; 'I' for Inactive)
REMARK    1  A    between atoms: N_1  and  C_2
REMARK    2  A    between atoms: N_1  and  N_20
REMARK    3  A    between atoms: O_16  and  O_19
REMARK                            x       y       z     vdW  Elec       q    Type
REMARK                         _______ _______ _______ _____ _____    ______ ____
ROOT
ATOM      1  N   UNL     1      -0.033  -7.186  31.477  0.00  0.00    -0.273 NA
ATOM      2  H   UNL     1       0.987  -7.186  31.477  0.00  0.00    +0.137 HD
ATOM      3  H   UNL     1      -0.373  -6.360  30.985  0.00  0.00    +0.137 HD
ENDROOT
TORSDOF 0
REMARK  Name = =
REMARK  3 active torsions:
REMARK  status: ('A' for Active; 'I' for Inactive)
REMARK    1  A    between atoms: N_1  and  C_2
REMARK    2  A    between atoms: N_1  and  N_20
REMARK    3  A    between atoms: O_16  and  O_19
REMARK                            x       y       z     vdW  Elec       q    Type
REMARK                         _______ _______ _______ _____ _____    ______ ____
ROOT
ATOM      1  O   HOH     1      -0.665  -7.741  33.236  0.00  0.00    -0.253 OA
ATOM      2  H   HOH     0       0.305  -7.741  33.236  0.00  0.00    +0.253 HD
ENDROOT
TORSDOF 0
