REMARK  Name = =
REMARK  7 active torsions:
REMARK  status: ('A' for Active; 'I' for Inactive)
REMARK    1  A    between atoms: C_1  and  N_15
REMARK    2  A    between atoms: N_15  and  P_16
REMARK    3  A    between atoms: N_15  and  N_21
REMARK    4  A    between atoms: P_16  and  O_17
REMARK    5  A    between atoms: P_16  and  N_18
REMARK    6  A    between atoms: P_16  and  O_19
REMARK    7  A    between atoms: O_17  and  O_20
REMARK                            x       y       z     vdW  Elec       q    Type
REMARK                         _______ _______ _______ _____ _____    ______ ____
ROOT
ATOM      1  C   UNL     1      -2.804  -5.227  30.808  0.00  0.00    +0.069 C 
ATOM      2  C   UNL     1      -1.884  -4.815  29.894  0.00  0.00    +0.018 C 
ATOM      3  C   UNL     1      -1.852  -3.489  29.446  0.00  0.00    +0.019 C 
ATOM      4  C   UNL     1      -2.745  -2.570  29.915  0.00  0.00    +0.086 C 
ATOM      5  N   UNL     1      -2.682  -1.224  29.435  0.00  0.00    -0.128 NA
ATOM      6  C   UNL     1      -3.686  -2.976  30.845  0.00  0.00    +0.004 C 
ATOM      7  C   UNL     1      -3.696  -4.289  31.269  0.00  0.00    +0.013 C 
ATOM      8  C   UNL     1      -4.796  -4.430  32.250  0.00  0.00    -0.003 C 
ATOM      9  C   UNL     1      -5.392  -3.078  32.328  0.00  0.00    -0.014 C 
ATOM     10  C   UNL     1      -6.449  -2.586  33.073  0.00  0.00    -0.004 C 
ATOM     11  C   UNL     1      -6.847  -1.263  32.993  0.00  0.00    -0.001 C 
ATOM     12  C   UNL     1      -6.177  -0.405  32.150  0.00  0.00    -0.004 C 
ATOM     13  C   UNL     1      -5.124  -0.871  31.401  0.00  0.00    -0.018 C 
ATOM     14  C   UNL     1      -4.734  -2.202  31.491  0.00  0.00    +0.068 C 
ENDROOT
BRANCH   1  15
ATOM     15  N   UNL     1      -2.855  -6.541  31.266  0.00  0.00    -0.203 N 
BRANCH  15  16
ATOM     16  N   UNL     1      -4.072  -7.043  31.789  0.00  0.00    -0.247 NA
ATOM     17  H   UNL     1      -4.785  -6.315  31.749  0.00  0.00    +0.141 HD
ATOM     18  H   UNL     1      -3.933  -7.330  32.758  0.00  0.00    +0.141 HD
ENDBRANCH  15  16
BRANCH  15  19
ATOM     19  P   UNL     1      -1.563  -7.703  31.286  0.00  0.00    +0.208 P 
ATOM     20  H   UNL     1      -0.885  -6.653  30.700  0.00  0.00    +0.142 HD
BRANCH  19  21
ATOM     21  N   UNL     1      -2.062  -9.031  30.339  0.00  0.00    -0.264 NA
ATOM     22  H   UNL     1      -2.544  -9.708  30.930  0.00  0.00    +0.127 HD
ATOM     23  H   UNL     1      -1.246  -9.471  29.914  0.00  0.00    +0.127 HD
ENDBRANCH  19  21
BRANCH  19  24
ATOM     24  O   UNL     1      -0.017  -7.098  31.199  0.00  0.00    -0.337 OA
ATOM     25  H   UNL     1       0.579  -7.658  31.720  0.00  0.00    +0.219 HD
ENDBRANCH  19  24
BRANCH  19  26
ATOM     26  O   UNL     1      -2.107  -8.940  32.026  0.00  0.00    -0.171 OA
BRANCH  26  27
ATOM     27  O   UNL     1      -1.764  -7.864  32.964  0.00  0.00    -0.243 OA
ATOM     28  H   UNL     1      -1.952  -8.153  33.871  0.00  0.00    +0.254 HD
ENDBRANCH  26  27
ENDBRANCH  19  26
ENDBRANCH  15  19
ENDBRANCH   1  15
TORSDOF 7
