REMARK  Name = =
REMARK  4 active torsions:
REMARK  status: ('A' for Active; 'I' for Inactive)
REMARK    1  A    between atoms: C_1  and  N_19
REMARK    2  A    between atoms: C_3  and  N_15
REMARK    3  A    between atoms: N_19  and  N_25
REMARK    4  A    between atoms: O_21  and  O_23
REMARK                            x       y       z     vdW  Elec       q    Type
REMARK                         _______ _______ _______ _____ _____    ______ ____
ROOT
ATOM      1  C   UNL     1      -2.132  -5.398  31.009  0.00  0.00    +0.084 C 
ATOM      2  C   UNL     1      -1.368  -4.924  30.000  0.00  0.00    +0.034 C 
ATOM      3  C   UNL     1      -1.561  -3.701  29.424  0.00  0.00    +0.069 C 
ATOM      4  C   UNL     1      -2.620  -2.948  29.951  0.00  0.00    +0.099 C 
ATOM      5  N   UNL     1      -2.897  -1.653  29.414  0.00  0.00    -0.127 NA
ATOM      6  C   UNL     1      -3.418  -3.407  30.987  0.00  0.00    +0.005 C 
ATOM      7  C   UNL     1      -3.174  -4.643  31.521  0.00  0.00    +0.014 C 
ATOM      8  C   UNL     1      -4.161  -4.873  32.595  0.00  0.00    -0.003 C 
ATOM      9  C   UNL     1      -4.979  -3.654  32.611  0.00  0.00    -0.014 C 
ATOM     10  C   UNL     1      -6.061  -3.299  33.413  0.00  0.00    -0.004 C 
ATOM     11  C   UNL     1      -6.664  -2.098  33.240  0.00  0.00    -0.001 C 
ATOM     12  C   UNL     1      -6.227  -1.198  32.271  0.00  0.00    -0.004 C 
ATOM     13  C   UNL     1      -5.164  -1.539  31.478  0.00  0.00    -0.018 C 
ATOM     14  C   UNL     1      -4.559  -2.761  31.662  0.00  0.00    +0.068 C 
ENDROOT
BRANCH   3  15
ATOM     15  N   UNL     1      -0.816  -3.148  28.357  0.00  0.00    -0.267 N 
ATOM     16  C   UNL     1       0.301  -3.729  27.741  0.00  0.00    +0.301 C 
ATOM     17  O   UNL     1       0.749  -4.819  28.100  0.00  0.00    -0.253 OA
ATOM     18  N   UNL     1       0.914  -2.995  26.658  0.00  0.00    -0.313 N 
ATOM     19  H   UNL     1      -1.109  -2.273  28.015  0.00  0.00    +0.156 HD
ATOM     20  H   UNL     1       1.701  -3.365  26.196  0.00  0.00    +0.146 HD
ATOM     21  H   UNL     1       0.545  -2.125  26.382  0.00  0.00    +0.146 HD
ENDBRANCH   3  15
BRANCH   1  22
ATOM     22  N   UNL     1      -1.950  -6.676  31.633  0.00  0.00    -0.171 NA
BRANCH  22  23
ATOM     23  N   UNL     1      -1.292  -6.692  32.859  0.00  0.00    -0.235 NA
ATOM     24  H   UNL     1      -1.226  -7.652  33.197  0.00  0.00    +0.142 HD
ATOM     25  H   UNL     1      -1.813  -6.130  33.532  0.00  0.00    +0.142 HD
ENDBRANCH  22  23
ENDBRANCH   1  22
TORSDOF 3
REMARK  Name = =
REMARK  4 active torsions:
REMARK  status: ('A' for Active; 'I' for Inactive)
REMARK    1  A    between atoms: C_1  and  N_19
REMARK    2  A    between atoms: C_3  and  N_15
REMARK    3  A    between atoms: N_19  and  N_25
REMARK    4  A    between atoms: O_21  and  O_23
REMARK                            x       y       z     vdW  Elec       q    Type
REMARK                         _______ _______ _______ _____ _____    ______ ____
ROOT
ATOM      1  P   UNL     1      -2.542  -8.123  30.924  0.00  0.00    +0.000 P 
ENDROOT
TORSDOF 0
REMARK  Name = =
REMARK  4 active torsions:
REMARK  status: ('A' for Active; 'I' for Inactive)
REMARK    1  A    between atoms: C_1  and  N_19
REMARK    2  A    between atoms: C_3  and  N_15
REMARK    3  A    between atoms: N_19  and  N_25
REMARK    4  A    between atoms: O_21  and  O_23
REMARK                            x       y       z     vdW  Elec       q    Type
REMARK                         _______ _______ _______ _____ _____    ______ ____
ROOT
ATOM      1  O   UNL     1      -1.178  -8.129  30.270  0.00  0.00    -0.253 OA
ATOM      2  H   UNL     1      -0.861  -7.350  29.787  0.00  0.00    +0.253 HD
ENDROOT
BRANCH   1   3
ATOM      3  O   UNL     1      -2.225  -8.855  29.433  0.00  0.00    -0.253 OA
ATOM      4  H   UNL     1      -2.542  -9.634  29.916  0.00  0.00    +0.253 HD
ENDBRANCH   1   3
TORSDOF 1
REMARK  Name = =
REMARK  4 active torsions:
REMARK  status: ('A' for Active; 'I' for Inactive)
REMARK    1  A    between atoms: C_1  and  N_19
REMARK    2  A    between atoms: C_3  and  N_15
REMARK    3  A    between atoms: N_19  and  N_25
REMARK    4  A    between atoms: O_21  and  O_23
REMARK                            x       y       z     vdW  Elec       q    Type
REMARK                         _______ _______ _______ _____ _____    ______ ____
ROOT
ATOM      1  N   UNL     1      -2.551  -9.380  32.136  0.00  0.00    -0.273 NA
ATOM      2  H   UNL     1      -1.531  -9.380  32.136  0.00  0.00    +0.137 HD
ATOM      3  H   UNL     1      -2.891  -8.644  31.518  0.00  0.00    +0.137 HD
ENDROOT
TORSDOF 0
REMARK  Name = =
REMARK  4 active torsions:
REMARK  status: ('A' for Active; 'I' for Inactive)
REMARK    1  A    between atoms: C_1  and  N_19
REMARK    2  A    between atoms: C_3  and  N_15
REMARK    3  A    between atoms: N_19  and  N_25
REMARK    4  A    between atoms: O_21  and  O_23
REMARK                            x       y       z     vdW  Elec       q    Type
REMARK                         _______ _______ _______ _____ _____    ______ ____
ROOT
ATOM      1  O   HOH     1      -4.239  -7.870  30.964  0.00  0.00    -0.253 OA
ATOM      2  H   HOH     0      -3.269  -7.870  30.964  0.00  0.00    +0.253 HD
ENDROOT
TORSDOF 0
