REMARK  Name = =
REMARK  6 active torsions:
REMARK  status: ('A' for Active; 'I' for Inactive)
REMARK    1  A    between atoms: C_1  and  N_25
REMARK    2  A    between atoms: C_2  and  C_19
REMARK    3  A    between atoms: C_3  and  N_15
REMARK    4  A    between atoms: C_22  and  O_24
REMARK    5  A    between atoms: N_25  and  N_31
REMARK    6  A    between atoms: O_27  and  O_30
REMARK                            x       y       z     vdW  Elec       q    Type
REMARK                         _______ _______ _______ _____ _____    ______ ____
ROOT
ATOM      1  C   UNL     1      -0.914  -5.645  30.356  0.00  0.00    +0.075 C 
ATOM      2  C   UNL     1      -1.929  -5.119  31.098  0.00  0.00    +0.153 C 
ATOM      3  C   UNL     1      -2.378  -3.814  30.763  0.00  0.00    +0.059 C 
ATOM      4  C   UNL     1      -1.847  -3.068  29.748  0.00  0.00    +0.099 C 
ATOM      5  N   UNL     1      -2.312  -1.763  29.433  0.00  0.00    -0.127 NA
ATOM      6  C   UNL     1      -0.821  -3.613  29.010  0.00  0.00    +0.019 C 
ATOM      7  C   UNL     1      -0.369  -4.871  29.309  0.00  0.00    +0.014 C 
ATOM      8  C   UNL     1       0.720  -5.203  28.368  0.00  0.00    +0.001 C 
ATOM      9  C   UNL     1       0.864  -4.007  27.500  0.00  0.00    +0.000 C 
ATOM     10  C   UNL     1       1.746  -3.763  26.440  0.00  0.00    +0.000 C 
ATOM     11  C   UNL     1       1.715  -2.571  25.750  0.00  0.00    +0.000 C 
ATOM     12  C   UNL     1       0.777  -1.643  26.155  0.00  0.00    +0.000 C 
ATOM     13  C   UNL     1      -0.094  -1.871  27.195  0.00  0.00    +0.000 C 
ATOM     14  C   UNL     1      -0.051  -3.082  27.885  0.00  0.00    +0.001 C 
ENDROOT
BRANCH   3  15
ATOM     15  N   UNL     1      -3.445  -3.195  31.482  0.00  0.00    -0.270 N 
ATOM     16  C   UNL     1      -4.807  -3.262  31.046  0.00  0.00    +0.301 C 
ATOM     17  O   UNL     1      -5.009  -3.907  29.974  0.00  0.00    -0.253 OA
ATOM     18  N   UNL     1      -5.881  -2.663  31.732  0.00  0.00    -0.313 N 
ATOM     19  H   UNL     1      -3.236  -2.703  32.309  0.00  0.00    +0.156 HD
ATOM     20  H   UNL     1      -5.716  -2.163  32.564  0.00  0.00    +0.146 HD
ATOM     21  H   UNL     1      -6.797  -2.744  31.379  0.00  0.00    +0.146 HD
ENDBRANCH   3  15
BRANCH   2  22
ATOM     22  C   UNL     1      -2.635  -5.695  32.212  0.00  0.00    +0.241 C 
ATOM     23  O   UNL     1      -3.364  -4.954  32.978  0.00  0.00    -0.274 OA
ATOM     24  N   UNL     1      -2.610  -7.055  32.571  0.00  0.00    -0.221 N 
ATOM     25  C   UNL     1      -3.355  -7.555  33.704  0.00  0.00    +0.404 C 
ATOM     26  O   UNL     1      -4.031  -6.733  34.360  0.00  0.00    -0.226 OA
ATOM     27  H   UNL     1      -2.071  -7.682  32.037  0.00  0.00    +0.161 HD
BRANCH  25  28
ATOM     28  O   UNL     1      -3.311  -8.901  34.034  0.00  0.00    -0.466 OA
ATOM     29  H   UNL     1      -2.795  -9.492  33.522  0.00  0.00    +0.297 HD
ENDBRANCH  25  28
ENDBRANCH   2  22
BRANCH   1  30
ATOM     30  N   UNL     1      -0.396  -6.926  30.579  0.00  0.00    -0.174 NA
BRANCH  30  31
ATOM     31  N   UNL     1       0.538  -7.090  31.632  0.00  0.00    -0.236 NA
ATOM     32  H   UNL     1       0.829  -8.066  31.679  0.00  0.00    +0.142 HD
ATOM     33  H   UNL     1       0.105  -6.821  32.516  0.00  0.00    +0.142 HD
ENDBRANCH  30  31
ENDBRANCH   1  30
TORSDOF 5
REMARK  Name = =
REMARK  6 active torsions:
REMARK  status: ('A' for Active; 'I' for Inactive)
REMARK    1  A    between atoms: C_1  and  N_25
REMARK    2  A    between atoms: C_2  and  C_19
REMARK    3  A    between atoms: C_3  and  N_15
REMARK    4  A    between atoms: C_22  and  O_24
REMARK    5  A    between atoms: N_25  and  N_31
REMARK    6  A    between atoms: O_27  and  O_30
REMARK                            x       y       z     vdW  Elec       q    Type
REMARK                         _______ _______ _______ _____ _____    ______ ____
ROOT
ATOM      1  P   UNL     1      -0.874  -8.220  29.505  0.00  0.00    +0.000 P 
ENDROOT
TORSDOF 0
REMARK  Name = =
REMARK  6 active torsions:
REMARK  status: ('A' for Active; 'I' for Inactive)
REMARK    1  A    between atoms: C_1  and  N_25
REMARK    2  A    between atoms: C_2  and  C_19
REMARK    3  A    between atoms: C_3  and  N_15
REMARK    4  A    between atoms: C_22  and  O_24
REMARK    5  A    between atoms: N_25  and  N_31
REMARK    6  A    between atoms: O_27  and  O_30
REMARK                            x       y       z     vdW  Elec       q    Type
REMARK                         _______ _______ _______ _____ _____    ______ ____
ROOT
ATOM      1  O   UNL     1       0.482  -8.089  28.911  0.00  0.00    -0.253 OA
ATOM      2  H   UNL     1       0.766  -7.163  28.863  0.00  0.00    +0.253 HD
ENDROOT
BRANCH   1   3
ATOM      3  O   UNL     1      -0.578  -8.346  27.867  0.00  0.00    -0.253 OA
ATOM      4  H   UNL     1      -0.862  -9.272  27.915  0.00  0.00    +0.253 HD
ENDBRANCH   1   3
TORSDOF 1
REMARK  Name = =
REMARK  6 active torsions:
REMARK  status: ('A' for Active; 'I' for Inactive)
REMARK    1  A    between atoms: C_1  and  N_25
REMARK    2  A    between atoms: C_2  and  C_19
REMARK    3  A    between atoms: C_3  and  N_15
REMARK    4  A    between atoms: C_22  and  O_24
REMARK    5  A    between atoms: N_25  and  N_31
REMARK    6  A    between atoms: O_27  and  O_30
REMARK                            x       y       z     vdW  Elec       q    Type
REMARK                         _______ _______ _______ _____ _____    ______ ____
ROOT
ATOM      1  N   UNL     1      -2.639  -8.033  29.502  0.00  0.00    -0.273 NA
ATOM      2  H   UNL     1      -1.619  -8.033  29.502  0.00  0.00    +0.137 HD
ATOM      3  H   UNL     1      -2.979  -8.663  28.775  0.00  0.00    +0.137 HD
ENDROOT
TORSDOF 0
REMARK  Name = =
REMARK  6 active torsions:
REMARK  status: ('A' for Active; 'I' for Inactive)
REMARK    1  A    between atoms: C_1  and  N_25
REMARK    2  A    between atoms: C_2  and  C_19
REMARK    3  A    between atoms: C_3  and  N_15
REMARK    4  A    between atoms: C_22  and  O_24
REMARK    5  A    between atoms: N_25  and  N_31
REMARK    6  A    between atoms: O_27  and  O_30
REMARK                            x       y       z     vdW  Elec       q    Type
REMARK                         _______ _______ _______ _____ _____    ______ ____
ROOT
ATOM      1  O   HOH     1      -0.698  -9.754  30.218  0.00  0.00    -0.253 OA
ATOM      2  H   HOH     0       0.272  -9.754  30.218  0.00  0.00    +0.253 HD
ENDROOT
TORSDOF 0
