REMARK  Name = =
REMARK  0 active torsions:
REMARK  status: ('A' for Active; 'I' for Inactive)
REMARK                            x       y       z     vdW  Elec       q    Type
REMARK                         _______ _______ _______ _____ _____    ______ ____
ROOT
ATOM      1  C   UNL     1      -0.929  -3.232  30.208  0.00  0.00    +0.118 C 
ATOM      2  N   UNL     1      -2.181  -3.773  30.182  0.00  0.00    -0.241 NA
ATOM      3  C   UNL     1      -2.415  -4.952  29.580  0.00  0.00    +0.099 C 
ATOM      4  C   UNL     1      -1.350  -5.597  28.990  0.00  0.00    +0.022 C 
ATOM      5  C   UNL     1      -0.066  -5.072  28.999  0.00  0.00    +0.021 C 
ATOM      6  C   UNL     1       0.147  -3.862  29.623  0.00  0.00    +0.100 C 
ATOM      7  N   UNL     1       1.389  -3.344  29.638  0.00  0.00    -0.242 NA
ATOM      8  C   UNL     1       2.435  -3.977  29.059  0.00  0.00    +0.099 C 
ATOM      9  C   UNL     1       2.267  -5.189  28.423  0.00  0.00    +0.021 C 
ATOM     10  C   UNL     1       0.995  -5.721  28.407  0.00  0.00    +0.003 C 
ENDROOT
TORSDOF 0
