REMARK  Name = =
REMARK  1 active torsions:
REMARK  status: ('A' for Active; 'I' for Inactive)
REMARK    1  A    between atoms: C_3  and  N_7
REMARK                            x       y       z     vdW  Elec       q    Type
REMARK                         _______ _______ _______ _____ _____    ______ ____
ROOT
ATOM      1  C   UNL     1      -3.838  -4.973  30.807  0.00  0.00    +0.001 C 
ATOM      2  C   UNL     1      -2.826  -5.044  29.881  0.00  0.00    +0.014 C 
ATOM      3  C   UNL     1      -2.278  -3.894  29.372  0.00  0.00    +0.042 C 
ATOM      4  C   UNL     1      -2.752  -2.679  29.796  0.00  0.00    +0.014 C 
ATOM      5  C   UNL     1      -3.767  -2.637  30.722  0.00  0.00    +0.001 C 
ATOM      6  C   UNL     1      -4.340  -3.772  31.256  0.00  0.00    +0.000 C 
ENDROOT
BRANCH   3   7
ATOM      7  N   UNL     1      -1.241  -3.938  28.424  0.00  0.00    -0.357 N 
ATOM      8  H   UNL     1      -0.861  -3.101  28.071  0.00  0.00    +0.142 HD
ATOM      9  H   UNL     1      -0.895  -4.806  28.113  0.00  0.00    +0.142 HD
ENDBRANCH   3   7
TORSDOF 1
