REMARK  Name = =
REMARK  3 active torsions:
REMARK  status: ('A' for Active; 'I' for Inactive)
REMARK    1  A    between atoms: N_1  and  C_4
REMARK    2  A    between atoms: N_1  and  O_8
REMARK    3  A    between atoms: O_8  and  C_9
REMARK                            x       y       z     vdW  Elec       q    Type
REMARK                         _______ _______ _______ _____ _____    ______ ____
ROOT
ATOM      1  N   UNL     1      -1.362  -4.040  28.163  0.00  0.00    -0.220 N 
ATOM      2  H   UNL     1      -0.681  -4.681  27.856  0.00  0.00    +0.207 HD
ENDROOT
BRANCH   1   5
ATOM      3  C   UNL     1      -2.988  -5.940  30.937  0.00  0.00    +0.002 C 
ATOM      4  C   UNL     1      -2.129  -5.575  29.920  0.00  0.00    +0.020 C 
ATOM      5  C   UNL     1      -2.251  -4.413  29.211  0.00  0.00    +0.089 C 
ATOM      6  C   UNL     1      -3.300  -3.561  29.540  0.00  0.00    +0.020 C 
ATOM      7  C   UNL     1      -4.175  -3.894  30.547  0.00  0.00    +0.002 C 
ATOM      8  C   UNL     1      -4.020  -5.087  31.248  0.00  0.00    +0.000 C 
ENDBRANCH   1   5
BRANCH   1   9
ATOM      9  O   UNL     1      -1.436  -2.823  27.582  0.00  0.00    -0.379 OA
BRANCH   9  10
ATOM     10  C   UNL     1      -0.237  -2.123  27.366  0.00  0.00    +0.176 C 
ATOM     11  C   UNL     1       0.570  -1.774  28.407  0.00  0.00    +0.061 C 
ATOM     12  C   UNL     1       1.751  -1.087  28.217  0.00  0.00    +0.102 C 
ATOM     13  N   UNL     1       2.084  -0.769  26.962  0.00  0.00    -0.242 NA
ATOM     14  C   UNL     1       1.300  -1.103  25.912  0.00  0.00    +0.102 C 
ATOM     15  C   UNL     1       0.115  -1.791  26.081  0.00  0.00    +0.061 C 
ENDBRANCH   9  10
ENDBRANCH   1   9
TORSDOF 3
