REMARK  Name = =
REMARK  4 active torsions:
REMARK  status: ('A' for Active; 'I' for Inactive)
REMARK    1  A    between atoms: C_1  and  O_16
REMARK    2  A    between atoms: C_2  and  N_7
REMARK    3  A    between atoms: O_16  and  N_17
REMARK    4  A    between atoms: N_17  and  C_20
REMARK                            x       y       z     vdW  Elec       q    Type
REMARK                         _______ _______ _______ _____ _____    ______ ____
ROOT
ATOM      1  C   UNL     1      -0.545  -2.123  26.210  0.00  0.00    +0.190 C 
ATOM      2  C   UNL     1       0.650  -2.040  25.621  0.00  0.00    +0.118 C 
ATOM      3  C   UNL     1       0.662  -1.647  24.272  0.00  0.00    +0.117 C 
ATOM      4  N   UNL     1      -0.484  -1.375  23.639  0.00  0.00    -0.241 NA
ATOM      5  C   UNL     1      -1.710  -1.460  24.252  0.00  0.00    +0.102 C 
ATOM      6  C   UNL     1      -1.735  -1.847  25.575  0.00  0.00    +0.062 C 
ENDROOT
BRANCH   2   7
ATOM      7  N   UNL     1       1.914  -2.273  26.207  0.00  0.00    -0.187 N 
ATOM      8  C   UNL     1       2.700  -1.258  26.792  0.00  0.00    +0.319 C 
ATOM      9  O   UNL     1       2.280  -0.096  26.857  0.00  0.00    -0.251 OA
ATOM     10  N   UNL     1       3.992  -1.558  27.319  0.00  0.00    -0.238 N 
ATOM     11  C   UNL     1       4.479  -2.881  27.249  0.00  0.00    +0.239 C 
ATOM     12  O   UNL     1       5.735  -3.039  27.385  0.00  0.00    -0.274 OA
ATOM     13  C   UNL     1       3.562  -4.002  27.031  0.00  0.00    +0.171 C 
ATOM     14  C   UNL     1       2.442  -3.612  26.161  0.00  0.00    +0.246 C 
ATOM     15  O   UNL     1       1.921  -4.455  25.351  0.00  0.00    -0.274 OA
ATOM     16  H   UNL     1       4.539  -0.849  27.728  0.00  0.00    +0.159 HD
ENDBRANCH   2   7
BRANCH   1  17
ATOM     17  O   UNL     1      -0.665  -2.512  27.557  0.00  0.00    -0.377 OA
BRANCH  17  18
ATOM     18  N   UNL     1      -1.065  -3.803  27.824  0.00  0.00    -0.220 N 
ATOM     19  H   UNL     1      -1.995  -4.068  27.637  0.00  0.00    +0.207 HD
BRANCH  18  22
ATOM     20  C   UNL     1       0.767  -6.965  28.213  0.00  0.00    +0.002 C 
ATOM     21  C   UNL     1      -0.079  -6.011  27.703  0.00  0.00    +0.020 C 
ATOM     22  C   UNL     1      -0.170  -4.755  28.360  0.00  0.00    +0.089 C 
ATOM     23  C   UNL     1       0.604  -4.605  29.454  0.00  0.00    +0.020 C 
ATOM     24  C   UNL     1       1.467  -5.547  29.995  0.00  0.00    +0.002 C 
ATOM     25  C   UNL     1       1.528  -6.785  29.310  0.00  0.00    +0.000 C 
ENDBRANCH  18  22
ENDBRANCH  17  18
ENDBRANCH   1  17
TORSDOF 4
