REMARK  Name = =
REMARK  6 active torsions:
REMARK  status: ('A' for Active; 'I' for Inactive)
REMARK    1  A    between atoms: C_1  and  C_16
REMARK    2  A    between atoms: C_16  and  C_18
REMARK    3  A    between atoms: C_18  and  O_20
REMARK    4  A    between atoms: O_20  and  C_21
REMARK    5  A    between atoms: C_21  and  O_23
REMARK    6  A    between atoms: O_23  and  N_24
REMARK                            x       y       z     vdW  Elec       q    Type
REMARK                         _______ _______ _______ _____ _____    ______ ____
ROOT
ATOM      1  C   UNL     1     -10.785  -2.365  20.328  0.00  0.00    +0.144 C 
ATOM      2  N   UNL     1     -10.113  -2.280  19.169  0.00  0.00    -0.239 NA
ATOM      3  C   UNL     1      -8.862  -1.786  19.088  0.00  0.00    +0.099 C 
ATOM      4  C   UNL     1      -8.230  -1.346  20.232  0.00  0.00    +0.022 C 
ATOM      5  C   UNL     1      -8.867  -1.407  21.454  0.00  0.00    +0.021 C 
ATOM      6  C   UNL     1     -10.153  -1.925  21.469  0.00  0.00    +0.104 C 
ATOM      7  N   UNL     1     -10.764  -1.978  22.673  0.00  0.00    -0.227 NA
ATOM      8  C   UNL     1     -10.164  -1.554  23.798  0.00  0.00    +0.155 C 
ATOM      9  N   UNL     1     -10.897  -1.652  25.028  0.00  0.00    -0.171 N 
ATOM     10  N   UNL     1     -12.206  -1.710  25.191  0.00  0.00    -0.171 NA
ATOM     11  C   UNL     1     -12.535  -1.797  26.490  0.00  0.00    +0.120 C 
ATOM     12  C   UNL     1     -11.347  -1.794  27.187  0.00  0.00    +0.040 C 
ATOM     13  C   UNL     1     -10.336  -1.702  26.255  0.00  0.00    +0.093 C 
ATOM     14  C   UNL     1      -8.885  -1.038  23.780  0.00  0.00    +0.036 C 
ATOM     15  C   UNL     1      -8.211  -0.959  22.580  0.00  0.00    +0.005 C 
ENDROOT
BRANCH   1  16
ATOM     16  C   UNL     1     -12.150  -2.906  20.403  0.00  0.00    +0.290 C 
ATOM     17  O   UNL     1     -13.144  -2.137  20.466  0.00  0.00    -0.278 OA
BRANCH  16  18
ATOM     18  C   UNL     1     -12.402  -4.340  20.408  0.00  0.00    +0.391 C 
ATOM     19  O   UNL     1     -13.449  -4.762  19.857  0.00  0.00    -0.241 OA
BRANCH  18  20
ATOM     20  O   UNL     1     -11.536  -5.228  20.992  0.00  0.00    -0.354 OA
BRANCH  20  21
ATOM     21  C   UNL     1     -11.421  -5.381  22.372  0.00  0.00    +0.537 C 
ATOM     22  O   UNL     1     -12.451  -5.567  23.069  0.00  0.00    -0.201 OA
BRANCH  21  23
ATOM     23  O   UNL     1     -10.149  -5.320  22.922  0.00  0.00    -0.340 OA
BRANCH  23  24
ATOM     24  N   UNL     1      -9.958  -4.813  24.167  0.00  0.00    -0.162 NA
ATOM     25  H   UNL     1      -8.966  -4.849  24.400  0.00  0.00    +0.163 HD
ATOM     26  H   UNL     1     -10.487  -5.364  24.843  0.00  0.00    +0.163 HD
ENDBRANCH  23  24
ENDBRANCH  21  23
ENDBRANCH  20  21
ENDBRANCH  18  20
ENDBRANCH  16  18
ENDBRANCH   1  16
TORSDOF 6
