REMARK  Name = =
REMARK  5 active torsions:
REMARK  status: ('A' for Active; 'I' for Inactive)
REMARK    1  A    between atoms: C_1  and  O_21
REMARK    2  A    between atoms: C_2  and  N_7
REMARK    3  A    between atoms: C_13  and  N_16
REMARK    4  A    between atoms: O_21  and  N_22
REMARK    5  A    between atoms: N_22  and  C_25
REMARK                            x       y       z     vdW  Elec       q    Type
REMARK                         _______ _______ _______ _____ _____    ______ ____
ROOT
ATOM      1  C   UNL     1       0.833 -12.669  24.489  0.00  0.00    +0.190 C 
ATOM      2  C   UNL     1       0.440 -12.214  23.260  0.00  0.00    +0.118 C 
ATOM      3  C   UNL     1      -0.224 -10.971  23.183  0.00  0.00    +0.117 C 
ATOM      4  N   UNL     1      -0.478 -10.235  24.276  0.00  0.00    -0.241 NA
ATOM      5  C   UNL     1      -0.101 -10.667  25.483  0.00  0.00    +0.102 C 
ATOM      6  C   UNL     1       0.558 -11.887  25.599  0.00  0.00    +0.062 C 
ENDROOT
BRANCH   2   7
ATOM      7  N   UNL     1       0.691 -12.905  22.051  0.00  0.00    -0.186 N 
ATOM      8  C   UNL     1      -0.294 -13.851  21.563  0.00  0.00    +0.320 C 
ATOM      9  O   UNL     1      -1.377 -13.992  22.208  0.00  0.00    -0.251 OA
ATOM     10  N   UNL     1      -0.065 -14.604  20.386  0.00  0.00    -0.237 N 
ATOM     11  C   UNL     1       1.135 -14.431  19.685  0.00  0.00    +0.258 C 
ATOM     12  O   UNL     1       1.248 -14.885  18.527  0.00  0.00    -0.272 OA
ATOM     13  C   UNL     1       2.313 -13.716  20.264  0.00  0.00    +0.249 C 
ATOM     14  C   UNL     1       1.893 -12.737  21.332  0.00  0.00    +0.266 C 
ATOM     15  O   UNL     1       2.613 -11.744  21.602  0.00  0.00    -0.272 OA
ATOM     16  H   UNL     1      -0.742 -15.242  20.064  0.00  0.00    +0.159 HD
BRANCH  13  17
ATOM     17  N   UNL     1       3.222 -14.695  20.837  0.00  0.00    -0.194 N 
ATOM     18  N   UNL     1       4.484 -14.790  20.474  0.00  0.00    -0.175 NA
ATOM     19  C   UNL     1       5.010 -15.784  21.190  0.00  0.00    +0.119 C 
ATOM     20  C   UNL     1       4.047 -16.311  22.013  0.00  0.00    +0.040 C 
ATOM     21  C   UNL     1       2.889 -15.589  21.768  0.00  0.00    +0.087 C 
ENDBRANCH  13  17
ENDBRANCH   2   7
BRANCH   1  22
ATOM     22  O   UNL     1       1.482 -13.894  24.578  0.00  0.00    -0.377 OA
BRANCH  22  23
ATOM     23  N   UNL     1       2.417 -14.263  25.470  0.00  0.00    -0.220 N 
ATOM     24  H   UNL     1       2.123 -14.794  26.245  0.00  0.00    +0.207 HD
BRANCH  23  27
ATOM     25  C   UNL     1       5.988 -13.965  26.428  0.00  0.00    +0.002 C 
ATOM     26  C   UNL     1       4.643 -14.241  26.465  0.00  0.00    +0.020 C 
ATOM     27  C   UNL     1       3.816 -13.940  25.377  0.00  0.00    +0.089 C 
ATOM     28  C   UNL     1       4.395 -13.363  24.280  0.00  0.00    +0.020 C 
ATOM     29  C   UNL     1       5.759 -13.095  24.269  0.00  0.00    +0.002 C 
ATOM     30  C   UNL     1       6.587 -13.387  25.332  0.00  0.00    +0.000 C 
ENDBRANCH  23  27
ENDBRANCH  22  23
ENDBRANCH   1  22
TORSDOF 5
