REMARK  Name = =
REMARK  7 active torsions:
REMARK  status: ('A' for Active; 'I' for Inactive)
REMARK    1  A    between atoms: C_1  and  C_22
REMARK    2  A    between atoms: C_14  and  C_16
REMARK    3  A    between atoms: C_22  and  C_24
REMARK    4  A    between atoms: C_24  and  O_26
REMARK    5  A    between atoms: O_26  and  C_27
REMARK    6  A    between atoms: C_27  and  O_29
REMARK    7  A    between atoms: O_29  and  N_30
REMARK                            x       y       z     vdW  Elec       q    Type
REMARK                         _______ _______ _______ _____ _____    ______ ____
ROOT
ATOM      1  C   UNL     1     -10.298  -0.278  17.869  0.00  0.00    +0.144 C 
ATOM      2  N   UNL     1     -10.889   0.842  17.416  0.00  0.00    -0.239 NA
ATOM      3  C   UNL     1     -10.406   2.062  17.697  0.00  0.00    +0.099 C 
ATOM      4  C   UNL     1      -9.274   2.216  18.470  0.00  0.00    +0.022 C 
ATOM      5  C   UNL     1      -8.634   1.096  18.956  0.00  0.00    +0.021 C 
ATOM      6  C   UNL     1      -9.173  -0.132  18.637  0.00  0.00    +0.104 C 
ATOM      7  N   UNL     1      -8.564  -1.226  19.101  0.00  0.00    -0.227 NA
ATOM      8  C   UNL     1      -7.457  -1.163  19.861  0.00  0.00    +0.157 C 
ATOM      9  N   UNL     1      -6.818  -2.358  20.350  0.00  0.00    -0.171 N 
ATOM     10  N   UNL     1      -5.867  -3.013  19.728  0.00  0.00    -0.171 NA
ATOM     11  C   UNL     1      -5.479  -4.096  20.456  0.00  0.00    +0.120 C 
ATOM     12  C   UNL     1      -6.271  -4.067  21.590  0.00  0.00    +0.040 C 
ATOM     13  C   UNL     1      -7.105  -2.968  21.507  0.00  0.00    +0.093 C 
ATOM     14  C   UNL     1      -6.914   0.062  20.184  0.00  0.00    +0.067 C 
ATOM     15  C   UNL     1      -7.501   1.226  19.732  0.00  0.00    +0.007 C 
ENDROOT
BRANCH  14  16
ATOM     16  C   UNL     1      -5.715   0.154  21.006  0.00  0.00    +0.153 C 
ATOM     17  N   UNL     1      -4.498   0.228  20.470  0.00  0.00    -0.228 NA
ATOM     18  C   UNL     1      -3.372   0.315  21.227  0.00  0.00    +0.253 C 
ATOM     19  N   UNL     1      -3.549   0.323  22.569  0.00  0.00    -0.225 NA
ATOM     20  C   UNL     1      -4.757   0.251  23.149  0.00  0.00    +0.184 C 
ATOM     21  N   UNL     1      -5.836   0.166  22.338  0.00  0.00    -0.173 NA
ENDBRANCH  14  16
BRANCH   1  22
ATOM     22  C   UNL     1     -10.846  -1.604  17.546  0.00  0.00    +0.290 C 
ATOM     23  O   UNL     1     -11.889  -2.032  18.103  0.00  0.00    -0.278 OA
BRANCH  22  24
ATOM     24  C   UNL     1     -10.201  -2.471  16.572  0.00  0.00    +0.391 C 
ATOM     25  O   UNL     1      -9.506  -1.931  15.677  0.00  0.00    -0.241 OA
BRANCH  24  26
ATOM     26  O   UNL     1     -10.328  -3.850  16.600  0.00  0.00    -0.354 OA
BRANCH  26  27
ATOM     27  C   UNL     1      -9.310  -4.699  17.000  0.00  0.00    +0.537 C 
ATOM     28  O   UNL     1      -8.420  -4.263  17.767  0.00  0.00    -0.201 OA
BRANCH  27  29
ATOM     29  O   UNL     1      -9.222  -6.019  16.593  0.00  0.00    -0.340 OA
BRANCH  29  30
ATOM     30  N   UNL     1      -8.366  -6.919  17.213  0.00  0.00    -0.162 NA
ATOM     31  H   UNL     1      -8.451  -7.832  16.767  0.00  0.00    +0.163 HD
ATOM     32  H   UNL     1      -8.613  -6.998  18.200  0.00  0.00    +0.163 HD
ENDBRANCH  29  30
ENDBRANCH  27  29
ENDBRANCH  26  27
ENDBRANCH  24  26
ENDBRANCH  22  24
ENDBRANCH   1  22
TORSDOF 7
