REMARK  Name = =
REMARK  6 active torsions:
REMARK  status: ('A' for Active; 'I' for Inactive)
REMARK    1  A    between atoms: C_1  and  O_23
REMARK    2  A    between atoms: C_2  and  N_7
REMARK    3  A    between atoms: C_3  and  N_21
REMARK    4  A    between atoms: C_13  and  N_16
REMARK    5  A    between atoms: O_23  and  N_24
REMARK    6  A    between atoms: N_24  and  C_27
REMARK                            x       y       z     vdW  Elec       q    Type
REMARK                         _______ _______ _______ _____ _____    ______ ____
ROOT
ATOM      1  C   UNL     1       2.169 -10.958  22.713  0.00  0.00    +0.191 C 
ATOM      2  C   UNL     1       1.903 -11.368  24.032  0.00  0.00    +0.137 C 
ATOM      3  C   UNL     1       0.827 -12.202  24.196  0.00  0.00    +0.209 C 
ATOM      4  N   UNL     1       0.030 -12.640  23.205  0.00  0.00    -0.222 NA
ATOM      5  C   UNL     1       0.261 -12.263  21.936  0.00  0.00    +0.104 C 
ATOM      6  C   UNL     1       1.332 -11.426  21.722  0.00  0.00    +0.062 C 
ENDROOT
BRANCH   2   7
ATOM      7  N   UNL     1       2.725 -10.927  25.107  0.00  0.00    -0.184 N 
ATOM      8  C   UNL     1       3.929 -11.597  25.472  0.00  0.00    +0.320 C 
ATOM      9  O   UNL     1       4.291 -12.615  24.830  0.00  0.00    -0.251 OA
ATOM     10  N   UNL     1       4.737 -11.142  26.548  0.00  0.00    -0.237 N 
ATOM     11  C   UNL     1       4.357  -9.997  27.294  0.00  0.00    +0.258 C 
ATOM     12  O   UNL     1       5.182  -9.419  28.058  0.00  0.00    -0.272 OA
ATOM     13  C   UNL     1       2.998  -9.469  27.184  0.00  0.00    +0.249 C 
ATOM     14  C   UNL     1       2.384  -9.786  25.880  0.00  0.00    +0.266 C 
ATOM     15  O   UNL     1       1.494  -9.013  25.391  0.00  0.00    -0.272 OA
ATOM     16  H   UNL     1       5.565 -11.624  26.777  0.00  0.00    +0.159 HD
BRANCH  13  17
ATOM     17  N   UNL     1       3.050  -8.043  27.433  0.00  0.00    -0.194 N 
ATOM     18  N   UNL     1       3.729  -7.095  26.812  0.00  0.00    -0.175 NA
ATOM     19  C   UNL     1       3.495  -5.891  27.361  0.00  0.00    +0.119 C 
ATOM     20  C   UNL     1       2.620  -6.101  28.381  0.00  0.00    +0.040 C 
ATOM     21  C   UNL     1       2.351  -7.450  28.415  0.00  0.00    +0.087 C 
ENDBRANCH  13  17
ENDBRANCH   2   7
BRANCH   3  22
ATOM     22  N   UNL     1       0.519 -12.644  25.514  0.00  0.00    -0.075 NA
ATOM     23  O   UNL     1       0.992 -13.679  26.013  0.00  0.00    -0.059 OA
ENDBRANCH   3  22
BRANCH   1  24
ATOM     24  O   UNL     1       3.227 -10.136  22.535  0.00  0.00    -0.377 OA
BRANCH  24  25
ATOM     25  N   UNL     1       4.253 -10.103  21.705  0.00  0.00    -0.220 N 
ATOM     26  H   UNL     1       4.450 -10.949  21.242  0.00  0.00    +0.207 HD
BRANCH  25  29
ATOM     27  C   UNL     1       6.537  -7.923  19.802  0.00  0.00    +0.002 C 
ATOM     28  C   UNL     1       5.696  -8.955  20.130  0.00  0.00    +0.020 C 
ATOM     29  C   UNL     1       5.122  -9.007  21.383  0.00  0.00    +0.089 C 
ATOM     30  C   UNL     1       5.406  -8.018  22.280  0.00  0.00    +0.020 C 
ATOM     31  C   UNL     1       6.248  -6.995  21.931  0.00  0.00    +0.002 C 
ATOM     32  C   UNL     1       6.844  -6.911  20.682  0.00  0.00    +0.000 C 
ENDBRANCH  25  29
ENDBRANCH  24  25
ENDBRANCH   1  24
TORSDOF 6
