REMARK  Name = =
REMARK  8 active torsions:
REMARK  status: ('A' for Active; 'I' for Inactive)
REMARK    1  A    between atoms: C_1  and  O_23
REMARK    2  A    between atoms: C_2  and  N_7
REMARK    3  A    between atoms: C_3  and  N_21
REMARK    4  A    between atoms: C_13  and  N_16
REMARK    5  A    between atoms: O_23  and  N_24
REMARK    6  A    between atoms: N_24  and  C_27
REMARK    7  A    between atoms: N_24  and  C_31
REMARK    8  A    between atoms: C_32  and  N_33
REMARK                            x       y       z     vdW  Elec       q    Type
REMARK                         _______ _______ _______ _____ _____    ______ ____
ROOT
ATOM      1  C   UNL     1       3.595  -8.015  23.738  0.00  0.00    +0.192 C 
ATOM      2  C   UNL     1       4.369  -7.868  22.617  0.00  0.00    +0.138 C 
ATOM      3  C   UNL     1       3.932  -6.989  21.643  0.00  0.00    +0.223 C 
ATOM      4  N   UNL     1       2.778  -6.299  21.795  0.00  0.00    -0.221 NA
ATOM      5  C   UNL     1       2.013  -6.447  22.911  0.00  0.00    +0.104 C 
ATOM      6  C   UNL     1       2.397  -7.309  23.915  0.00  0.00    +0.062 C 
ENDROOT
BRANCH   2   7
ATOM      7  N   UNL     1       5.581  -8.602  22.479  0.00  0.00    -0.184 N 
ATOM      8  C   UNL     1       5.614  -9.898  21.884  0.00  0.00    +0.320 C 
ATOM      9  O   UNL     1       4.507 -10.372  21.471  0.00  0.00    -0.251 OA
ATOM     10  N   UNL     1       6.794 -10.658  21.735  0.00  0.00    -0.237 N 
ATOM     11  C   UNL     1       8.030 -10.149  22.188  0.00  0.00    +0.258 C 
ATOM     12  O   UNL     1       9.047 -10.928  22.305  0.00  0.00    -0.272 OA
ATOM     13  C   UNL     1       8.141  -8.714  22.524  0.00  0.00    +0.249 C 
ATOM     14  C   UNL     1       6.847  -8.124  22.918  0.00  0.00    +0.266 C 
ATOM     15  O   UNL     1       6.832  -7.115  23.704  0.00  0.00    -0.272 OA
ATOM     16  H   UNL     1       6.755 -11.547  21.313  0.00  0.00    +0.159 HD
BRANCH  13  17
ATOM     17  N   UNL     1       8.693  -8.050  21.332  0.00  0.00    -0.194 N 
ATOM     18  N   UNL     1       8.062  -7.396  20.380  0.00  0.00    -0.175 NA
ATOM     19  C   UNL     1       8.916  -6.930  19.452  0.00  0.00    +0.119 C 
ATOM     20  C   UNL     1      10.164  -7.307  19.832  0.00  0.00    +0.040 C 
ATOM     21  C   UNL     1      10.008  -8.007  21.010  0.00  0.00    +0.087 C 
ENDBRANCH  13  17
ENDBRANCH   2   7
BRANCH   3  22
ATOM     22  N   UNL     1       4.737  -6.843  20.483  0.00  0.00    -0.008 NA
ATOM     23  O   UNL     1       4.486  -7.375  19.393  0.00  0.00    -0.142 OA
ENDBRANCH   3  22
BRANCH   1  24
ATOM     24  O   UNL     1       4.057  -8.903  24.700  0.00  0.00    -0.370 OA
BRANCH  24  25
ATOM     25  N   UNL     1       3.723  -8.644  26.006  0.00  0.00    -0.171 N 
BRANCH  25  28
ATOM     26  C   UNL     1       4.015  -5.219  27.468  0.00  0.00    +0.002 C 
ATOM     27  C   UNL     1       3.502  -6.359  26.887  0.00  0.00    +0.021 C 
ATOM     28  C   UNL     1       4.274  -7.465  26.607  0.00  0.00    +0.098 C 
ATOM     29  C   UNL     1       5.621  -7.381  26.943  0.00  0.00    +0.021 C 
ATOM     30  C   UNL     1       6.144  -6.239  27.526  0.00  0.00    +0.002 C 
ATOM     31  C   UNL     1       5.349  -5.147  27.795  0.00  0.00    +0.000 C 
ENDBRANCH  25  28
BRANCH  25  32
ATOM     32  C   UNL     1       2.878  -9.457  26.791  0.00  0.00    +0.133 C 
ATOM     33  C   UNL     1       1.734  -9.887  26.311  0.00  0.00    +0.087 C 
BRANCH  33  34
ATOM     34  N   UNL     1       0.848 -10.703  27.057  0.00  0.00    -0.274 N 
ATOM     35  C   UNL     1       0.126 -11.782  26.475  0.00  0.00    +0.304 C 
ATOM     36  O   UNL     1       0.281 -12.025  25.240  0.00  0.00    -0.265 OA
ATOM     37  H   UNL     1       0.727 -10.516  28.016  0.00  0.00    +0.155 HD
ENDBRANCH  33  34
ENDBRANCH  25  32
ENDBRANCH  24  25
ENDBRANCH   1  24
TORSDOF 8
