REMARK  Name = =
REMARK  8 active torsions:
REMARK  status: ('A' for Active; 'I' for Inactive)
REMARK    1  A    between atoms: C_1  and  C_28
REMARK    2  A    between atoms: C_14  and  C_16
REMARK    3  A    between atoms: C_20  and  C_22
REMARK    4  A    between atoms: C_28  and  C_30
REMARK    5  A    between atoms: C_30  and  O_32
REMARK    6  A    between atoms: O_32  and  C_33
REMARK    7  A    between atoms: C_33  and  O_35
REMARK    8  A    between atoms: O_35  and  N_36
REMARK                            x       y       z     vdW  Elec       q    Type
REMARK                         _______ _______ _______ _____ _____    ______ ____
ROOT
ATOM      1  C   UNL     1      -8.805   0.457  17.694  0.00  0.00    +0.144 C 
ATOM      2  N   UNL     1      -9.399  -0.454  16.889  0.00  0.00    -0.239 NA
ATOM      3  C   UNL     1      -8.747  -1.550  16.453  0.00  0.00    +0.099 C 
ATOM      4  C   UNL     1      -7.436  -1.705  16.867  0.00  0.00    +0.022 C 
ATOM      5  C   UNL     1      -6.810  -0.791  17.686  0.00  0.00    +0.021 C 
ATOM      6  C   UNL     1      -7.493   0.309  18.112  0.00  0.00    +0.104 C 
ATOM      7  N   UNL     1      -6.891   1.206  18.912  0.00  0.00    -0.227 NA
ATOM      8  C   UNL     1      -5.603   1.067  19.327  0.00  0.00    +0.157 C 
ATOM      9  N   UNL     1      -5.042   2.079  20.181  0.00  0.00    -0.171 N 
ATOM     10  N   UNL     1      -4.424   3.182  19.837  0.00  0.00    -0.171 NA
ATOM     11  C   UNL     1      -4.059   3.868  20.911  0.00  0.00    +0.120 C 
ATOM     12  C   UNL     1      -4.469   3.158  22.014  0.00  0.00    +0.040 C 
ATOM     13  C   UNL     1      -5.083   2.042  21.520  0.00  0.00    +0.093 C 
ATOM     14  C   UNL     1      -4.877  -0.024  18.922  0.00  0.00    +0.067 C 
ATOM     15  C   UNL     1      -5.502  -0.939  18.103  0.00  0.00    +0.007 C 
ENDROOT
BRANCH  14  16
ATOM     16  C   UNL     1      -3.485  -0.236  19.332  0.00  0.00    +0.153 C 
ATOM     17  N   UNL     1      -3.199  -1.279  20.135  0.00  0.00    -0.228 NA
ATOM     18  C   UNL     1      -1.973  -1.584  20.582  0.00  0.00    +0.253 C 
ATOM     19  N   UNL     1      -0.978  -0.779  20.186  0.00  0.00    -0.225 NA
ATOM     20  C   UNL     1      -1.239   0.272  19.381  0.00  0.00    +0.187 C 
ATOM     21  N   UNL     1      -2.478   0.557  18.948  0.00  0.00    -0.173 NA
BRANCH  20  22
ATOM     22  C   UNL     1      -0.081   1.099  18.999  0.00  0.00    +0.196 C 
ATOM     23  N   UNL     1       1.173   0.646  19.096  0.00  0.00    -0.223 NA
ATOM     24  C   UNL     1       2.248   1.389  18.752  0.00  0.00    +0.102 C 
ATOM     25  C   UNL     1       2.062   2.675  18.276  0.00  0.00    +0.041 C 
ATOM     26  C   UNL     1       0.761   3.126  18.184  0.00  0.00    +0.102 C 
ATOM     27  N   UNL     1      -0.282   2.342  18.542  0.00  0.00    -0.223 NA
ENDBRANCH  20  22
ENDBRANCH  14  16
BRANCH   1  28
ATOM     28  C   UNL     1      -9.589   1.607  18.111  0.00  0.00    +0.290 C 
ATOM     29  O   UNL     1     -10.260   1.534  19.158  0.00  0.00    -0.278 OA
BRANCH  28  30
ATOM     30  C   UNL     1      -9.608   2.834  17.338  0.00  0.00    +0.391 C 
ATOM     31  O   UNL     1      -9.298   2.771  16.110  0.00  0.00    -0.241 OA
BRANCH  30  32
ATOM     32  O   UNL     1      -9.952   4.062  17.896  0.00  0.00    -0.354 OA
BRANCH  32  33
ATOM     33  C   UNL     1      -8.970   4.980  18.246  0.00  0.00    +0.537 C 
ATOM     34  O   UNL     1      -7.786   4.595  18.389  0.00  0.00    -0.201 OA
BRANCH  33  35
ATOM     35  O   UNL     1      -9.273   6.341  18.444  0.00  0.00    -0.340 OA
BRANCH  35  36
ATOM     36  N   UNL     1      -8.239   7.174  18.812  0.00  0.00    -0.162 NA
ATOM     37  H   UNL     1      -8.591   8.125  18.922  0.00  0.00    +0.163 HD
ATOM     38  H   UNL     1      -7.518   7.160  18.091  0.00  0.00    +0.163 HD
ENDBRANCH  35  36
ENDBRANCH  33  35
ENDBRANCH  32  33
ENDBRANCH  30  32
ENDBRANCH  28  30
ENDBRANCH   1  28
TORSDOF 8
