REMARK  Name = =
REMARK  8 active torsions:
REMARK  status: ('A' for Active; 'I' for Inactive)
REMARK    1  A    between atoms: C_1  and  O_23
REMARK    2  A    between atoms: C_2  and  N_7
REMARK    3  A    between atoms: C_3  and  N_21
REMARK    4  A    between atoms: C_13  and  N_16
REMARK    5  A    between atoms: O_23  and  N_24
REMARK    6  A    between atoms: N_24  and  C_27
REMARK    7  A    between atoms: N_24  and  C_31
REMARK    8  A    between atoms: C_32  and  N_33
REMARK                            x       y       z     vdW  Elec       q    Type
REMARK                         _______ _______ _______ _____ _____    ______ ____
ROOT
ATOM      1  C   UNL     1       2.068  -9.093  23.912  0.00  0.00    +0.192 C 
ATOM      2  C   UNL     1       1.941  -9.807  25.078  0.00  0.00    +0.137 C 
ATOM      3  C   UNL     1       0.810 -10.567  25.312  0.00  0.00    +0.209 C 
ATOM      4  N   UNL     1      -0.191 -10.617  24.392  0.00  0.00    -0.222 NA
ATOM      5  C   UNL     1      -0.084  -9.926  23.246  0.00  0.00    +0.104 C 
ATOM      6  C   UNL     1       1.043  -9.161  22.998  0.00  0.00    +0.062 C 
ENDROOT
BRANCH   2   7
ATOM      7  N   UNL     1       2.977  -9.762  26.040  0.00  0.00    -0.184 N 
ATOM      8  C   UNL     1       2.909  -8.805  27.081  0.00  0.00    +0.320 C 
ATOM      9  O   UNL     1       1.944  -8.008  27.156  0.00  0.00    -0.251 OA
ATOM     10  N   UNL     1       3.961  -8.739  28.071  0.00  0.00    -0.237 N 
ATOM     11  C   UNL     1       5.045  -9.646  27.973  0.00  0.00    +0.258 C 
ATOM     12  O   UNL     1       6.135  -9.347  28.556  0.00  0.00    -0.272 OA
ATOM     13  C   UNL     1       4.868 -10.894  27.202  0.00  0.00    +0.249 C 
ATOM     14  C   UNL     1       4.083 -10.640  25.995  0.00  0.00    +0.266 C 
ATOM     15  O   UNL     1       4.426 -11.224  24.933  0.00  0.00    -0.272 OA
ATOM     16  H   UNL     1       3.925  -8.077  28.799  0.00  0.00    +0.159 HD
BRANCH  13  17
ATOM     17  N   UNL     1       6.140 -11.529  26.901  0.00  0.00    -0.194 N 
ATOM     18  N   UNL     1       6.522 -12.722  27.290  0.00  0.00    -0.175 NA
ATOM     19  C   UNL     1       7.752 -13.025  26.846  0.00  0.00    +0.119 C 
ATOM     20  C   UNL     1       8.202 -11.930  26.104  0.00  0.00    +0.040 C 
ATOM     21  C   UNL     1       7.158 -11.023  26.167  0.00  0.00    +0.087 C 
ENDBRANCH  13  17
ENDBRANCH   2   7
BRANCH   3  22
ATOM     22  N   UNL     1       0.629 -11.319  26.490  0.00  0.00    -0.075 NA
ATOM     23  O   UNL     1       0.811 -12.552  26.487  0.00  0.00    -0.059 OA
ENDBRANCH   3  22
BRANCH   1  24
ATOM     24  O   UNL     1       3.199  -8.337  23.682  0.00  0.00    -0.370 OA
BRANCH  24  25
ATOM     25  N   UNL     1       3.580  -7.895  22.443  0.00  0.00    -0.171 N 
BRANCH  25  28
ATOM     26  C   UNL     1       4.104  -9.792  19.321  0.00  0.00    +0.002 C 
ATOM     27  C   UNL     1       3.585  -8.878  20.191  0.00  0.00    +0.021 C 
ATOM     28  C   UNL     1       4.067  -8.821  21.470  0.00  0.00    +0.098 C 
ATOM     29  C   UNL     1       5.071  -9.697  21.840  0.00  0.00    +0.021 C 
ATOM     30  C   UNL     1       5.606 -10.624  20.977  0.00  0.00    +0.002 C 
ATOM     31  C   UNL     1       5.101 -10.658  19.696  0.00  0.00    +0.000 C 
ENDBRANCH  25  28
BRANCH  25  32
ATOM     32  C   UNL     1       3.511  -6.523  22.069  0.00  0.00    +0.134 C 
ATOM     33  C   UNL     1       3.712  -5.542  22.933  0.00  0.00    +0.097 C 
BRANCH  33  34
ATOM     34  N   UNL     1       3.648  -4.171  22.576  0.00  0.00    -0.197 N 
ATOM     35  C   UNL     1       4.294  -3.156  23.356  0.00  0.00    +0.233 C 
ATOM     36  N   UNL     1       4.266  -1.868  22.981  0.00  0.00    -0.191 NA
ATOM     37  C   UNL     1       4.849  -0.868  23.663  0.00  0.00    +0.203 C 
ATOM     38  N   UNL     1       5.503  -1.201  24.802  0.00  0.00    -0.202 NA
ATOM     39  C   UNL     1       5.547  -2.485  25.204  0.00  0.00    +0.203 C 
ATOM     40  N   UNL     1       4.950  -3.456  24.491  0.00  0.00    -0.191 NA
ATOM     41  C   UNL     1       2.928  -3.802  21.416  0.00  0.00    +0.313 C 
ATOM     42  O   UNL     1       2.875  -2.574  21.095  0.00  0.00    -0.264 OA
ENDBRANCH  33  34
ENDBRANCH  25  32
ENDBRANCH  24  25
ENDBRANCH   1  24
TORSDOF 8
