MODEL 1
REMARK VINA RESULT:    -9.108      0.000      0.000
REMARK INTER + INTRA:         -15.101
REMARK INTER:                 -15.497
REMARK INTRA:                   0.396
REMARK UNBOUND:                 0.396
REMARK  Name = =
REMARK  13 active torsions:
REMARK  status: ('A' for Active; 'I' for Inactive)
REMARK    1  A    between atoms: C_1  and  C_11
REMARK    2  A    between atoms: C_1  and  C_39
REMARK    3  A    between atoms: C_7  and  N_30
REMARK    4  A    between atoms: C_8  and  C_49
REMARK    5  A    between atoms: C_9  and  O_53
REMARK    6  A    between atoms: C_12  and  O_29
REMARK    7  A    between atoms: C_14  and  C_17
REMARK    8  A    between atoms: N_19  and  S_20
REMARK    9  A    between atoms: S_20  and  C_23
REMARK   10  A    between atoms: N_30  and  N_34
REMARK   11  A    between atoms: C_36  and  C_41
REMARK   12  A    between atoms: C_43  and  C_47
REMARK   13  A    between atoms: C_50  and  C_51
REMARK                            x       y       z     vdW  Elec       q    Type
REMARK                         _______ _______ _______ _____ _____    ______ ____
ROOT
ATOM      1  C   UNL     1       3.138  -2.928  27.006  0.00  0.00    +0.062 C 
ATOM      2  C   UNL     1       3.492  -1.635  27.970  0.00  0.00    +0.010 C 
ATOM      3  C   UNL     1       2.423  -0.663  28.002  0.00  0.00    +0.005 C 
ATOM      4  C   UNL     1       1.386  -0.727  26.943  0.00  0.00    +0.026 C 
ATOM      5  C   UNL     1       2.157  -1.083  25.638  0.00  0.00    -0.022 C 
ATOM      6  C   UNL     1       2.981  -2.234  25.764  0.00  0.00    -0.006 C 
ATOM      7  C   UNL     1       3.658  -2.341  24.512  0.00  0.00    +0.074 C 
ATOM      8  C   UNL     1       3.526  -1.482  23.433  0.00  0.00    +0.049 C 
ATOM      9  C   UNL     1       2.696  -0.395  23.400  0.00  0.00    +0.135 C 
ATOM     10  C   UNL     1       1.969  -0.258  24.689  0.00  0.00    +0.032 C 
ENDROOT
BRANCH   1  11
ATOM     11  C   UNL     1       1.933  -3.425  27.684  0.00  0.00    +0.016 C 
ATOM     12  C   UNL     1       1.012  -4.295  26.906  0.00  0.00    +0.130 C 
ATOM     13  C   UNL     1      -0.185  -4.501  27.497  0.00  0.00    +0.041 C 
ATOM     14  C   UNL     1      -0.664  -4.041  28.678  0.00  0.00    +0.058 C 
ATOM     15  C   UNL     1       0.229  -3.220  29.428  0.00  0.00    +0.004 C 
ATOM     16  C   UNL     1       1.464  -3.000  28.838  0.00  0.00    -0.001 C 
BRANCH  14  17
ATOM     17  C   UNL     1      -2.001  -4.196  29.230  0.00  0.00    +0.264 C 
ATOM     18  O   UNL     1      -2.974  -4.702  28.808  0.00  0.00    -0.269 OA
ATOM     19  N   UNL     1      -2.140  -3.566  30.613  0.00  0.00    -0.181 N 
ATOM     20  H   UNL     1      -1.389  -3.115  31.062  0.00  0.00    +0.177 HD
BRANCH  19  21
ATOM     21  S   UNL     1      -3.694  -3.697  31.331  0.00  0.00    +0.076 S 
ATOM     22  O   UNL     1      -4.744  -3.456  30.346  0.00  0.00    -0.150 OA
ATOM     23  O   UNL     1      -3.849  -2.630  32.425  0.00  0.00    -0.150 OA
BRANCH  21  24
ATOM     24  C   UNL     1      -3.913  -5.287  32.069  0.00  0.00    +0.125 C 
ATOM     25  C   UNL     1      -3.880  -5.333  33.551  0.00  0.00    +0.020 C 
ATOM     26  C   UNL     1      -4.060  -6.591  34.113  0.00  0.00    +0.001 C 
ATOM     27  C   UNL     1      -4.257  -7.719  33.246  0.00  0.00    +0.000 C 
ATOM     28  C   UNL     1      -4.279  -7.665  31.933  0.00  0.00    +0.001 C 
ATOM     29  C   UNL     1      -4.094  -6.373  31.413  0.00  0.00    +0.020 C 
ENDBRANCH  21  24
ENDBRANCH  19  21
ENDBRANCH  14  17
BRANCH  12  30
ATOM     30  O   UNL     1       1.428  -4.790  25.726  0.00  0.00    -0.506 OA
ATOM     31  H   UNL     1       2.142  -5.395  25.698  0.00  0.00    +0.292 HD
ENDBRANCH  12  30
ENDBRANCH   1  11
BRANCH   7  32
ATOM     32  N   UNL     1       4.420  -3.472  24.255  0.00  0.00    -0.142 N 
ATOM     33  C   UNL     1       5.921  -3.198  24.398  0.00  0.00    +0.321 C 
ATOM     34  O   UNL     1       6.668  -4.126  24.082  0.00  0.00    -0.251 OA
ATOM     35  N   UNL     1       6.295  -1.976  24.846  0.00  0.00    -0.312 N 
ATOM     36  H   UNL     1       5.612  -1.304  25.071  0.00  0.00    +0.147 HD
ATOM     37  H   UNL     1       7.250  -1.759  24.946  0.00  0.00    +0.147 HD
BRANCH  32  38
ATOM     38  N   UNL     1       4.047  -4.730  24.109  0.00  0.00    +0.058 NA
ATOM     39  O   UNL     1       3.136  -5.242  23.359  0.00  0.00    -0.078 OA
ENDBRANCH  32  38
ENDBRANCH   7  32
BRANCH   1  43
ATOM     40  C   UNL     1       5.627  -5.812  27.483  0.00  0.00    +0.143 C 
ATOM     41  N   UNL     1       6.127  -4.931  27.864  0.00  0.00    -0.253 NA
ATOM     42  C   UNL     1       5.690  -3.517  27.663  0.00  0.00    +0.149 C 
ATOM     43  C   UNL     1       4.376  -3.745  27.206  0.00  0.00    +0.126 C 
ATOM     44  N   UNL     1       4.221  -4.993  27.003  0.00  0.00    -0.220 NA
BRANCH  40  45
ATOM     45  C   UNL     1       5.063  -7.155  27.038  0.00  0.00    +0.032 C 
ATOM     46  C   UNL     1       4.031  -7.739  27.741  0.00  0.00    -0.000 C 
ATOM     47  C   UNL     1       3.530  -9.061  27.315  0.00  0.00    -0.003 C 
ATOM     48  C   UNL     1       4.145  -9.657  26.236  0.00  0.00    -0.003 C 
ATOM     49  C   UNL     1       5.187  -9.090  25.535  0.00  0.00    -0.000 C 
ATOM     50  C   UNL     1       5.549  -7.882  26.007  0.00  0.00    +0.003 C 
BRANCH  47  51
ATOM     51  C   UNL     1       2.145  -9.228  27.436  0.00  0.00    +0.136 C 
ATOM     52  N   UNL     1       0.823  -9.371  27.556  0.00  0.00    -0.126 NA
ENDBRANCH  47  51
ENDBRANCH  40  45
ENDBRANCH   1  43
BRANCH   8  53
ATOM     53  C   UNL     1       4.289  -1.740  22.189  0.00  0.00    +0.015 C 
ATOM     54  C   UNL     1       3.958  -2.345  21.135  0.00  0.00    +0.078 C 
BRANCH  54  55
ATOM     55  C   UNL     1       2.917  -3.046  20.527  0.00  0.00    +0.101 C 
ATOM     56  N   UNL     1       2.004  -3.681  19.975  0.00  0.00    -0.191 NA
ENDBRANCH  54  55
ENDBRANCH   8  53
BRANCH   9  57
ATOM     57  O   UNL     1       2.411   0.498  22.507  0.00  0.00    -0.505 OA
ATOM     58  H   UNL     1       1.538   0.562  22.171  0.00  0.00    +0.292 HD
ENDBRANCH   9  57
TORSDOF 13
ENDMDL
