MODEL 1
REMARK VINA RESULT:    -8.345      0.000      0.000
REMARK INTER + INTRA:         -13.426
REMARK INTER:                 -11.760
REMARK INTRA:                  -1.666
REMARK UNBOUND:                -1.666
REMARK  Name = =
REMARK  7 active torsions:
REMARK  status: ('A' for Active; 'I' for Inactive)
REMARK    1  A    between atoms: C_2  and  N_14
REMARK    2  A    between atoms: C_2  and  C_26
REMARK    3  A    between atoms: C_3  and  C_7
REMARK    4  A    between atoms: C_4  and  N_31
REMARK    5  A    between atoms: N_17  and  N_20
REMARK    6  A    between atoms: N_31  and  N_34
REMARK    7  A    between atoms: C_35  and  S_36
REMARK                            x       y       z     vdW  Elec       q    Type
REMARK                         _______ _______ _______ _____ _____    ______ ____
ROOT
ATOM      1  O   UNL     1       2.032  -4.201  29.671  0.00  0.00    -0.430 OA
ATOM      2  C   UNL     1       0.958  -4.872  29.034  0.00  0.00    +0.260 C 
ATOM      3  C   UNL     1       1.348  -5.154  27.670  0.00  0.00    +0.116 C 
ATOM      4  C   UNL     1       2.629  -4.208  27.480  0.00  0.00    +0.207 C 
ATOM      5  C   UNL     1       3.136  -4.276  28.799  0.00  0.00    +0.339 C 
ATOM      6  O   UNL     1       4.338  -4.387  29.184  0.00  0.00    -0.248 OA
ENDROOT
BRANCH   3   7
ATOM      7  C   UNL     1       1.748  -6.505  27.281  0.00  0.00    -0.015 C 
ATOM      8  C   UNL     1       1.246  -7.144  26.172  0.00  0.00    -0.003 C 
ATOM      9  C   UNL     1       1.630  -8.450  25.830  0.00  0.00    +0.011 C 
ATOM     10  C   UNL     1       2.524  -9.126  26.603  0.00  0.00    +0.058 C 
ATOM     11  C   UNL     1       3.028  -8.513  27.699  0.00  0.00    +0.011 C 
ATOM     12  C   UNL     1       2.650  -7.232  28.029  0.00  0.00    -0.003 C 
ATOM     13 CL   UNL     1       3.037 -10.777  26.222  0.00  0.00    -0.082 Cl
ENDBRANCH   3   7
BRANCH   2  14
ATOM     14  N   UNL     1       0.436  -5.927  29.877  0.00  0.00    -0.226 N 
ATOM     15  C   UNL     1      -0.788  -6.643  29.705  0.00  0.00    +0.323 C 
ATOM     16  O   UNL     1      -1.409  -6.890  28.667  0.00  0.00    -0.251 OA
ATOM     17  N   UNL     1      -1.219  -7.069  31.028  0.00  0.00    -0.204 N 
ATOM     18  C   UNL     1      -0.003  -7.409  31.712  0.00  0.00    +0.135 C 
ATOM     19  C   UNL     1       0.985  -6.427  31.102  0.00  0.00    +0.122 C 
BRANCH  17  20
ATOM     20  N   UNL     1      -2.513  -7.133  31.540  0.00  0.00    -0.201 NA
ATOM     21  C   UNL     1      -3.119  -5.789  31.431  0.00  0.00    +0.092 C 
ATOM     22  C   UNL     1      -4.374  -5.641  32.204  0.00  0.00    +0.019 C 
ATOM     23  C   UNL     1      -4.205  -5.966  33.680  0.00  0.00    +0.003 C 
ATOM     24  C   UNL     1      -2.811  -6.497  33.918  0.00  0.00    +0.019 C 
ATOM     25  C   UNL     1      -2.521  -7.581  32.909  0.00  0.00    +0.092 C 
ENDBRANCH  17  20
ENDBRANCH   2  14
BRANCH   2  26
ATOM     26  C   UNL     1      -0.176  -3.829  28.941  0.00  0.00    +0.213 A 
ATOM     27  N   UNL     1      -0.408  -2.929  29.896  0.00  0.00    -0.108 NA
ATOM     28  N   UNL     1      -1.424  -2.180  29.492  0.00  0.00    -0.023 NA
ATOM     29  N   UNL     1      -1.788  -2.630  28.312  0.00  0.00    -0.047 NA
ATOM     30  N   UNL     1      -1.031  -3.659  27.938  0.00  0.00    -0.238 N 
ATOM     31  H   UNL     1      -1.092  -4.177  27.103  0.00  0.00    +0.192 HD
ENDBRANCH   2  26
BRANCH   4  32
ATOM     32  N   UNL     1       2.141  -2.874  27.122  0.00  0.00    -0.163 N 
ATOM     33  C   UNL     1       2.436  -1.723  27.901  0.00  0.00    +0.324 C 
ATOM     34  O   UNL     1       1.957  -0.625  27.633  0.00  0.00    -0.263 OA
BRANCH  32  35
ATOM     35  N   UNL     1       1.327  -2.700  26.030  0.00  0.00    -0.164 NA
ATOM     36  C   UNL     1       1.520  -2.197  24.925  0.00  0.00    +0.178 C 
BRANCH  36  37
ATOM     37  S   UNL     1       2.971  -1.482  24.293  0.00  0.00    +0.063 S 
ATOM     38  O   UNL     1       2.967   0.033  24.529  0.00  0.00    -0.254 OA
ATOM     39  H   UNL     1       3.046  -1.728  22.958  0.00  0.00    +0.145 HD
ENDBRANCH  36  37
ENDBRANCH  32  35
ENDBRANCH   4  32
TORSDOF 7
ENDMDL
