MODEL 1
REMARK VINA RESULT:    -9.293      0.000      0.000
REMARK INTER + INTRA:         -13.536
REMARK INTER:                 -12.553
REMARK INTRA:                  -0.984
REMARK UNBOUND:                -0.984
REMARK  Name = =
REMARK  7 active torsions:
REMARK  status: ('A' for Active; 'I' for Inactive)
REMARK    1  A    between atoms: C_1  and  S_38
REMARK    2  A    between atoms: C_4  and  N_20
REMARK    3  A    between atoms: C_6  and  C_7
REMARK    4  A    between atoms: C_24  and  C_26
REMARK    5  A    between atoms: C_37  and  S_38
REMARK    6  A    between atoms: C_37  and  N_39
REMARK    7  A    between atoms: C_37  and  S_40
REMARK                            x       y       z     vdW  Elec       q    Type
REMARK                         _______ _______ _______ _____ _____    ______ ____
ROOT
ATOM      1  C   UNL     1      -1.514  -4.150  29.029  0.00  0.00    +0.012 C 
ATOM      2  C   UNL     1      -0.835  -2.961  28.853  0.00  0.00    +0.006 C 
ATOM      3  C   UNL     1       0.492  -2.977  28.445  0.00  0.00    +0.015 C 
ATOM      4  C   UNL     1       1.115  -4.183  28.218  0.00  0.00    +0.048 C 
ATOM      5  C   UNL     1       0.388  -5.362  28.409  0.00  0.00    +0.011 C 
ATOM      6  C   UNL     1      -0.929  -5.376  28.813  0.00  0.00    -0.008 C 
ENDROOT
BRANCH   6   7
ATOM      7  C   UNL     1      -1.628  -6.646  28.992  0.00  0.00    +0.067 C 
ATOM      8  C   UNL     1      -1.558  -7.075  30.418  0.00  0.00    -0.014 C 
ATOM      9  C   UNL     1      -1.019  -8.337  30.506  0.00  0.00    -0.004 C 
ATOM     10  C   UNL     1      -0.722  -8.755  29.149  0.00  0.00    -0.004 C 
ATOM     11  C   UNL     1      -1.069  -7.774  28.247  0.00  0.00    -0.014 C 
ATOM     12  C   UNL     1      -0.879  -7.940  26.889  0.00  0.00    -0.004 C 
ATOM     13  C   UNL     1      -0.325  -9.125  26.440  0.00  0.00    -0.000 C 
ATOM     14  C   UNL     1       0.036 -10.128  27.315  0.00  0.00    -0.000 C 
ATOM     15  C   UNL     1      -0.171  -9.923  28.658  0.00  0.00    -0.000 C 
ATOM     16  C   UNL     1      -0.890  -8.877  31.766  0.00  0.00    -0.000 C 
ATOM     17  C   UNL     1      -1.263  -8.240  32.931  0.00  0.00    -0.000 C 
ATOM     18  C   UNL     1      -1.798  -6.981  32.822  0.00  0.00    -0.000 C 
ATOM     19  C   UNL     1      -1.945  -6.403  31.584  0.00  0.00    -0.004 C 
ENDBRANCH   6   7
BRANCH   4  20
ATOM     20  N   UNL     1       2.467  -4.201  27.802  0.00  0.00    -0.305 N 
ATOM     21  C   UNL     1       3.574  -4.303  28.736  0.00  0.00    +0.110 C 
ATOM     22  C   UNL     1       4.641  -5.151  28.033  0.00  0.00    +0.110 C 
ATOM     23  N   UNL     1       5.186  -4.460  26.912  0.00  0.00    -0.215 NA
ATOM     24  C   UNL     1       4.201  -3.796  26.084  0.00  0.00    +0.107 C 
ATOM     25  C   UNL     1       2.788  -4.116  26.409  0.00  0.00    +0.109 C 
BRANCH  24  26
ATOM     26  C   UNL     1       4.549  -2.349  26.023  0.00  0.00    +0.160 C 
ATOM     27  C   UNL     1       5.596  -2.122  24.932  0.00  0.00    +0.221 C 
ATOM     28  O   UNL     1       5.537  -0.770  24.551  0.00  0.00    -0.448 OA
ATOM     29  C   UNL     1       4.920  -0.333  23.400  0.00  0.00    +0.317 C 
ATOM     30  O   UNL     1       4.653   0.911  23.282  0.00  0.00    -0.250 OA
ATOM     31  C   UNL     1       4.535  -1.200  22.268  0.00  0.00    +0.113 C 
ATOM     32  C   UNL     1       3.080  -1.522  22.216  0.00  0.00    +0.059 C 
ATOM     33  C   UNL     1       2.459  -1.785  23.572  0.00  0.00    +0.209 C 
ATOM     34  O   UNL     1       3.010  -1.023  24.597  0.00  0.00    -0.448 OA
ATOM     35  C   UNL     1       3.400  -1.432  25.853  0.00  0.00    +0.322 C 
ATOM     36  O   UNL     1       2.819  -1.063  26.934  0.00  0.00    -0.250 OA
ENDBRANCH  24  26
ENDBRANCH   4  20
BRANCH   1  37
ATOM     37  S   UNL     1      -3.220  -4.109  29.552  0.00  0.00    -0.159 S 
ATOM     38  H   UNL     1      -3.487  -5.337  30.073  0.00  0.00    +0.099 HD
BRANCH  37  39
ATOM     39  C   UNL     1      -3.771  -3.024  30.641  0.00  0.00    +0.137 C 
BRANCH  39  40
ATOM     40  N   UNL     1      -3.747  -1.644  30.303  0.00  0.00    -0.306 NA
ATOM     41  H   UNL     1      -3.857  -1.539  29.295  0.00  0.00    +0.120 HD
ATOM     42  H   UNL     1      -2.857  -1.239  30.593  0.00  0.00    +0.120 HD
ENDBRANCH  39  40
BRANCH  39  43
ATOM     43  S   UNL     1      -4.380  -3.586  32.205  0.00  0.00    -0.143 S 
ATOM     44  H   UNL     1      -4.408  -4.945  32.218  0.00  0.00    +0.104 HD
ENDBRANCH  39  43
ENDBRANCH  37  39
ENDBRANCH   1  37
TORSDOF 7
ENDMDL
