MODEL 1
REMARK VINA RESULT:    -8.892      0.000      0.000
REMARK INTER + INTRA:         -10.770
REMARK INTER:                 -10.711
REMARK INTRA:                  -0.060
REMARK UNBOUND:                -0.060
REMARK  Name = =
REMARK  4 active torsions:
REMARK  status: ('A' for Active; 'I' for Inactive)
REMARK    1  A    between atoms: C_1  and  N_21
REMARK    2  A    between atoms: C_2  and  C_7
REMARK    3  A    between atoms: N_21  and  C_22
REMARK    4  A    between atoms: C_23  and  N_29
REMARK                            x       y       z     vdW  Elec       q    Type
REMARK                         _______ _______ _______ _____ _____    ______ ____
ROOT
ATOM      1  C   UNL     1      49.525 162.503  41.563  0.00  0.00    +0.048 C 
ATOM      2  C   UNL     1      50.005 163.768  41.255  0.00  0.00    +0.013 C 
ATOM      3  C   UNL     1      49.209 164.663  40.549  0.00  0.00    +0.001 C 
ATOM      4  C   UNL     1      47.944 164.330  40.142  0.00  0.00    +0.000 C 
ATOM      5  C   UNL     1      47.464 163.081  40.444  0.00  0.00    +0.001 C 
ATOM      6  C   UNL     1      48.257 162.166  41.156  0.00  0.00    +0.015 C 
ENDROOT
BRANCH   2   7
ATOM      7  C   UNL     1      51.358 164.129  41.660  0.00  0.00    +0.002 C 
ATOM      8  C   UNL     1      52.486 163.416  41.341  0.00  0.00    +0.015 C 
ATOM      9  C   UNL     1      53.774 163.792  41.748  0.00  0.00    +0.054 C 
ATOM     10  C   UNL     1      53.885 164.936  42.506  0.00  0.00    +0.043 C 
ATOM     11  C   UNL     1      52.792 165.665  42.840  0.00  0.00    +0.008 C 
ATOM     12  C   UNL     1      51.549 165.277  42.430  0.00  0.00    +0.001 C 
ATOM     13  S   UNL     1      55.525 165.429  43.033  0.00  0.00    -0.084 S 
ATOM     14  C   UNL     1      56.663 164.225  42.396  0.00  0.00    +0.043 C 
ATOM     15  C   UNL     1      56.206 163.175  41.656  0.00  0.00    +0.054 C 
ATOM     16  C   UNL     1      57.131 162.235  41.164  0.00  0.00    +0.015 C 
ATOM     17  C   UNL     1      58.477 162.343  41.405  0.00  0.00    +0.001 C 
ATOM     18  C   UNL     1      58.908 163.421  42.160  0.00  0.00    +0.001 C 
ATOM     19  C   UNL     1      58.005 164.348  42.647  0.00  0.00    +0.008 C 
ATOM     20  N   UNL     1      54.843 162.979  41.355  0.00  0.00    -0.312 N 
ATOM     21  H   UNL     1      54.620 162.188  40.813  0.00  0.00    +0.152 HD
ENDBRANCH   2   7
BRANCH   1  22
ATOM     22  N   UNL     1      50.338 161.670  42.354  0.00  0.00    -0.309 N 
ATOM     23  H   UNL     1      50.871 162.111  43.056  0.00  0.00    +0.152 HD
BRANCH  22  24
ATOM     24  C   UNL     1      50.470 160.283  42.248  0.00  0.00    +0.099 C 
ATOM     25  C   UNL     1      51.699 159.672  42.538  0.00  0.00    +0.143 C 
ATOM     26  N   UNL     1      51.886 158.359  42.388  0.00  0.00    -0.198 NA
ATOM     27  C   UNL     1      50.907 157.559  41.954  0.00  0.00    +0.215 C 
ATOM     28  N   UNL     1      49.735 158.126  41.674  0.00  0.00    -0.211 NA
ATOM     29  C   UNL     1      49.491 159.450  41.807  0.00  0.00    +0.119 C 
ATOM     30  N   UNL     1      51.092 156.155  41.791  0.00  0.00    -0.327 N 
ATOM     31  H   UNL     1      51.963 155.746  42.001  0.00  0.00    +0.145 HD
ATOM     32  H   UNL     1      50.350 155.595  41.469  0.00  0.00    +0.145 HD
BRANCH  25  33
ATOM     33  N   UNL     1      52.754 160.496  43.001  0.00  0.00    -0.342 N 
ATOM     34  H   UNL     1      53.690 160.236  42.840  0.00  0.00    +0.144 HD
ATOM     35  H   UNL     1      52.551 161.329  43.485  0.00  0.00    +0.144 HD
ENDBRANCH  25  33
ENDBRANCH  22  24
ENDBRANCH   1  22
TORSDOF 4
ENDMDL
