REMARK  Name = =
REMARK  1 active torsions:
REMARK  status: ('A' for Active; 'I' for Inactive)
REMARK    1  A    between atoms: C_1  and  C_8
REMARK                            x       y       z     vdW  Elec       q    Type
REMARK                         _______ _______ _______ _____ _____    ______ ____
ROOT
ATOM      1  C   UNL     1      51.877 156.323  28.403  0.00  0.00    +0.152 C 
ATOM      2  N   UNL     1      53.233 156.436  28.886  0.00  0.00    -0.264 N 
ATOM      3  C   UNL     1      53.443 157.835  29.111  0.00  0.00    +0.402 C 
ATOM      4  O   UNL     1      54.550 158.453  29.192  0.00  0.00    -0.226 OA
ATOM      5  O   UNL     1      52.187 158.415  29.228  0.00  0.00    -0.432 OA
ATOM      6  C   UNL     1      51.192 157.392  29.225  0.00  0.00    +0.235 C 
ATOM      7  H   UNL     1      53.877 155.706  29.030  0.00  0.00    +0.153 HD
ENDROOT
BRANCH   1   9
ATOM      8 CL   UNL     1      49.651 154.945  29.236  0.00  0.00    -0.085 Cl
ATOM      9  C   UNL     1      51.266 155.000  28.545  0.00  0.00    +0.057 C 
ATOM     10  C   UNL     1      51.835 153.876  28.199  0.00  0.00    +0.009 C 
ENDBRANCH   1   9
TORSDOF 1
