REMARK  Name = =
REMARK  5 active torsions:
REMARK  status: ('A' for Active; 'I' for Inactive)
REMARK    1  A    between atoms: C_1  and  C_18
REMARK    2  A    between atoms: N_2  and  C_7
REMARK    3  A    between atoms: C_9  and  C_13
REMARK    4  A    between atoms: C_10  and  O_16
REMARK    5  A    between atoms: O_21  and  O_23
REMARK                            x       y       z     vdW  Elec       q    Type
REMARK                         _______ _______ _______ _____ _____    ______ ____
ROOT
ATOM      1  C   UNL     1      49.619 158.738  30.191  0.00  0.00    +0.058 C 
ATOM      2  C   UNL     1      50.926 158.479  29.838  0.00  0.00    +0.023 C 
ATOM      3  C   UNL     1      51.333 157.221  29.391  0.00  0.00    +0.088 C 
ATOM      4  C   UNL     1      50.423 156.188  29.289  0.00  0.00    +0.138 C 
ATOM      5  C   UNL     1      49.111 156.416  29.634  0.00  0.00    +0.038 C 
ATOM      6  C   UNL     1      48.745 157.659  30.068  0.00  0.00    +0.018 C 
ENDROOT
BRANCH   1   8
ATOM      7  C   UNL     1      49.103 160.621  31.935  0.00  0.00    +0.159 C 
ATOM      8  N   UNL     1      49.188 160.004  30.636  0.00  0.00    -0.218 N 
ATOM      9  C   UNL     1      48.660 161.027  29.758  0.00  0.00    +0.409 C 
ATOM     10  O   UNL     1      48.893 161.077  28.518  0.00  0.00    -0.226 OA
ATOM     11  O   UNL     1      47.887 161.900  30.514  0.00  0.00    -0.432 OA
ATOM     12  C   UNL     1      47.712 161.283  31.775  0.00  0.00    +0.236 C 
BRANCH   7  14
ATOM     13 CL   UNL     1      49.419 157.934  32.792  0.00  0.00    -0.085 Cl
ATOM     14  C   UNL     1      49.059 159.631  33.048  0.00  0.00    +0.058 C 
ATOM     15  C   UNL     1      48.747 160.046  34.244  0.00  0.00    +0.009 C 
ENDBRANCH   7  14
ENDBRANCH   1   8
BRANCH   3  16
ATOM     16  C   UNL     1      52.734 157.002  29.023  0.00  0.00    +0.246 C 
ATOM     17  O   UNL     1      53.481 157.993  28.804  0.00  0.00    -0.270 OA
ATOM     18  N   UNL     1      53.242 155.684  28.916  0.00  0.00    -0.325 N 
ATOM     19  H   UNL     1      52.653 154.914  29.088  0.00  0.00    +0.145 HD
ATOM     20  H   UNL     1      54.184 155.538  28.669  0.00  0.00    +0.145 HD
ENDBRANCH   3  16
BRANCH   4  21
ATOM     21  O   UNL     1      50.802 154.921  28.844  0.00  0.00    -0.505 OA
ATOM     22  H   UNL     1      51.693 154.755  28.606  0.00  0.00    +0.292 HD
ENDBRANCH   4  21
TORSDOF 4
REMARK  Name = =
REMARK  5 active torsions:
REMARK  status: ('A' for Active; 'I' for Inactive)
REMARK    1  A    between atoms: C_1  and  C_18
REMARK    2  A    between atoms: N_2  and  C_7
REMARK    3  A    between atoms: C_9  and  C_13
REMARK    4  A    between atoms: C_10  and  O_16
REMARK    5  A    between atoms: O_21  and  O_23
REMARK                            x       y       z     vdW  Elec       q    Type
REMARK                         _______ _______ _______ _____ _____    ______ ____
ROOT
ATOM      1  P   UNL     1      50.294 161.933  32.169  0.00  0.00    +0.000 P 
ENDROOT
TORSDOF 0
REMARK  Name = =
REMARK  5 active torsions:
REMARK  status: ('A' for Active; 'I' for Inactive)
REMARK    1  A    between atoms: C_1  and  C_18
REMARK    2  A    between atoms: N_2  and  C_7
REMARK    3  A    between atoms: C_9  and  C_13
REMARK    4  A    between atoms: C_10  and  O_16
REMARK    5  A    between atoms: O_21  and  O_23
REMARK                            x       y       z     vdW  Elec       q    Type
REMARK                         _______ _______ _______ _____ _____    ______ ____
ROOT
ATOM      1  O   UNL     1      49.531 162.316  33.421  0.00  0.00    -0.253 OA
ATOM      2  H   UNL     1      49.148 161.518  33.024  0.00  0.00    +0.253 HD
ENDROOT
BRANCH   1   3
ATOM      3  O   UNL     1      50.957 162.092  33.691  0.00  0.00    -0.253 OA
ATOM      4  H   UNL     1      51.340 162.890  34.088  0.00  0.00    +0.253 HD
ENDBRANCH   1   3
TORSDOF 1
REMARK  Name = =
REMARK  5 active torsions:
REMARK  status: ('A' for Active; 'I' for Inactive)
REMARK    1  A    between atoms: C_1  and  C_18
REMARK    2  A    between atoms: N_2  and  C_7
REMARK    3  A    between atoms: C_9  and  C_13
REMARK    4  A    between atoms: C_10  and  O_16
REMARK    5  A    between atoms: O_21  and  O_23
REMARK                            x       y       z     vdW  Elec       q    Type
REMARK                         _______ _______ _______ _____ _____    ______ ____
ROOT
ATOM      1  O   HOH     1      49.670 163.250  31.296  0.00  0.00    -0.253 OA
ATOM      2  H   HOH     0      50.640 163.250  31.296  0.00  0.00    +0.253 HD
ENDROOT
TORSDOF 0
REMARK  Name = =
REMARK  5 active torsions:
REMARK  status: ('A' for Active; 'I' for Inactive)
REMARK    1  A    between atoms: C_1  and  C_18
REMARK    2  A    between atoms: N_2  and  C_7
REMARK    3  A    between atoms: C_9  and  C_13
REMARK    4  A    between atoms: C_10  and  O_16
REMARK    5  A    between atoms: O_21  and  O_23
REMARK                            x       y       z     vdW  Elec       q    Type
REMARK                         _______ _______ _______ _____ _____    ______ ____
ROOT
ATOM      1  O   HOH     1      51.666 161.512  31.274  0.00  0.00    -0.253 OA
ATOM      2  H   HOH     0      52.636 161.512  31.274  0.00  0.00    +0.253 HD
ENDROOT
TORSDOF 0
