REMARK  Name = =
REMARK  2 active torsions:
REMARK  status: ('A' for Active; 'I' for Inactive)
REMARK    1  A    between atoms: S_1  and  C_4
REMARK    2  A    between atoms: S_1  and  N_10
REMARK                            x       y       z     vdW  Elec       q    Type
REMARK                         _______ _______ _______ _____ _____    ______ ____
ROOT
ATOM      1  S   UNL     1      -3.954  -3.896  32.651  0.00  0.00    +0.063 S 
ATOM      2  O   UNL     1      -3.479  -3.628  34.068  0.00  0.00    -0.153 OA
ATOM      3  O   UNL     1      -3.045  -3.099  31.749  0.00  0.00    -0.153 OA
ENDROOT
BRANCH   1   4
ATOM      4  C   UNL     1      -3.794  -5.594  32.346  0.00  0.00    +0.122 C 
ATOM      5  C   UNL     1      -4.226  -6.505  33.289  0.00  0.00    +0.020 C 
ATOM      6  C   UNL     1      -4.115  -7.869  33.079  0.00  0.00    +0.001 C 
ATOM      7  C   UNL     1      -3.565  -8.365  31.916  0.00  0.00    +0.000 C 
ATOM      8  C   UNL     1      -3.128  -7.467  30.963  0.00  0.00    +0.001 C 
ATOM      9  C   UNL     1      -3.248  -6.111  31.191  0.00  0.00    +0.020 C 
ENDBRANCH   1   4
BRANCH   1  10
ATOM     10  N   UNL     1      -5.554  -3.323  32.415  0.00  0.00    -0.156 NA
ATOM     11  C   UNL     1      -6.193  -2.869  33.604  0.00  0.00    +0.096 C 
ATOM     12  C   UNL     1      -7.062  -1.725  33.175  0.00  0.00    +0.021 C 
ATOM     13  C   UNL     1      -6.285  -1.104  32.030  0.00  0.00    +0.021 C 
ATOM     14  C   UNL     1      -5.651  -2.325  31.401  0.00  0.00    +0.096 C 
ENDBRANCH   1  10
TORSDOF 2
