REMARK  Name = =
REMARK  10 active torsions:
REMARK  status: ('A' for Active; 'I' for Inactive)
REMARK    1  A    between atoms: C_1  and  C_16
REMARK    2  A    between atoms: C_3  and  O_35
REMARK    3  A    between atoms: C_4  and  O_34
REMARK    4  A    between atoms: C_5  and  O_33
REMARK    5  A    between atoms: C_6  and  N_7
REMARK    6  A    between atoms: C_8  and  C_10
REMARK    7  A    between atoms: C_16  and  O_18
REMARK    8  A    between atoms: O_18  and  C_20
REMARK    9  A    between atoms: N_19  and  S_24
REMARK   10  A    between atoms: S_24  and  C_27
REMARK                            x       y       z     vdW  Elec       q    Type
REMARK                         _______ _______ _______ _____ _____    ______ ____
ROOT
ATOM      1  C   UNL     1     -13.295   0.085  23.426  0.00  0.00    +0.095 C 
ATOM      2  C   UNL     1     -12.502  -0.562  22.495  0.00  0.00    +0.048 C 
ATOM      3  C   UNL     1     -12.081   0.078  21.352  0.00  0.00    +0.171 C 
ATOM      4  C   UNL     1     -12.479   1.400  21.156  0.00  0.00    +0.203 C 
ATOM      5  C   UNL     1     -13.267   2.070  22.061  0.00  0.00    +0.185 C 
ATOM      6  C   UNL     1     -13.666   1.393  23.195  0.00  0.00    +0.094 C 
ENDROOT
BRANCH   6   7
ATOM      7  N   UNL     1     -14.491   2.014  24.200  0.00  0.00    -0.278 N 
ATOM      8  C   UNL     1     -13.971   3.001  25.075  0.00  0.00    +0.251 C 
ATOM      9  O   UNL     1     -12.733   3.276  24.887  0.00  0.00    -0.270 OA
ATOM     10  H   UNL     1     -15.435   1.747  24.281  0.00  0.00    +0.155 HD
BRANCH   8  11
ATOM     11  C   UNL     1     -14.739   3.668  26.107  0.00  0.00    +0.073 C 
ATOM     12  C   UNL     1     -14.430   4.927  26.575  0.00  0.00    +0.103 C 
ATOM     13  N   UNL     1     -15.154   5.526  27.527  0.00  0.00    -0.242 NA
ATOM     14  C   UNL     1     -16.219   4.903  28.059  0.00  0.00    +0.099 C 
ATOM     15  C   UNL     1     -16.579   3.661  27.643  0.00  0.00    +0.021 C 
ATOM     16  C   UNL     1     -15.828   3.028  26.648  0.00  0.00    +0.008 C 
ENDBRANCH   8  11
ENDBRANCH   6   7
BRANCH   1  17
ATOM     17  C   UNL     1     -13.724  -0.622  24.628  0.00  0.00    +0.344 C 
ATOM     18  O   UNL     1     -14.906  -0.681  25.006  0.00  0.00    -0.245 OA
BRANCH  17  19
ATOM     19  O   UNL     1     -12.772  -1.272  25.406  0.00  0.00    -0.431 OA
BRANCH  19  21
ATOM     20  N   UNL     1     -12.092  -2.002  27.481  0.00  0.00    -0.119 NA
ATOM     21  C   UNL     1     -13.154  -2.066  26.519  0.00  0.00    +0.250 C 
ATOM     22  C   UNL     1     -13.201  -3.532  26.152  0.00  0.00    +0.065 C 
ATOM     23  C   UNL     1     -11.719  -3.863  26.079  0.00  0.00    +0.025 C 
ATOM     24  C   UNL     1     -11.264  -3.154  27.366  0.00  0.00    +0.100 C 
BRANCH  20  25
ATOM     25  S   UNL     1     -12.582  -1.597  29.057  0.00  0.00    +0.066 S 
ATOM     26  O   UNL     1     -11.614  -1.995  30.106  0.00  0.00    -0.153 OA
ATOM     27  O   UNL     1     -13.909  -2.291  29.333  0.00  0.00    -0.153 OA
BRANCH  25  28
ATOM     28  C   UNL     1     -12.884   0.122  29.203  0.00  0.00    +0.122 C 
ATOM     29  C   UNL     1     -12.085   1.052  28.561  0.00  0.00    +0.020 C 
ATOM     30  C   UNL     1     -12.301   2.414  28.661  0.00  0.00    +0.001 C 
ATOM     31  C   UNL     1     -13.345   2.883  29.421  0.00  0.00    +0.000 C 
ATOM     32  C   UNL     1     -14.146   1.978  30.064  0.00  0.00    +0.001 C 
ATOM     33  C   UNL     1     -13.928   0.598  29.964  0.00  0.00    +0.020 C 
ENDBRANCH  25  28
ENDBRANCH  20  25
ENDBRANCH  19  21
ENDBRANCH  17  19
ENDBRANCH   1  17
BRANCH   5  34
ATOM     34  O   UNL     1     -13.680   3.372  21.906  0.00  0.00    -0.502 OA
ATOM     35  H   UNL     1     -13.425   3.857  21.146  0.00  0.00    +0.292 HD
ENDBRANCH   5  34
BRANCH   4  36
ATOM     36  O   UNL     1     -12.041   2.002  20.007  0.00  0.00    -0.501 OA
ATOM     37  H   UNL     1     -11.505   1.526  19.404  0.00  0.00    +0.292 HD
ENDBRANCH   4  36
BRANCH   3  38
ATOM     38  O   UNL     1     -11.289  -0.559  20.417  0.00  0.00    -0.503 OA
ATOM     39  H   UNL     1     -11.025  -1.447  20.554  0.00  0.00    +0.292 HD
ENDBRANCH   3  38
TORSDOF 10
