REMARK  Name = =
REMARK  8 active torsions:
REMARK  status: ('A' for Active; 'I' for Inactive)
REMARK    1  A    between atoms: N_1  and  C_5
REMARK    2  A    between atoms: N_1  and  N_19
REMARK    3  A    between atoms: C_2  and  C_16
REMARK    4  A    between atoms: C_12  and  C_13
REMARK    5  A    between atoms: C_13  and  O_15
REMARK    6  A    between atoms: N_19  and  O_29
REMARK    7  A    between atoms: C_20  and  C_26
REMARK    8  A    between atoms: N_21  and  N_22
REMARK                            x       y       z     vdW  Elec       q    Type
REMARK                         _______ _______ _______ _____ _____    ______ ____
ROOT
ATOM      1  N   UNL     1     -12.239 -42.994  30.325  0.00  0.00    -0.144 N 
ATOM      2  C   UNL     1     -13.288 -43.767  30.863  0.00  0.00    +0.323 C 
ATOM      3  O   UNL     1     -14.052 -44.422  30.079  0.00  0.00    -0.263 OA
ENDROOT
BRANCH   1   5
ATOM      4  N   UNL     1     -11.113 -43.723  28.190  0.00  0.00    -0.230 N 
ATOM      5  C   UNL     1     -12.064 -42.958  28.875  0.00  0.00    +0.197 C 
ATOM      6  C   UNL     1     -11.425 -41.646  28.441  0.00  0.00    +0.136 C 
ATOM      7  C   UNL     1     -10.286 -42.575  28.109  0.00  0.00    +0.236 C 
ATOM      8  O   UNL     1      -9.083 -42.330  27.865  0.00  0.00    -0.274 OA
ATOM      9  S   UNL     1     -13.643 -43.129  27.977  0.00  0.00    -0.097 S 
ATOM     10  C   UNL     1     -13.527 -44.585  26.923  0.00  0.00    +0.088 C 
ATOM     11  C   UNL     1     -12.406 -45.480  27.229  0.00  0.00    +0.007 C 
ATOM     12  C   UNL     1     -11.266 -45.082  27.825  0.00  0.00    +0.128 C 
BRANCH  12  13
ATOM     13  C   UNL     1     -10.214 -46.046  28.065  0.00  0.00    +0.352 C 
ATOM     14  O   UNL     1     -10.165 -47.119  27.372  0.00  0.00    -0.244 OA
BRANCH  13  15
ATOM     15  O   UNL     1      -9.234 -45.872  29.024  0.00  0.00    -0.476 OA
ATOM     16  H   UNL     1      -9.230 -45.100  29.556  0.00  0.00    +0.295 HD
ENDBRANCH  13  15
ENDBRANCH  12  13
ENDBRANCH   1   5
BRANCH   2  17
ATOM     17  C   UNL     1     -13.610 -43.914  32.262  0.00  0.00    +0.298 C 
ATOM     18  O   UNL     1     -13.256 -43.094  33.160  0.00  0.00    -0.265 OA
ATOM     19  N   UNL     1     -14.372 -45.037  32.732  0.00  0.00    -0.322 N 
ATOM     20  H   UNL     1     -14.685 -45.720  32.096  0.00  0.00    +0.145 HD
ATOM     21  H   UNL     1     -14.581 -45.124  33.690  0.00  0.00    +0.145 HD
ENDBRANCH   2  17
BRANCH   1  22
ATOM     22  N   UNL     1     -11.392 -42.185  31.033  0.00  0.00    -0.136 N 
ATOM     23  C   UNL     1     -10.323 -42.647  31.741  0.00  0.00    +0.253 C 
ATOM     24  N   UNL     1      -9.891 -42.214  32.875  0.00  0.00    -0.152 NA
BRANCH  24  25
ATOM     25  N   UNL     1     -10.464 -41.181  33.571  0.00  0.00    -0.189 N 
ATOM     26  C   UNL     1     -10.357 -41.257  35.027  0.00  0.00    +0.317 C 
ATOM     27  O   UNL     1      -9.770 -42.217  35.568  0.00  0.00    -0.251 OA
ATOM     28  N   UNL     1     -10.921 -40.238  35.823  0.00  0.00    -0.312 N 
ATOM     29  H   UNL     1     -10.919 -40.435  33.118  0.00  0.00    +0.179 HD
ATOM     30  H   UNL     1     -11.384 -39.481  35.398  0.00  0.00    +0.147 HD
ATOM     31  H   UNL     1     -10.851 -40.284  36.804  0.00  0.00    +0.147 HD
ENDBRANCH  24  25
BRANCH  23  32
ATOM     32  C   UNL     1      -9.538 -43.779  31.209  0.00  0.00    +0.282 C 
ATOM     33  O   UNL     1     -10.047 -44.884  31.080  0.00  0.00    -0.267 OA
ATOM     34  N   UNL     1      -8.184 -43.528  30.859  0.00  0.00    -0.323 N 
ATOM     35  H   UNL     1      -7.804 -42.627  30.975  0.00  0.00    +0.145 HD
ATOM     36  H   UNL     1      -7.625 -44.255  30.500  0.00  0.00    +0.145 HD
ENDBRANCH  23  32
BRANCH  22  37
ATOM     37  O   UNL     1     -11.785 -40.931  31.177  0.00  0.00    -0.267 OA
ATOM     38  H   UNL     1     -12.552 -40.765  30.607  0.00  0.00    +0.246 HD
ENDBRANCH  22  37
ENDBRANCH   1  22
TORSDOF 8
