REMARK  Name = =
REMARK  0 active torsions:
REMARK  status: ('A' for Active; 'I' for Inactive)
REMARK                            x       y       z     vdW  Elec       q    Type
REMARK                         _______ _______ _______ _____ _____    ______ ____
ROOT
ATOM      1  C   UNL     1     -12.904 -42.994  27.483  0.00  0.00    +0.065 C 
ATOM      2  C   UNL     1     -13.587 -44.306  27.634  0.00  0.00    +0.008 C 
ATOM      3  C   UNL     1     -12.632 -45.467  27.784  0.00  0.00    +0.001 C 
ATOM      4  C   UNL     1     -11.734 -45.151  28.965  0.00  0.00    +0.008 C 
ATOM      5  C   UNL     1     -10.807 -44.046  28.452  0.00  0.00    +0.065 C 
ATOM      6  C   UNL     1     -11.706 -42.835  28.349  0.00  0.00    +0.151 C 
ATOM      7  O   UNL     1     -11.426 -41.826  28.950  0.00  0.00    -0.296 OA
ENDROOT
TORSDOF 0
