MODEL 1
REMARK VINA RESULT:    -8.097      0.000      0.000
REMARK INTER + INTRA:         -11.107
REMARK INTER:                 -11.647
REMARK INTRA:                   0.539
REMARK UNBOUND:                 0.539
REMARK  Name = =
REMARK  8 active torsions:
REMARK  status: ('A' for Active; 'I' for Inactive)
REMARK    1  A    between atoms: C_1  and  C_17
REMARK    2  A    between atoms: C_13  and  N_34
REMARK    3  A    between atoms: C_15  and  O_27
REMARK    4  A    between atoms: C_18  and  N_21
REMARK    5  A    between atoms: O_27  and  C_28
REMARK    6  A    between atoms: C_28  and  C_29
REMARK    7  A    between atoms: N_34  and  O_37
REMARK    8  A    between atoms: C_35  and  C_38
REMARK                            x       y       z     vdW  Elec       q    Type
REMARK                         _______ _______ _______ _____ _____    ______ ____
ROOT
ATOM      1  C   UNL     1      53.632 162.990  41.645  0.00  0.00    +0.022 C 
ATOM      2  C   UNL     1      54.188 161.734  41.746  0.00  0.00    +0.017 C 
ATOM      3  C   UNL     1      55.581 161.557  41.616  0.00  0.00    +0.054 C 
ATOM      4  C   UNL     1      56.379 162.639  41.389  0.00  0.00    +0.043 C 
ATOM      5  C   UNL     1      55.817 163.865  41.292  0.00  0.00    +0.008 C 
ATOM      6  C   UNL     1      54.441 164.078  41.415  0.00  0.00    +0.002 C 
ATOM      7  S   UNL     1      58.126 162.461  41.221  0.00  0.00    -0.083 S 
ATOM      8  C   UNL     1      58.481 160.706  41.391  0.00  0.00    +0.059 C 
ATOM      9  C   UNL     1      57.417 159.862  41.617  0.00  0.00    +0.056 C 
ATOM     10  C   UNL     1      57.736 158.502  41.743  0.00  0.00    +0.015 C 
ATOM     11  C   UNL     1      59.030 158.038  41.647  0.00  0.00    +0.003 C 
ATOM     12  C   UNL     1      60.061 158.937  41.418  0.00  0.00    +0.018 C 
ATOM     13  C   UNL     1      59.763 160.273  41.293  0.00  0.00    +0.088 C 
ATOM     14  N   UNL     1      56.080 160.245  41.722  0.00  0.00    -0.312 N 
ATOM     15  H   UNL     1      55.423 159.530  41.885  0.00  0.00    +0.152 HD
ENDROOT
BRANCH   1  18
ATOM     16  C   UNL     1      50.106 162.152  42.042  0.00  0.00    +0.245 C 
ATOM     17  N   UNL     1      51.439 162.025  41.938  0.00  0.00    -0.207 NA
ATOM     18  C   UNL     1      52.191 163.158  41.786  0.00  0.00    +0.116 C 
ATOM     19  C   UNL     1      51.613 164.400  41.743  0.00  0.00    +0.150 C 
ATOM     20  N   UNL     1      50.247 164.473  41.853  0.00  0.00    -0.223 NA
ATOM     21  C   UNL     1      49.480 163.382  42.001  0.00  0.00    +0.158 C 
BRANCH  19  22
ATOM     22  N   UNL     1      52.407 165.542  41.622  0.00  0.00    -0.292 N 
ATOM     23  C   UNL     1      52.522 166.371  42.766  0.00  0.00    +0.092 C 
ATOM     24  C   UNL     1      52.200 167.824  42.512  0.00  0.00    +0.022 C 
ATOM     25  C   UNL     1      51.013 167.947  41.624  0.00  0.00    +0.004 C 
ATOM     26  C   UNL     1      51.171 167.213  40.314  0.00  0.00    +0.022 C 
ATOM     27  C   UNL     1      52.297 166.210  40.356  0.00  0.00    +0.092 C 
ENDBRANCH  19  22
BRANCH  16  28
ATOM     28  O   UNL     1      49.336 161.010  42.197  0.00  0.00    -0.454 OA
BRANCH  28  29
ATOM     29  C   UNL     1      49.426 159.908  41.339  0.00  0.00    +0.237 C 
BRANCH  29  30
ATOM     30  C   UNL     1      50.196 158.785  41.962  0.00  0.00    +0.062 C 
ATOM     31  C   UNL     1      49.696 157.604  42.243  0.00  0.00    +0.043 C 
ATOM     32  C   UNL     1      50.765 156.782  42.843  0.00  0.00    +0.180 C 
ATOM     33  O   UNL     1      51.921 157.519  42.786  0.00  0.00    -0.448 OA
ATOM     34  C   UNL     1      51.620 158.791  42.382  0.00  0.00    +0.179 C 
ENDBRANCH  29  30
ENDBRANCH  28  29
ENDBRANCH  16  28
ENDBRANCH   1  18
BRANCH  13  35
ATOM     35  N   UNL     1      60.832 161.175  41.069  0.00  0.00    -0.145 N 
ATOM     36  C   UNL     1      61.327 161.497  39.793  0.00  0.00    +0.275 C 
ATOM     37  O   UNL     1      60.784 160.974  38.785  0.00  0.00    -0.267 OA
BRANCH  35  38
ATOM     38  O   UNL     1      61.396 161.748  42.158  0.00  0.00    -0.287 OA
ATOM     39  H   UNL     1      61.107 162.672  42.223  0.00  0.00    +0.242 HD
ENDBRANCH  35  38
BRANCH  36  40
ATOM     40  C   UNL     1      62.434 162.406  39.625  0.00  0.00    +0.060 C 
ATOM     41  C   UNL     1      63.285 162.307  38.626  0.00  0.00    +0.005 C 
ENDBRANCH  36  40
ENDBRANCH  13  35
TORSDOF 8
ENDMDL
