REMARK  Name = =
REMARK  8 active torsions:
REMARK  status: ('A' for Active; 'I' for Inactive)
REMARK    1  A    between atoms: C_1  and  C_17
REMARK    2  A    between atoms: C_13  and  N_34
REMARK    3  A    between atoms: C_15  and  O_27
REMARK    4  A    between atoms: C_18  and  N_21
REMARK    5  A    between atoms: O_27  and  C_28
REMARK    6  A    between atoms: C_28  and  C_29
REMARK    7  A    between atoms: N_34  and  O_37
REMARK    8  A    between atoms: C_35  and  C_38
REMARK                            x       y       z     vdW  Elec       q    Type
REMARK                         _______ _______ _______ _____ _____    ______ ____
ROOT
ATOM      1  C   UNL     1      51.623 158.106  29.660  0.00  0.00    +0.022 C 
ATOM      2  C   UNL     1      52.388 157.986  28.521  0.00  0.00    +0.017 C 
ATOM      3  C   UNL     1      52.521 156.739  27.877  0.00  0.00    +0.054 C 
ATOM      4  C   UNL     1      51.886 155.646  28.389  0.00  0.00    +0.043 C 
ATOM      5  C   UNL     1      51.139 155.781  29.508  0.00  0.00    +0.008 C 
ATOM      6  C   UNL     1      50.985 157.001  30.173  0.00  0.00    +0.002 C 
ATOM      7  S   UNL     1      52.026 154.067  27.615  0.00  0.00    -0.083 S 
ATOM      8  C   UNL     1      53.100 154.289  26.189  0.00  0.00    +0.059 C 
ATOM      9  C   UNL     1      53.586 155.555  25.951  0.00  0.00    +0.056 C 
ATOM     10  C   UNL     1      54.420 155.686  24.831  0.00  0.00    +0.015 C 
ATOM     11  C   UNL     1      54.733 154.618  24.019  0.00  0.00    +0.003 C 
ATOM     12  C   UNL     1      54.212 153.365  24.309  0.00  0.00    +0.018 C 
ATOM     13  C   UNL     1      53.394 153.223  25.404  0.00  0.00    +0.088 C 
ATOM     14  N   UNL     1      53.325 156.688  26.723  0.00  0.00    -0.312 N 
ATOM     15  H   UNL     1      53.743 157.531  26.433  0.00  0.00    +0.152 HD
ENDROOT
BRANCH   1  18
ATOM     16  C   UNL     1      52.521 161.376  31.001  0.00  0.00    +0.245 C 
ATOM     17  N   UNL     1      52.610 160.187  30.381  0.00  0.00    -0.207 NA
ATOM     18  C   UNL     1      51.491 159.403  30.311  0.00  0.00    +0.116 C 
ATOM     19  C   UNL     1      50.299 159.808  30.854  0.00  0.00    +0.150 C 
ATOM     20  N   UNL     1      50.263 161.030  31.476  0.00  0.00    -0.223 NA
ATOM     21  C   UNL     1      51.342 161.823  31.564  0.00  0.00    +0.158 C 
BRANCH  19  22
ATOM     22  N   UNL     1      49.164 159.003  30.738  0.00  0.00    -0.292 N 
ATOM     23  C   UNL     1      48.311 159.247  29.632  0.00  0.00    +0.092 C 
ATOM     24  C   UNL     1      46.862 159.455  30.003  0.00  0.00    +0.022 C 
ATOM     25  C   UNL     1      46.753 160.298  31.224  0.00  0.00    +0.004 C 
ATOM     26  C   UNL     1      47.516 159.741  32.402  0.00  0.00    +0.022 C 
ATOM     27  C   UNL     1      48.523 158.698  31.986  0.00  0.00    +0.092 C 
ENDBRANCH  19  22
BRANCH  16  28
ATOM     28  O   UNL     1      53.649 162.177  31.076  0.00  0.00    -0.454 OA
BRANCH  28  29
ATOM     29  C   UNL     1      54.950 161.675  30.956  0.00  0.00    +0.237 C 
BRANCH  29  30
ATOM     30  C   UNL     1      55.822 162.589  30.153  0.00  0.00    +0.062 C 
ATOM     31  C   UNL     1      55.785 163.900  30.216  0.00  0.00    +0.043 C 
ATOM     32  C   UNL     1      56.792 164.435  29.279  0.00  0.00    +0.180 C 
ATOM     33  O   UNL     1      57.476 163.362  28.766  0.00  0.00    -0.448 OA
ATOM     34  C   UNL     1      56.853 162.208  29.156  0.00  0.00    +0.179 C 
ENDBRANCH  29  30
ENDBRANCH  28  29
ENDBRANCH  16  28
ENDBRANCH   1  18
BRANCH  13  35
ATOM     35  N   UNL     1      52.865 151.937  25.676  0.00  0.00    -0.145 N 
ATOM     36  C   UNL     1      53.492 150.739  25.291  0.00  0.00    +0.275 C 
ATOM     37  O   UNL     1      54.594 150.800  24.686  0.00  0.00    -0.267 OA
BRANCH  35  38
ATOM     38  O   UNL     1      51.690 151.880  26.345  0.00  0.00    -0.287 OA
ATOM     39  H   UNL     1      51.385 152.780  26.540  0.00  0.00    +0.242 HD
ENDBRANCH  35  38
BRANCH  36  40
ATOM     40  C   UNL     1      52.897 149.456  25.575  0.00  0.00    +0.060 C 
ATOM     41  C   UNL     1      53.251 148.357  24.943  0.00  0.00    +0.005 C 
ENDBRANCH  36  40
ENDBRANCH  13  35
TORSDOF 8
