REMARK  Name = =
REMARK  0 active torsions:
REMARK  status: ('A' for Active; 'I' for Inactive)
REMARK                            x       y       z     vdW  Elec       q    Type
REMARK                         _______ _______ _______ _____ _____    ______ ____
ROOT
ATOM      1  C   UNL     1      51.924 156.117  28.620  0.00  0.00    +0.000 C 
ATOM      2  C   UNL     1      52.861 157.132  28.597  0.00  0.00    +0.000 C 
ATOM      3  C   UNL     1      52.533 158.340  29.178  0.00  0.00    +0.000 C 
ATOM      4  C   UNL     1      51.284 158.489  29.759  0.00  0.00    +0.000 C 
ATOM      5  C   UNL     1      50.362 157.463  29.771  0.00  0.00    +0.000 C 
ATOM      6  C   UNL     1      50.679 156.256  29.195  0.00  0.00    +0.000 C 
ATOM      7  C   UNL     1      49.103 157.595  30.350  0.00  0.00    +0.000 C 
ATOM      8  C   UNL     1      48.801 158.810  30.923  0.00  0.00    +0.000 C 
ATOM      9  C   UNL     1      49.692 159.872  30.937  0.00  0.00    +0.000 C 
ATOM     10  C   UNL     1      50.931 159.695  30.350  0.00  0.00    +0.000 C 
ENDROOT
TORSDOF 0
