REMARK  Name = =
REMARK  2 active torsions:
REMARK  status: ('A' for Active; 'I' for Inactive)
REMARK    1  A    between atoms: C_1  and  C_20
REMARK    2  A    between atoms: C_9  and  O_21
REMARK                            x       y       z     vdW  Elec       q    Type
REMARK                         _______ _______ _______ _____ _____    ______ ____
ROOT
ATOM      1  C   UNL     1      51.356 161.582  31.311  0.00  0.00    +0.044 C 
ATOM      2  C   UNL     1      50.542 161.832  32.601  0.00  0.00    +0.009 C 
ATOM      3  C   UNL     1      49.113 162.047  32.092  0.00  0.00    +0.005 C 
ATOM      4  C   UNL     1      48.515 160.696  31.808  0.00  0.00    +0.026 C 
ATOM      5  C   UNL     1      49.528 159.872  31.111  0.00  0.00    -0.023 C 
ATOM      6  C   UNL     1      50.842 160.243  30.867  0.00  0.00    -0.022 C 
ATOM      7  C   UNL     1      51.717 159.405  30.214  0.00  0.00    -0.001 C 
ATOM      8  C   UNL     1      51.301 158.156  29.780  0.00  0.00    +0.036 C 
ATOM      9  C   UNL     1      49.996 157.760  30.008  0.00  0.00    +0.133 C 
ATOM     10  C   UNL     1      49.129 158.610  30.663  0.00  0.00    +0.032 C 
ENDROOT
BRANCH   1  20
ATOM     11  C   UNL     1      55.732 163.306  29.300  0.00  0.00    -0.000 C 
ATOM     12  C   UNL     1      54.413 163.300  28.919  0.00  0.00    -0.000 C 
ATOM     13  C   UNL     1      53.404 162.752  29.674  0.00  0.00    -0.000 C 
ATOM     14  C   UNL     1      53.734 162.177  30.879  0.00  0.00    -0.004 C 
ATOM     15  C   UNL     1      55.055 162.175  31.273  0.00  0.00    -0.000 C 
ATOM     16  C   UNL     1      56.055 162.736  30.492  0.00  0.00    -0.000 C 
ATOM     17  C   UNL     1      55.471 161.615  32.485  0.00  0.00    -0.000 C 
ATOM     18  C   UNL     1      54.533 161.050  33.304  0.00  0.00    -0.000 C 
ATOM     19  C   UNL     1      53.220 161.056  32.901  0.00  0.00    -0.004 C 
ATOM     20  C   UNL     1      52.758 161.602  31.705  0.00  0.00    -0.018 C 
ENDBRANCH   1  20
BRANCH   9  21
ATOM     21  O   UNL     1      49.550 156.520  29.586  0.00  0.00    -0.506 OA
ATOM     22  H   UNL     1      50.134 155.939  29.141  0.00  0.00    +0.292 HD
ENDBRANCH   9  21
TORSDOF 2
