REMARK  Name = =
REMARK  0 active torsions:
REMARK  status: ('A' for Active; 'I' for Inactive)
REMARK                            x       y       z     vdW  Elec       q    Type
REMARK                         _______ _______ _______ _____ _____    ______ ____
ROOT
ATOM      1  N   UNL     1      -3.830  -3.580  30.925  0.00  0.00    -0.248 N 
ATOM      2  C   UNL     1      -4.839  -3.224  31.858  0.00  0.00    +0.252 C 
ATOM      3  O   UNL     1      -5.352  -4.099  32.620  0.00  0.00    -0.270 OA
ATOM      4  C   UNL     1      -5.313  -1.835  31.963  0.00  0.00    +0.054 C 
ATOM      5  C   UNL     1      -4.778  -0.844  31.147  0.00  0.00    +0.009 C 
ATOM      6  C   UNL     1      -5.211   0.461  31.234  0.00  0.00    +0.000 C 
ATOM      7  C   UNL     1      -4.659   1.430  30.406  0.00  0.00    +0.000 C 
ATOM      8  C   UNL     1      -3.680   1.110  29.495  0.00  0.00    +0.000 C 
ATOM      9  C   UNL     1      -3.266  -0.193  29.427  0.00  0.00    +0.005 C 
ATOM     10  C   UNL     1      -3.785  -1.197  30.230  0.00  0.00    +0.054 C 
ATOM     11  C   UNL     1      -3.290  -2.562  30.097  0.00  0.00    +0.252 C 
ATOM     12  O   UNL     1      -2.396  -2.823  29.255  0.00  0.00    -0.270 OA
ATOM     13  C   UNL     1      -6.190   0.778  32.147  0.00  0.00    +0.000 C 
ATOM     14  C   UNL     1      -6.729  -0.189  32.960  0.00  0.00    +0.000 C 
ATOM     15  C   UNL     1      -6.291  -1.490  32.867  0.00  0.00    +0.005 C 
ATOM     16  H   UNL     1      -3.513  -4.509  30.854  0.00  0.00    +0.158 HD
ENDROOT
TORSDOF 0
