REMARK  Name = =
REMARK  1 active torsions:
REMARK  status: ('A' for Active; 'I' for Inactive)
REMARK    1  A    between atoms: C_13  and  N_16
REMARK                            x       y       z     vdW  Elec       q    Type
REMARK                         _______ _______ _______ _____ _____    ______ ____
ROOT
ATOM      1  N   UNL     1      -2.718  -3.890  31.736  0.00  0.00    -0.248 N 
ATOM      2  C   UNL     1      -3.970  -3.713  32.378  0.00  0.00    +0.252 C 
ATOM      3  O   UNL     1      -4.415  -4.556  33.222  0.00  0.00    -0.270 OA
ATOM      4  C   UNL     1      -4.737  -2.512  32.030  0.00  0.00    +0.054 C 
ATOM      5  C   UNL     1      -4.272  -1.581  31.115  0.00  0.00    +0.010 C 
ATOM      6  C   UNL     1      -5.004  -0.433  30.791  0.00  0.00    +0.014 C 
ATOM      7  C   UNL     1      -4.541   0.499  29.888  0.00  0.00    +0.001 C 
ATOM      8  C   UNL     1      -3.328   0.336  29.260  0.00  0.00    +0.000 C 
ATOM      9  C   UNL     1      -2.603  -0.792  29.573  0.00  0.00    +0.005 C 
ATOM     10  C   UNL     1      -3.059  -1.731  30.477  0.00  0.00    +0.054 C 
ATOM     11  C   UNL     1      -2.260  -2.924  30.800  0.00  0.00    +0.252 C 
ATOM     12  O   UNL     1      -1.159  -3.039  30.208  0.00  0.00    -0.270 OA
ATOM     13  C   UNL     1      -6.218  -0.292  31.443  0.00  0.00    +0.048 C 
ATOM     14  C   UNL     1      -6.692  -1.211  32.356  0.00  0.00    +0.015 C 
ATOM     15  C   UNL     1      -5.955  -2.342  32.666  0.00  0.00    +0.006 C 
ATOM     16  H   UNL     1      -2.167  -4.681  31.938  0.00  0.00    +0.158 HD
ENDROOT
BRANCH  13  17
ATOM     17  N   UNL     1      -7.034   0.803  31.124  0.00  0.00    -0.304 N 
ATOM     18  C   UNL     1      -8.206   0.920  31.956  0.00  0.00    +0.112 C 
ATOM     19  C   UNL     1      -8.922   2.235  31.726  0.00  0.00    +0.115 C 
ATOM     20  N   UNL     1      -9.204   2.335  30.327  0.00  0.00    -0.269 N 
ATOM     21  C   UNL     1      -8.140   2.118  29.387  0.00  0.00    +0.115 C 
ATOM     22  C   UNL     1      -7.383   0.882  29.728  0.00  0.00    +0.112 C 
ATOM     23  C   UNL     1     -10.496   2.638  29.877  0.00  0.00    +0.303 C 
ATOM     24  O   UNL     1     -11.419   2.825  30.719  0.00  0.00    -0.265 OA
ENDBRANCH  13  17
TORSDOF 1
