REMARK  Name = =
REMARK  5 active torsions:
REMARK  status: ('A' for Active; 'I' for Inactive)
REMARK    1  A    between atoms: N_1  and  O_24
REMARK    2  A    between atoms: C_13  and  N_16
REMARK    3  A    between atoms: O_24  and  C_25
REMARK    4  A    between atoms: C_25  and  C_27
REMARK    5  A    between atoms: C_27  and  C_30
REMARK                            x       y       z     vdW  Elec       q    Type
REMARK                         _______ _______ _______ _____ _____    ______ ____
ROOT
ATOM      1  N   UNL     1      -2.738  -4.631  31.724  0.00  0.00    -0.054 N 
ATOM      2  C   UNL     1      -4.003  -4.227  32.211  0.00  0.00    +0.287 C 
ATOM      3  O   UNL     1      -4.674  -4.804  33.014  0.00  0.00    -0.267 OA
ATOM      4  C   UNL     1      -4.533  -2.946  31.615  0.00  0.00    +0.057 C 
ATOM      5  C   UNL     1      -3.837  -2.248  30.675  0.00  0.00    +0.010 C 
ATOM      6  C   UNL     1      -4.349  -1.047  30.093  0.00  0.00    +0.014 C 
ATOM      7  C   UNL     1      -3.666  -0.398  29.145  0.00  0.00    +0.001 C 
ATOM      8  C   UNL     1      -2.420  -0.839  28.709  0.00  0.00    +0.000 C 
ATOM      9  C   UNL     1      -1.898  -2.002  29.282  0.00  0.00    +0.005 C 
ATOM     10  C   UNL     1      -2.624  -2.672  30.237  0.00  0.00    +0.057 C 
ATOM     11  C   UNL     1      -1.982  -3.971  30.797  0.00  0.00    +0.287 C 
ATOM     12  O   UNL     1      -0.887  -4.254  30.340  0.00  0.00    -0.267 OA
ATOM     13  C   UNL     1      -5.544  -0.672  30.590  0.00  0.00    +0.048 C 
ATOM     14  C   UNL     1      -6.297  -1.346  31.539  0.00  0.00    +0.015 C 
ATOM     15  C   UNL     1      -5.755  -2.550  32.081  0.00  0.00    +0.006 C 
ENDROOT
BRANCH  13  16
ATOM     16  N   UNL     1      -6.084   0.654  30.293  0.00  0.00    -0.304 N 
ATOM     17  C   UNL     1      -5.278   1.787  30.240  0.00  0.00    +0.112 C 
ATOM     18  C   UNL     1      -6.293   3.006  29.973  0.00  0.00    +0.115 C 
ATOM     19  N   UNL     1      -6.592   3.396  31.332  0.00  0.00    -0.269 N 
ATOM     20  C   UNL     1      -6.627   2.223  32.219  0.00  0.00    +0.115 C 
ATOM     21  C   UNL     1      -6.913   0.944  31.529  0.00  0.00    +0.112 C 
ATOM     22  C   UNL     1      -6.928   4.622  31.792  0.00  0.00    +0.303 C 
ATOM     23  O   UNL     1      -7.286   5.684  31.683  0.00  0.00    -0.265 OA
ENDBRANCH  13  16
BRANCH   1  24
ATOM     24  O   UNL     1      -2.435  -5.910  32.242  0.00  0.00    -0.331 OA
BRANCH  24  25
ATOM     25  C   UNL     1      -1.734  -6.885  31.574  0.00  0.00    +0.373 C 
ATOM     26  O   UNL     1      -1.022  -6.821  30.681  0.00  0.00    -0.242 OA
BRANCH  25  27
ATOM     27  C   UNL     1      -2.056  -8.283  32.212  0.00  0.00    +0.146 C 
ATOM     28  C   UNL     1      -1.438  -9.236  31.742  0.00  0.00    +0.018 C 
BRANCH  27  30
ATOM     29  N   UNL     1      -3.932  -8.102  33.974  0.00  0.00    -0.191 NA
ATOM     30  C   UNL     1      -3.104  -8.175  33.206  0.00  0.00    +0.107 C 
ENDBRANCH  27  30
ENDBRANCH  25  27
ENDBRANCH  24  25
ENDBRANCH   1  24
TORSDOF 5
