REMARK  Name = =
REMARK  0 active torsions:
REMARK  status: ('A' for Active; 'I' for Inactive)
REMARK                            x       y       z     vdW  Elec       q    Type
REMARK                         _______ _______ _______ _____ _____    ______ ____
ROOT
ATOM      1  C   UNL     1      -2.241  -3.513  30.192  0.00  0.00    +0.015 C 
ATOM      2  C   UNL     1      -1.344  -4.522  29.917  0.00  0.00    +0.041 C 
ATOM      3  C   UNL     1      -1.526  -5.803  30.360  0.00  0.00    +0.176 C 
ATOM      4  C   UNL     1      -2.665  -6.066  31.113  0.00  0.00    +0.177 C 
ATOM      5  C   UNL     1      -3.580  -5.048  31.395  0.00  0.00    +0.052 C 
ATOM      6  C   UNL     1      -3.368  -3.748  30.930  0.00  0.00    +0.061 C 
ATOM      7 CL   UNL     1      -4.545  -2.522  31.317  0.00  0.00    -0.082 Cl
ATOM      8  O   UNL     1      -2.629  -7.428  31.445  0.00  0.00    -0.435 OA
ATOM      9  C   UNL     1      -1.240  -7.776  31.408  0.00  0.00    +0.429 C 
ATOM     10  O   UNL     1      -0.833  -7.015  30.260  0.00  0.00    -0.435 OA
ENDROOT
TORSDOF 0
