REMARK  Name = =
REMARK  1 active torsions:
REMARK  status: ('A' for Active; 'I' for Inactive)
REMARK    1  A    between atoms: C_1  and  C_20
REMARK                            x       y       z     vdW  Elec       q    Type
REMARK                         _______ _______ _______ _____ _____    ______ ____
ROOT
ATOM      1  C   UNL     1       5.571  -7.181  26.217  0.00  0.00    +0.091 C 
ATOM      2  C   UNL     1       4.668  -8.185  26.497  0.00  0.00    +0.101 C 
ATOM      3  C   UNL     1       4.925  -9.185  27.419  0.00  0.00    +0.159 C 
ATOM      4  C   UNL     1       6.129  -9.189  28.091  0.00  0.00    +0.038 C 
ATOM      5  C   UNL     1       7.037  -8.193  27.820  0.00  0.00    -0.001 C 
ATOM      6  C   UNL     1       6.778  -7.198  26.901  0.00  0.00    -0.016 C 
ATOM      7  O   UNL     1       4.023 -10.116  27.643  0.00  0.00    -0.455 OA
ATOM      8  C   UNL     1       2.865 -10.151  27.027  0.00  0.00    +0.148 C 
ATOM      9  C   UNL     1       1.903 -11.113  27.243  0.00  0.00    +0.135 C 
ATOM     10  C   UNL     1       0.703 -11.083  26.552  0.00  0.00    +0.181 C 
ATOM     11  O   UNL     1      -0.153 -12.003  26.793  0.00  0.00    -0.291 OA
ATOM     12  C   UNL     1       0.434 -10.093  25.630  0.00  0.00    +0.040 C 
ATOM     13  C   UNL     1       1.345  -9.098  25.362  0.00  0.00    +0.025 C 
ATOM     14  C   UNL     1       2.563  -9.112  26.050  0.00  0.00    +0.112 C 
ATOM     15  N   UNL     1       3.496  -8.176  25.838  0.00  0.00    -0.243 NA
ENDROOT
BRANCH   1  20
ATOM     16  C   UNL     1       4.340  -4.015  24.728  0.00  0.00    +0.014 C 
ATOM     17  C   UNL     1       4.576  -4.267  23.379  0.00  0.00    +0.041 C 
ATOM     18  C   UNL     1       5.131  -5.459  22.962  0.00  0.00    +0.176 C 
ATOM     19  C   UNL     1       5.471  -6.445  23.894  0.00  0.00    +0.174 C 
ATOM     20  C   UNL     1       5.228  -6.178  25.246  0.00  0.00    +0.035 C 
ATOM     21  C   UNL     1       4.673  -4.984  25.649  0.00  0.00    +0.057 C 
ATOM     22 CL   UNL     1       4.407  -4.742  27.362  0.00  0.00    -0.082 Cl
ATOM     23  O   UNL     1       6.004  -7.527  23.202  0.00  0.00    -0.435 OA
ATOM     24  C   UNL     1       6.522  -6.955  21.991  0.00  0.00    +0.429 C 
ATOM     25  O   UNL     1       5.483  -6.002  21.718  0.00  0.00    -0.435 OA
ENDBRANCH   1  20
TORSDOF 1
