REMARK  Name = =
REMARK  3 active torsions:
REMARK  status: ('A' for Active; 'I' for Inactive)
REMARK    1  A    between atoms: C_1  and  C_20
REMARK    2  A    between atoms: C_12  and  S_26
REMARK    3  A    between atoms: S_26  and  N_29
REMARK                            x       y       z     vdW  Elec       q    Type
REMARK                         _______ _______ _______ _____ _____    ______ ____
ROOT
ATOM      1  C   UNL     1       4.516  -9.011  26.488  0.00  0.00    +0.021 C 
ATOM      2  C   UNL     1       3.911  -8.536  25.322  0.00  0.00    +0.103 C 
ATOM      3  C   UNL     1       2.601  -8.872  24.990  0.00  0.00    +0.227 C 
ATOM      4  C   UNL     1       1.902  -9.693  25.845  0.00  0.00    +0.023 C 
ATOM      5  C   UNL     1       2.466 -10.181  27.003  0.00  0.00    -0.001 C 
ATOM      6  C   UNL     1       3.771  -9.832  27.309  0.00  0.00    +0.001 C 
ATOM      7  O   UNL     1       2.053  -8.404  23.872  0.00  0.00    -0.471 OA
ATOM      8  C   UNL     1       2.763  -7.624  23.093  0.00  0.00    +0.142 C 
ATOM      9  C   UNL     1       2.252  -7.100  21.911  0.00  0.00    +0.136 C 
ATOM     10  C   UNL     1       3.007  -6.281  21.098  0.00  0.00    +0.199 C 
ATOM     11  O   UNL     1       2.498  -5.832  20.036  0.00  0.00    -0.289 OA
ATOM     12  C   UNL     1       4.306  -5.924  21.388  0.00  0.00    +0.162 C 
ATOM     13  C   UNL     1       4.851  -6.423  22.553  0.00  0.00    +0.045 C 
ATOM     14  C   UNL     1       4.137  -7.256  23.417  0.00  0.00    +0.113 C 
ATOM     15  N   UNL     1       4.661  -7.739  24.541  0.00  0.00    -0.243 NA
ENDROOT
BRANCH   1  20
ATOM     16  C   UNL     1       7.541  -7.074  27.599  0.00  0.00    +0.015 C 
ATOM     17  C   UNL     1       8.539  -7.987  27.367  0.00  0.00    +0.041 C 
ATOM     18  C   UNL     1       8.231  -9.223  26.853  0.00  0.00    +0.176 C 
ATOM     19  C   UNL     1       6.898  -9.533  26.573  0.00  0.00    +0.177 C 
ATOM     20  C   UNL     1       5.884  -8.636  26.796  0.00  0.00    +0.049 C 
ATOM     21  C   UNL     1       6.216  -7.406  27.311  0.00  0.00    +0.061 C 
ATOM     22 CL   UNL     1       4.955  -6.231  27.611  0.00  0.00    -0.082 Cl
ATOM     23  O   UNL     1       6.896 -10.826  26.075  0.00  0.00    -0.435 OA
ATOM     24  C   UNL     1       8.231 -11.158  25.656  0.00  0.00    +0.429 C 
ATOM     25  O   UNL     1       8.981 -10.324  26.519  0.00  0.00    -0.435 OA
ENDBRANCH   1  20
BRANCH  12  26
ATOM     26  S   UNL     1       5.237  -4.876  20.321  0.00  0.00    +0.079 S 
ATOM     27  O   UNL     1       4.642  -3.517  20.391  0.00  0.00    -0.150 OA
ATOM     28  O   UNL     1       6.658  -4.890  20.784  0.00  0.00    -0.150 OA
BRANCH  26  29
ATOM     29  N   UNL     1       5.223  -5.512  18.700  0.00  0.00    -0.178 N 
ATOM     30  C   UNL     1       4.673  -4.797  17.608  0.00  0.00    +0.319 C 
ATOM     31  O   UNL     1       4.185  -3.662  17.850  0.00  0.00    -0.264 OA
ATOM     32  H   UNL     1       5.612  -6.402  18.536  0.00  0.00    +0.177 HD
ENDBRANCH  26  29
ENDBRANCH  12  26
TORSDOF 3
