REMARK  Name = =
REMARK  4 active torsions:
REMARK  status: ('A' for Active; 'I' for Inactive)
REMARK    1  A    between atoms: C_1  and  C_20
REMARK    2  A    between atoms: C_5  and  N_26
REMARK    3  A    between atoms: C_12  and  S_33
REMARK    4  A    between atoms: S_33  and  N_36
REMARK                            x       y       z     vdW  Elec       q    Type
REMARK                         _______ _______ _______ _____ _____    ______ ____
ROOT
ATOM      1  C   UNL     1       3.382  -6.265  21.741  0.00  0.00    +0.022 C 
ATOM      2  C   UNL     1       2.617  -7.373  22.056  0.00  0.00    +0.103 C 
ATOM      3  C   UNL     1       1.582  -7.751  21.228  0.00  0.00    +0.229 C 
ATOM      4  C   UNL     1       1.288  -7.046  20.083  0.00  0.00    +0.040 C 
ATOM      5  C   UNL     1       2.048  -5.933  19.753  0.00  0.00    +0.076 C 
ATOM      6  C   UNL     1       3.078  -5.569  20.591  0.00  0.00    +0.018 C 
ATOM      7  O   UNL     1       0.815  -8.809  21.485  0.00  0.00    -0.471 OA
ATOM      8  C   UNL     1       1.042  -9.526  22.562  0.00  0.00    +0.142 C 
ATOM      9  C   UNL     1       0.242 -10.616  22.815  0.00  0.00    +0.136 C 
ATOM     10  C   UNL     1       0.473 -11.390  23.961  0.00  0.00    +0.199 C 
ATOM     11  O   UNL     1      -0.286 -12.373  24.144  0.00  0.00    -0.289 OA
ATOM     12  C   UNL     1       1.485 -11.085  24.844  0.00  0.00    +0.162 C 
ATOM     13  C   UNL     1       2.302  -9.976  24.590  0.00  0.00    +0.045 C 
ATOM     14  C   UNL     1       2.119  -9.187  23.484  0.00  0.00    +0.113 C 
ATOM     15  N   UNL     1       2.866  -8.110  23.181  0.00  0.00    -0.243 NA
ENDROOT
BRANCH   1  20
ATOM     16  C   UNL     1       5.298  -4.531  24.353  0.00  0.00    +0.015 C 
ATOM     17  C   UNL     1       6.519  -5.180  24.290  0.00  0.00    +0.041 C 
ATOM     18  C   UNL     1       6.720  -6.196  23.379  0.00  0.00    +0.176 C 
ATOM     19  C   UNL     1       5.673  -6.540  22.543  0.00  0.00    +0.177 C 
ATOM     20  C   UNL     1       4.460  -5.888  22.615  0.00  0.00    +0.049 C 
ATOM     21  C   UNL     1       4.248  -4.868  23.522  0.00  0.00    +0.061 C 
ATOM     22 CL   UNL     1       2.707  -4.017  23.634  0.00  0.00    -0.082 Cl
ATOM     23  O   UNL     1       6.182  -7.577  21.757  0.00  0.00    -0.435 OA
ATOM     24  C   UNL     1       7.604  -7.482  21.740  0.00  0.00    +0.429 C 
ATOM     25  O   UNL     1       7.816  -7.017  23.084  0.00  0.00    -0.435 OA
ENDBRANCH   1  20
BRANCH   5  26
ATOM     26  N   UNL     1       1.713  -5.228  18.565  0.00  0.00    -0.159 N 
ATOM     27  N   UNL     1       1.946  -5.840  17.344  0.00  0.00    -0.175 NA
ATOM     28  C   UNL     1       1.678  -5.300  16.216  0.00  0.00    +0.092 C 
ATOM     29  C   UNL     1       1.084  -3.951  16.127  0.00  0.00    +0.058 C 
ATOM     30  C   UNL     1       1.299  -3.107  17.361  0.00  0.00    +0.094 C 
ATOM     31  C   UNL     1       1.146  -3.923  18.583  0.00  0.00    +0.249 C 
ATOM     32  O   UNL     1       0.560  -3.541  19.608  0.00  0.00    -0.273 OA
ENDBRANCH   5  26
BRANCH  12  33
ATOM     33  S   UNL     1       1.710 -12.086  26.241  0.00  0.00    +0.079 S 
ATOM     34  O   UNL     1       3.004 -11.807  26.942  0.00  0.00    -0.150 OA
ATOM     35  O   UNL     1       0.614 -11.926  27.250  0.00  0.00    -0.150 OA
BRANCH  33  36
ATOM     36  N   UNL     1       1.696 -13.748  25.721  0.00  0.00    -0.178 N 
ATOM     37  C   UNL     1       2.795 -14.192  24.959  0.00  0.00    +0.319 C 
ATOM     38  O   UNL     1       3.737 -13.403  24.681  0.00  0.00    -0.264 OA
ATOM     39  H   UNL     1       0.952 -14.351  25.950  0.00  0.00    +0.177 HD
ENDBRANCH  33  36
ENDBRANCH  12  33
TORSDOF 4
