REMARK  Name = =
REMARK  9 active torsions:
REMARK  status: ('A' for Active; 'I' for Inactive)
REMARK    1  A    between atoms: C_1  and  C_12
REMARK    2  A    between atoms: C_3  and  N_7
REMARK    3  A    between atoms: C_4  and  O_23
REMARK    4  A    between atoms: C_12  and  O_14
REMARK    5  A    between atoms: O_14  and  N_15
REMARK    6  A    between atoms: N_15  and  S_16
REMARK    7  A    between atoms: S_16  and  O_19
REMARK    8  A    between atoms: O_19  and  S_20
REMARK    9  A    between atoms: O_23  and  N_24
REMARK                            x       y       z     vdW  Elec       q    Type
REMARK                         _______ _______ _______ _____ _____    ______ ____
ROOT
ATOM      1  C   UNL     1      -6.527  -2.341  32.133  0.00  0.00    +0.079 C 
ATOM      2  C   UNL     1      -6.015  -3.592  32.416  0.00  0.00    +0.024 C 
ATOM      3  C   UNL     1      -4.817  -4.057  31.955  0.00  0.00    +0.085 C 
ATOM      4  C   UNL     1      -4.077  -3.220  31.157  0.00  0.00    +0.178 C 
ATOM      5  C   UNL     1      -4.541  -1.937  30.833  0.00  0.00    +0.041 C 
ATOM      6  C   UNL     1      -5.775  -1.516  31.334  0.00  0.00    +0.010 C 
ENDROOT
BRANCH   3   7
ATOM      7  N   UNL     1      -4.315  -5.373  32.273  0.00  0.00    -0.305 N 
ATOM      8  C   UNL     1      -4.989  -6.268  33.210  0.00  0.00    +0.091 C 
ATOM      9  C   UNL     1      -3.806  -6.758  34.046  0.00  0.00    +0.023 C 
ATOM     10  C   UNL     1      -2.756  -6.927  33.002  0.00  0.00    +0.023 C 
ATOM     11  C   UNL     1      -3.173  -6.081  31.812  0.00  0.00    +0.091 C 
ENDBRANCH   3   7
BRANCH   1  12
ATOM     12  C   UNL     1      -7.801  -1.863  32.633  0.00  0.00    +0.360 C 
ATOM     13  O   UNL     1      -8.384  -2.407  33.626  0.00  0.00    -0.243 OA
BRANCH  12  14
ATOM     14  O   UNL     1      -8.438  -0.798  32.053  0.00  0.00    -0.344 OA
BRANCH  14  15
ATOM     15  N   UNL     1      -9.754  -0.503  32.099  0.00  0.00    -0.015 NA
ATOM     16  H   UNL     1      -9.918   0.305  31.499  0.00  0.00    +0.196 HD
BRANCH  15  17
ATOM     17  S   UNL     1     -10.795  -1.756  31.593  0.00  0.00    +0.099 S 
ATOM     18  O   UNL     1     -10.194  -2.625  30.526  0.00  0.00    -0.051 OA
ATOM     19  O   UNL     1     -12.134  -1.212  31.116  0.00  0.00    -0.051 OA
BRANCH  17  20
ATOM     20  O   UNL     1     -11.128  -2.738  32.916  0.00  0.00    -0.104 OA
BRANCH  20  21
ATOM     21  S   UNL     1     -12.417  -3.748  32.615  0.00  0.00    -0.006 S 
ATOM     22  O   UNL     1     -13.160  -4.005  33.910  0.00  0.00    -0.074 OA
ATOM     23  O   UNL     1     -13.357  -3.188  31.587  0.00  0.00    -0.074 OA
ATOM     24  H   UNL     1     -11.925  -4.911  32.111  0.00  0.00    +0.217 HD
ENDBRANCH  20  21
ENDBRANCH  17  20
ENDBRANCH  15  17
ENDBRANCH  14  15
ENDBRANCH  12  14
ENDBRANCH   1  12
BRANCH   4  25
ATOM     25  O   UNL     1      -2.860  -3.544  30.620  0.00  0.00    -0.400 OA
BRANCH  25  26
ATOM     26  N   UNL     1      -2.253  -2.912  29.591  0.00  0.00    -0.117 NA
ATOM     27  C   UNL     1      -2.444  -3.521  28.313  0.00  0.00    +0.135 C 
ATOM     28  C   UNL     1      -1.159  -4.085  27.760  0.00  0.00    +0.115 C 
ATOM     29  N   UNL     1      -0.299  -4.642  28.770  0.00  0.00    -0.269 N 
ATOM     30  C   UNL     1      -0.038  -3.858  29.950  0.00  0.00    +0.115 C 
ATOM     31  C   UNL     1      -0.869  -2.593  29.828  0.00  0.00    +0.135 C 
ATOM     32  C   UNL     1       0.281  -5.928  28.618  0.00  0.00    +0.303 C 
ATOM     33  O   UNL     1       1.032  -6.390  29.524  0.00  0.00    -0.265 OA
ENDBRANCH  25  26
ENDBRANCH   4  25
TORSDOF 9
