REMARK  Name = =
REMARK  10 active torsions:
REMARK  status: ('A' for Active; 'I' for Inactive)
REMARK    1  A    between atoms: C_1  and  C_22
REMARK    2  A    between atoms: C_3  and  N_7
REMARK    3  A    between atoms: C_4  and  O_33
REMARK    4  A    between atoms: C_10  and  C_12
REMARK    5  A    between atoms: C_22  and  O_24
REMARK    6  A    between atoms: O_24  and  N_25
REMARK    7  A    between atoms: N_25  and  S_26
REMARK    8  A    between atoms: S_26  and  O_29
REMARK    9  A    between atoms: O_29  and  S_30
REMARK   10  A    between atoms: O_33  and  N_34
REMARK                            x       y       z     vdW  Elec       q    Type
REMARK                         _______ _______ _______ _____ _____    ______ ____
ROOT
ATOM      1  C   UNL     1      -2.782  -6.471  31.824  0.00  0.00    +0.079 C 
ATOM      2  C   UNL     1      -1.824  -6.597  30.841  0.00  0.00    +0.024 C 
ATOM      3  C   UNL     1      -0.482  -6.773  31.091  0.00  0.00    +0.085 C 
ATOM      4  C   UNL     1      -0.098  -6.824  32.432  0.00  0.00    +0.178 C 
ATOM      5  C   UNL     1      -1.038  -6.701  33.435  0.00  0.00    +0.041 C 
ATOM      6  C   UNL     1      -2.368  -6.526  33.153  0.00  0.00    +0.010 C 
ENDROOT
BRANCH   3   7
ATOM      7  N   UNL     1       0.435  -6.893  30.036  0.00  0.00    -0.305 N 
ATOM      8  C   UNL     1       1.421  -5.976  29.510  0.00  0.00    +0.091 C 
ATOM      9  C   UNL     1       1.607  -6.337  28.050  0.00  0.00    +0.027 C 
ATOM     10  C   UNL     1       0.584  -7.422  27.824  0.00  0.00    +0.044 C 
ATOM     11  C   UNL     1       0.568  -8.095  29.196  0.00  0.00    +0.095 C 
BRANCH  10  12
ATOM     12  C   UNL     1       0.922  -8.340  26.748  0.00  0.00    -0.021 C 
ATOM     13  C   UNL     1       0.053  -9.363  26.439  0.00  0.00    -0.003 C 
ATOM     14  C   UNL     1       0.317 -10.257  25.437  0.00  0.00    +0.019 C 
ATOM     15  C   UNL     1       1.468 -10.155  24.705  0.00  0.00    +0.081 C 
ATOM     16  C   UNL     1       2.348  -9.137  25.001  0.00  0.00    +0.017 C 
ATOM     17  C   UNL     1       2.081  -8.233  26.015  0.00  0.00    -0.003 C 
ATOM     18  C   UNL     1       3.504  -9.057  24.246  0.00  0.00    +0.003 C 
ATOM     19  C   UNL     1       3.753  -9.967  23.241  0.00  0.00    +0.021 C 
ATOM     20  C   UNL     1       2.859 -10.978  22.960  0.00  0.00    +0.099 C 
ATOM     21  N   UNL     1       1.742 -11.042  23.703  0.00  0.00    -0.244 NA
ENDBRANCH  10  12
ENDBRANCH   3   7
BRANCH   1  22
ATOM     22  C   UNL     1      -4.174  -6.289  31.473  0.00  0.00    +0.360 C 
ATOM     23  O   UNL     1      -4.806  -7.218  30.932  0.00  0.00    -0.243 OA
BRANCH  22  24
ATOM     24  O   UNL     1      -4.810  -5.098  31.732  0.00  0.00    -0.344 OA
BRANCH  24  25
ATOM     25  N   UNL     1      -4.958  -4.153  30.727  0.00  0.00    -0.015 NA
ATOM     26  H   UNL     1      -4.677  -4.560  29.835  0.00  0.00    +0.196 HD
BRANCH  25  27
ATOM     27  S   UNL     1      -3.972  -2.788  31.068  0.00  0.00    +0.099 S 
ATOM     28  O   UNL     1      -3.270  -2.934  32.390  0.00  0.00    -0.051 OA
ATOM     29  O   UNL     1      -2.967  -2.546  29.964  0.00  0.00    -0.051 OA
BRANCH  27  30
ATOM     30  O   UNL     1      -4.937  -1.407  31.142  0.00  0.00    -0.104 OA
BRANCH  30  31
ATOM     31  S   UNL     1      -6.316  -1.733  32.020  0.00  0.00    -0.006 S 
ATOM     32  O   UNL     1      -6.028  -2.636  33.171  0.00  0.00    -0.074 OA
ATOM     33  O   UNL     1      -7.297  -2.439  31.118  0.00  0.00    -0.074 OA
ATOM     34  H   UNL     1      -6.811  -0.558  32.492  0.00  0.00    +0.217 HD
ENDBRANCH  30  31
ENDBRANCH  27  30
ENDBRANCH  25  27
ENDBRANCH  24  25
ENDBRANCH  22  24
ENDBRANCH   1  22
BRANCH   4  35
ATOM     35  O   UNL     1       1.235  -6.999  32.742  0.00  0.00    -0.400 OA
BRANCH  35  36
ATOM     36  N   UNL     1       1.890  -6.006  33.424  0.00  0.00    -0.117 NA
ATOM     37  C   UNL     1       1.902  -6.316  34.823  0.00  0.00    +0.135 C 
ATOM     38  C   UNL     1       2.300  -5.039  35.567  0.00  0.00    +0.115 C 
ATOM     39  N   UNL     1       3.401  -4.426  34.874  0.00  0.00    -0.269 N 
ATOM     40  C   UNL     1       4.156  -5.198  33.923  0.00  0.00    +0.115 C 
ATOM     41  C   UNL     1       3.193  -5.727  32.882  0.00  0.00    +0.135 C 
ATOM     42  C   UNL     1       3.752  -3.078  35.112  0.00  0.00    +0.303 C 
ATOM     43  O   UNL     1       4.714  -2.537  34.510  0.00  0.00    -0.265 OA
ENDBRANCH  35  36
ENDBRANCH   4  35
TORSDOF 10
