MODEL 1
REMARK VINA RESULT:   -13.931      0.000      0.000
REMARK INTER + INTRA:         -12.433
REMARK INTER:                 -17.189
REMARK INTRA:                   4.756
REMARK UNBOUND:                 4.756
REMARK  Name = =
REMARK  4 active torsions:
REMARK  status: ('A' for Active; 'I' for Inactive)
REMARK    1  A    between atoms: C_1  and  C_27
REMARK    2  A    between atoms: C_1  and  S_32
REMARK    3  A    between atoms: S_32  and  C_33
REMARK    4  A    between atoms: S_32  and  C_38
REMARK                            x       y       z     vdW  Elec       q    Type
REMARK                         _______ _______ _______ _____ _____    ______ ____
ROOT
ATOM      1  C   UNL     1     -12.892 -43.470  30.457  0.00  0.00    +0.147 C 
ATOM      2  O   UNL     1     -12.405 -42.331  29.927  0.00  0.00    -0.345 OA
ATOM      3  C   UNL     1     -11.326 -41.769  30.580  0.00  0.00    +0.175 C 
ATOM      4  C   UNL     1     -10.025 -42.570  30.344  0.00  0.00    +0.174 C 
ATOM      5  O   UNL     1      -9.230 -42.237  31.460  0.00  0.00    -0.326 OA
ATOM      6  C   UNL     1      -9.020 -43.330  32.278  0.00  0.00    +0.264 C 
ATOM      7  O   UNL     1      -8.252 -43.066  33.382  0.00  0.00    -0.321 OA
ATOM      8  C   UNL     1      -6.926 -43.432  33.183  0.00  0.00    +0.209 C 
ATOM      9  C   UNL     1      -6.533 -43.108  31.772  0.00  0.00    +0.183 C 
ATOM     10  O   UNL     1      -5.754 -42.219  31.564  0.00  0.00    -0.293 OA
ATOM     11  C   UNL     1      -7.187 -43.957  30.746  0.00  0.00    +0.102 C 
ATOM     12  C   UNL     1      -8.463 -44.468  31.450  0.00  0.00    +0.179 C 
ATOM     13  O   UNL     1      -9.429 -44.904  30.595  0.00  0.00    -0.350 OA
ATOM     14  C   UNL     1     -10.442 -43.987  30.317  0.00  0.00    +0.148 C 
ATOM     15  C   UNL     1     -11.657 -44.237  31.080  0.00  0.00    +0.071 C 
ENDROOT
BRANCH   1  27
ATOM     16  C   UNL     1     -14.675 -43.302  27.361  0.00  0.00    +0.226 C 
ATOM     17  N   UNL     1     -15.915 -42.893  27.741  0.00  0.00    -0.213 NA
ATOM     18  C   UNL     1     -16.811 -42.347  26.849  0.00  0.00    +0.086 C 
ATOM     19  C   UNL     1     -16.483 -42.201  25.545  0.00  0.00    +0.037 C 
ATOM     20  C   UNL     1     -17.293 -41.647  24.548  0.00  0.00    +0.003 C 
ATOM     21  C   UNL     1     -18.577 -41.231  24.960  0.00  0.00    +0.000 C 
ATOM     22  C   UNL     1     -18.915 -41.385  26.255  0.00  0.00    +0.002 C 
ATOM     23  C   UNL     1     -18.094 -41.936  27.278  0.00  0.00    +0.019 C 
ATOM     24  C   UNL     1     -15.216 -42.624  25.110  0.00  0.00    +0.103 C 
ATOM     25  N   UNL     1     -14.480 -43.114  26.055  0.00  0.00    -0.212 NA
ATOM     26  N   UNL     1     -13.632 -43.734  28.180  0.00  0.00    -0.227 N 
ATOM     27  C   UNL     1     -13.351 -44.479  29.374  0.00  0.00    +0.117 C 
ATOM     28  C   UNL     1     -12.251 -45.419  28.935  0.00  0.00    +0.033 C 
ATOM     29  C   UNL     1     -11.339 -44.512  28.143  0.00  0.00    +0.088 C 
ATOM     30  C   UNL     1     -12.245 -43.364  27.787  0.00  0.00    +0.232 C 
ATOM     31  O   UNL     1     -11.920 -42.281  27.263  0.00  0.00    -0.274 OA
ENDBRANCH   1  27
BRANCH   1  32
ATOM     32  S   UNL     1     -13.997 -43.379  31.731  0.00  0.00    -0.088 S 
ATOM     33  H   UNL     1     -15.079 -42.714  31.245  0.00  0.00    +0.103 HD
BRANCH  32  34
ATOM     34  C   UNL     1     -13.716 -42.469  33.033  0.00  0.00    +0.223 C 
ATOM     35  N   UNL     1     -13.822 -41.022  32.987  0.00  0.00    -0.212 N 
ATOM     36  N   UNL     1     -14.573 -40.637  34.146  0.00  0.00    -0.063 NA
ATOM     37  N   UNL     1     -14.846 -41.650  34.838  0.00  0.00    -0.063 NA
ATOM     38  N   UNL     1     -14.348 -42.796  34.289  0.00  0.00    -0.212 N 
ATOM     39  H   UNL     1     -13.453 -40.424  32.297  0.00  0.00    +0.173 HD
ATOM     40  H   UNL     1     -14.411 -43.696  34.684  0.00  0.00    +0.173 HD
ENDBRANCH  32  34
BRANCH  32  41
ATOM     41  C   UNL     1     -14.180 -45.089  32.219  0.00  0.00    +0.117 C 
ATOM     42  N   UNL     1     -14.315 -46.221  32.536  0.00  0.00    -0.185 NA
ENDBRANCH  32  41
ENDBRANCH   1  32
TORSDOF 4
ENDMDL
