REMARK  Name = =
REMARK  1 active torsions:
REMARK  status: ('A' for Active; 'I' for Inactive)
REMARK    1  A    between atoms: S_1  and  N_4
REMARK                            x       y       z     vdW  Elec       q    Type
REMARK                         _______ _______ _______ _____ _____    ______ ____
ROOT
ATOM      1  S   UNL     1      51.396 155.463  28.968  0.00  0.00    +0.035 S 
ATOM      2  O   UNL     1      52.037 154.203  28.458  0.00  0.00    -0.158 OA
ATOM      3  O   UNL     1      51.102 155.271  30.444  0.00  0.00    -0.158 OA
ATOM      4  H   UNL     1      50.254 155.740  28.283  0.00  0.00    +0.233 HD
ENDROOT
BRANCH   1   5
ATOM      5  N   UNL     1      52.505 156.735  28.796  0.00  0.00    -0.184 N 
ATOM      6  C   UNL     1      52.319 158.045  29.308  0.00  0.00    +0.319 C 
ATOM      7  O   UNL     1      51.266 158.302  29.935  0.00  0.00    -0.264 OA
ATOM      8  H   UNL     1      53.338 156.551  28.305  0.00  0.00    +0.176 HD
ENDBRANCH   1   5
TORSDOF 1
