REMARK  Name = =
REMARK  2 active torsions:
REMARK  status: ('A' for Active; 'I' for Inactive)
REMARK    1  A    between atoms: S_1  and  C_9
REMARK    2  A    between atoms: S_1  and  N_10
REMARK                            x       y       z     vdW  Elec       q    Type
REMARK                         _______ _______ _______ _____ _____    ______ ____
ROOT
ATOM      1  S   UNL     1      52.157 156.739  29.183  0.00  0.00    +0.072 S 
ATOM      2  O   UNL     1      51.700 155.909  28.001  0.00  0.00    -0.153 OA
ATOM      3  O   UNL     1      51.722 156.080  30.451  0.00  0.00    -0.153 OA
ENDROOT
BRANCH   1   9
ATOM      4  C   UNL     1      48.966 157.735  29.945  0.00  0.00    +0.304 C 
ATOM      5  O   UNL     1      48.085 158.115  30.753  0.00  0.00    -0.265 OA
ATOM      6  N   UNL     1      50.170 158.468  29.867  0.00  0.00    -0.253 N 
ATOM      7  C   UNL     1      50.721 159.633  30.510  0.00  0.00    +0.099 C 
ATOM      8  C   UNL     1      52.099 159.358  29.949  0.00  0.00    +0.068 C 
ATOM      9  C   UNL     1      51.366 158.347  29.095  0.00  0.00    +0.228 C 
ENDBRANCH   1   9
BRANCH   1  10
ATOM     10  N   UNL     1      53.848 157.008  29.141  0.00  0.00    -0.180 N 
ATOM     11  C   UNL     1      54.460 157.398  27.935  0.00  0.00    +0.319 C 
ATOM     12  O   UNL     1      53.745 157.539  26.914  0.00  0.00    -0.264 OA
ATOM     13  H   UNL     1      54.389 156.891  29.955  0.00  0.00    +0.177 HD
ENDBRANCH   1  10
TORSDOF 2
