REMARK  Name = =
REMARK  3 active torsions:
REMARK  status: ('A' for Active; 'I' for Inactive)
REMARK    1  A    between atoms: C_1  and  C_11
REMARK    2  A    between atoms: C_6  and  S_12
REMARK    3  A    between atoms: S_12  and  N_15
REMARK                            x       y       z     vdW  Elec       q    Type
REMARK                         _______ _______ _______ _____ _____    ______ ____
ROOT
ATOM      1  C   UNL     1      51.161 155.802  29.202  0.00  0.00    +0.226 C 
ATOM      2  O   UNL     1      50.902 154.562  29.392  0.00  0.00    -0.275 OA
ATOM      3  N   UNL     1      50.238 156.790  29.608  0.00  0.00    -0.261 N 
ATOM      4  C   UNL     1      48.905 156.623  30.224  0.00  0.00    +0.099 C 
ATOM      5  C   UNL     1      49.186 157.897  30.971  0.00  0.00    +0.068 C 
ATOM      6  C   UNL     1      50.005 158.191  29.705  0.00  0.00    +0.228 C 
ENDROOT
BRANCH   1  11
ATOM      7  C   UNL     1      52.280 156.578  27.121  0.00  0.00    +0.009 C 
ATOM      8  C   UNL     1      52.728 155.421  26.253  0.00  0.00    +0.001 C 
ATOM      9  C   UNL     1      53.201 154.321  27.152  0.00  0.00    +0.001 C 
ATOM     10  C   UNL     1      53.372 154.937  28.515  0.00  0.00    +0.009 C 
ATOM     11  C   UNL     1      52.446 156.114  28.546  0.00  0.00    +0.077 C 
ENDBRANCH   1  11
BRANCH   6  12
ATOM     12  S   UNL     1      51.315 159.309  29.941  0.00  0.00    +0.072 S 
ATOM     13  O   UNL     1      52.581 158.741  29.375  0.00  0.00    -0.153 OA
ATOM     14  O   UNL     1      50.990 160.553  29.116  0.00  0.00    -0.153 OA
BRANCH  12  15
ATOM     15  N   UNL     1      51.589 159.809  31.529  0.00  0.00    -0.180 N 
ATOM     16  C   UNL     1      52.145 161.072  31.848  0.00  0.00    +0.319 C 
ATOM     17  O   UNL     1      52.451 161.861  30.923  0.00  0.00    -0.264 OA
ATOM     18  H   UNL     1      51.353 159.198  32.264  0.00  0.00    +0.177 HD
ENDBRANCH  12  15
ENDBRANCH   6  12
TORSDOF 3
