REMARK  Name = =
REMARK  9 active torsions:
REMARK  status: ('A' for Active; 'I' for Inactive)
REMARK    1  A    between atoms: O_2  and  O_18
REMARK    2  A    between atoms: O_13  and  O_23
REMARK    3  A    between atoms: P_14  and  O_16
REMARK    4  A    between atoms: P_14  and  O_17
REMARK    5  A    between atoms: O_18  and  P_19
REMARK    6  A    between atoms: P_19  and  O_21
REMARK    7  A    between atoms: P_19  and  O_22
REMARK    8  A    between atoms: O_23  and  N_24
REMARK    9  A    between atoms: N_27  and  C_30
REMARK                            x       y       z     vdW  Elec       q    Type
REMARK                         _______ _______ _______ _____ _____    ______ ____
ROOT
ATOM      1  P   UNL     1     -10.149 -45.857  30.880  0.00  0.00    +0.499 P 
ATOM      2  O   UNL     1      -9.459 -47.055  31.467  0.00  0.00    -0.225 OA
ENDROOT
BRANCH   1   3
ATOM      3  O   UNL     1      -9.316 -45.235  29.520  0.00  0.00    -0.301 OA
ATOM      4  H   UNL     1      -8.467 -44.862  29.804  0.00  0.00    +0.222 HD
ENDBRANCH   1   3
BRANCH   1   5
ATOM      5  O   UNL     1     -11.614 -46.475  30.223  0.00  0.00    -0.301 OA
ATOM      6  H   UNL     1     -12.154 -46.852  30.935  0.00  0.00    +0.222 HD
ENDBRANCH   1   5
BRANCH   1   7
ATOM      7  O   UNL     1     -10.580 -44.680  31.958  0.00  0.00    -0.122 OA
BRANCH   7   9
ATOM      8  P   UNL     1     -10.509 -43.087  31.452  0.00  0.00    +0.195 P 
ATOM      9  O   UNL     1     -11.340 -44.114  30.678  0.00  0.00    -0.189 OA
ENDBRANCH   7   9
ENDBRANCH   1   7
TORSDOF 4
REMARK  Name = =
REMARK  9 active torsions:
REMARK  status: ('A' for Active; 'I' for Inactive)
REMARK    1  A    between atoms: O_2  and  O_18
REMARK    2  A    between atoms: O_13  and  O_23
REMARK    3  A    between atoms: P_14  and  O_16
REMARK    4  A    between atoms: P_14  and  O_17
REMARK    5  A    between atoms: O_18  and  P_19
REMARK    6  A    between atoms: P_19  and  O_21
REMARK    7  A    between atoms: P_19  and  O_22
REMARK    8  A    between atoms: O_23  and  N_24
REMARK    9  A    between atoms: N_27  and  C_30
REMARK                            x       y       z     vdW  Elec       q    Type
REMARK                         _______ _______ _______ _____ _____    ______ ____
ROOT
ATOM      1  N   UNL     1     -11.532 -42.594  32.783  0.00  0.00    -0.264 N 
ATOM      2  C   UNL     1     -12.199 -43.750  33.265  0.00  0.00    +0.095 C 
ATOM      3  C   UNL     1     -13.419 -44.167  32.526  0.00  0.00    +0.022 C 
ATOM      4  C   UNL     1     -14.641 -43.364  32.794  0.00  0.00    +0.002 C 
ATOM      5  C   UNL     1     -14.482 -42.348  33.895  0.00  0.00    +0.002 C 
ATOM      6  C   UNL     1     -13.435 -41.319  33.586  0.00  0.00    +0.022 C 
ATOM      7  C   UNL     1     -12.557 -41.634  32.439  0.00  0.00    +0.095 C 
ATOM      8  C   UNL     1     -10.738 -42.000  33.803  0.00  0.00    +0.301 C 
ATOM      9  O   UNL     1     -10.481 -42.668  34.833  0.00  0.00    -0.253 OA
ATOM     10  N   UNL     1     -10.213 -40.685  33.728  0.00  0.00    -0.313 N 
ATOM     11  H   UNL     1     -10.392 -40.128  32.936  0.00  0.00    +0.146 HD
ATOM     12  H   UNL     1      -9.670 -40.329  34.468  0.00  0.00    +0.146 HD
ENDROOT
TORSDOF 0
REMARK  Name = =
REMARK  9 active torsions:
REMARK  status: ('A' for Active; 'I' for Inactive)
REMARK    1  A    between atoms: O_2  and  O_18
REMARK    2  A    between atoms: O_13  and  O_23
REMARK    3  A    between atoms: P_14  and  O_16
REMARK    4  A    between atoms: P_14  and  O_17
REMARK    5  A    between atoms: O_18  and  P_19
REMARK    6  A    between atoms: P_19  and  O_21
REMARK    7  A    between atoms: P_19  and  O_22
REMARK    8  A    between atoms: O_23  and  N_24
REMARK    9  A    between atoms: N_27  and  C_30
REMARK                            x       y       z     vdW  Elec       q    Type
REMARK                         _______ _______ _______ _____ _____    ______ ____
ROOT
ATOM      1  N   UNL     1     -10.178 -42.470  28.976  0.00  0.00    -0.131 NA
ATOM      2  C   UNL     1     -11.040 -43.651  28.883  0.00  0.00    +0.125 C 
ATOM      3  C   UNL     1     -12.458 -43.217  28.566  0.00  0.00    +0.111 C 
ATOM      4  N   UNL     1     -12.404 -42.620  27.244  0.00  0.00    -0.304 N 
ATOM      5  C   UNL     1     -11.102 -42.213  26.780  0.00  0.00    +0.111 C 
ATOM      6  C   UNL     1     -10.427 -41.502  27.957  0.00  0.00    +0.125 C 
ENDROOT
BRANCH   4   7
ATOM      7  C   UNL     1     -13.607 -42.485  26.524  0.00  0.00    +0.048 C 
ATOM      8  C   UNL     1     -14.773 -42.024  27.138  0.00  0.00    +0.015 C 
ATOM      9  C   UNL     1     -15.944 -41.888  26.461  0.00  0.00    +0.001 C 
ATOM     10  C   UNL     1     -16.016 -42.202  25.139  0.00  0.00    +0.000 C 
ATOM     11  C   UNL     1     -14.906 -42.661  24.474  0.00  0.00    +0.001 C 
ATOM     12  C   UNL     1     -13.713 -42.794  25.187  0.00  0.00    +0.015 C 
ENDBRANCH   4   7
BRANCH   1  13
ATOM     13  O   UNL     1     -10.368 -41.979  30.215  0.00  0.00    -0.139 OA
BRANCH  13  14
ATOM     14  O   UNL     1      -9.209 -42.310  30.870  0.00  0.00    -0.232 OA
ATOM     15  H   UNL     1      -9.253 -41.992  31.785  0.00  0.00    +0.255 HD
ENDBRANCH  13  14
ENDBRANCH   1  13
TORSDOF 3
REMARK  Name = =
REMARK  9 active torsions:
REMARK  status: ('A' for Active; 'I' for Inactive)
REMARK    1  A    between atoms: O_2  and  O_18
REMARK    2  A    between atoms: O_13  and  O_23
REMARK    3  A    between atoms: P_14  and  O_16
REMARK    4  A    between atoms: P_14  and  O_17
REMARK    5  A    between atoms: O_18  and  P_19
REMARK    6  A    between atoms: P_19  and  O_21
REMARK    7  A    between atoms: P_19  and  O_22
REMARK    8  A    between atoms: O_23  and  N_24
REMARK    9  A    between atoms: N_27  and  C_30
REMARK                            x       y       z     vdW  Elec       q    Type
REMARK                         _______ _______ _______ _____ _____    ______ ____
ROOT
ATOM      1  P   UNL     1      -7.682 -42.725  31.463  0.00  0.00    +0.359 P 
ATOM      2  O   UNL     1      -6.558 -42.019  30.758  0.00  0.00    -0.145 OA
ENDROOT
BRANCH   1   3
ATOM      3  O   UNL     1      -7.658 -42.111  33.069  0.00  0.00    -0.326 OA
ATOM      4  H   UNL     1      -8.365 -42.528  33.585  0.00  0.00    +0.219 HD
ENDBRANCH   1   3
BRANCH   1   5
ATOM      5  O   UNL     1      -7.459 -44.386  31.593  0.00  0.00    -0.326 OA
ATOM      6  H   UNL     1      -8.216 -44.779  32.055  0.00  0.00    +0.219 HD
ENDBRANCH   1   5
TORSDOF 2
