REMARK  Name = =
REMARK  0 active torsions:
REMARK  status: ('A' for Active; 'I' for Inactive)
REMARK                            x       y       z     vdW  Elec       q    Type
REMARK                         _______ _______ _______ _____ _____    ______ ____
ROOT
ATOM      1  C   UNL     1      57.624 156.009  28.371  0.00  0.00    -0.000 C 
ATOM      2  C   UNL     1      58.298 155.893  27.162  0.00  0.00    -0.004 C 
ATOM      3  C   UNL     1      58.269 156.930  26.264  0.00  0.00    -0.021 C 
ATOM      4  C   UNL     1      57.588 158.081  26.531  0.00  0.00    -0.021 C 
ATOM      5  C   UNL     1      56.914 158.213  27.726  0.00  0.00    -0.004 C 
ATOM      6  C   UNL     1      56.935 157.180  28.637  0.00  0.00    -0.000 C 
ATOM      7  C   UNL     1      57.573 159.207  25.523  0.00  0.00    +0.052 C 
ATOM      8  C   UNL     1      58.898 159.291  24.822  0.00  0.00    -0.026 C 
ATOM      9  C   UNL     1      59.536 158.161  24.576  0.00  0.00    -0.022 C 
ATOM     10  C   UNL     1      60.826 158.167  23.900  0.00  0.00    -0.005 C 
ATOM     11  C   UNL     1      61.351 159.320  23.533  0.00  0.00    -0.005 C 
ATOM     12  C   UNL     1      60.687 160.579  23.779  0.00  0.00    -0.026 C 
ATOM     13  C   UNL     1      59.409 160.633  24.462  0.00  0.00    -0.030 C 
ATOM     14  C   UNL     1      59.453 161.498  25.673  0.00  0.00    +0.026 C 
ATOM     15  C   UNL     1      60.313 162.702  25.603  0.00  0.00    +0.005 C 
ATOM     16  C   UNL     1      60.854 163.007  24.233  0.00  0.00    +0.005 C 
ATOM     17  C   UNL     1      61.435 161.813  23.543  0.00  0.00    +0.026 C 
ATOM     18  C   UNL     1      58.980 156.824  24.972  0.00  0.00    +0.052 C 
ENDROOT
TORSDOF 0
