REMARK  Name = =
REMARK  1 active torsions:
REMARK  status: ('A' for Active; 'I' for Inactive)
REMARK    1  A    between atoms: C_1  and  C_19
REMARK                            x       y       z     vdW  Elec       q    Type
REMARK                         _______ _______ _______ _____ _____    ______ ____
ROOT
ATOM      1  C   UNL     1      51.862 157.218  29.001  0.00  0.00    -0.023 C 
ATOM      2  C   UNL     1      50.882 157.323  29.957  0.00  0.00    -0.009 C 
ATOM      3  C   UNL     1      50.723 158.458  30.698  0.00  0.00    -0.022 C 
ATOM      4  C   UNL     1      51.547 159.545  30.507  0.00  0.00    -0.021 C 
ATOM      5  C   UNL     1      52.534 159.452  29.551  0.00  0.00    -0.005 C 
ATOM      6  C   UNL     1      52.694 158.292  28.798  0.00  0.00    -0.005 C 
ATOM      7  C   UNL     1      51.371 160.801  31.312  0.00  0.00    +0.052 C 
ATOM      8  C   UNL     1      49.870 160.998  31.420  0.00  0.00    -0.026 C 
ATOM      9  C   UNL     1      49.088 159.971  31.615  0.00  0.00    -0.022 C 
ATOM     10  C   UNL     1      47.652 160.143  31.719  0.00  0.00    -0.005 C 
ATOM     11  C   UNL     1      47.122 161.328  31.616  0.00  0.00    -0.005 C 
ATOM     12  C   UNL     1      47.908 162.532  31.397  0.00  0.00    -0.026 C 
ATOM     13  C   UNL     1      49.361 162.365  31.309  0.00  0.00    -0.030 C 
ATOM     14  C   UNL     1      50.147 163.255  32.246  0.00  0.00    +0.026 C 
ATOM     15  C   UNL     1      49.714 164.701  32.170  0.00  0.00    +0.005 C 
ATOM     16  C   UNL     1      48.211 164.847  32.158  0.00  0.00    +0.005 C 
ATOM     17  C   UNL     1      47.499 163.561  32.423  0.00  0.00    +0.026 C 
ATOM     18  C   UNL     1      49.659 158.575  31.751  0.00  0.00    +0.052 C 
ENDROOT
BRANCH   1  19
ATOM     19  C   UNL     1      51.995 155.965  28.223  0.00  0.00    +0.022 C 
ATOM     20  C   UNL     1      50.749 155.107  28.273  0.00  0.00    +0.004 C 
ATOM     21  C   UNL     1      50.873 154.089  27.159  0.00  0.00    +0.000 C 
ATOM     22  C   UNL     1      52.134 153.358  27.297  0.00  0.00    +0.000 C 
ATOM     23  C   UNL     1      52.716 152.757  26.071  0.00  0.00    +0.000 C 
ATOM     24  C   UNL     1      52.846 153.706  24.909  0.00  0.00    +0.000 C 
ATOM     25  C   UNL     1      53.384 152.982  23.721  0.00  0.00    +0.000 C 
ATOM     26  C   UNL     1      54.487 152.037  23.972  0.00  0.00    +0.000 C 
ATOM     27  C   UNL     1      55.000 151.966  25.370  0.00  0.00    +0.000 C 
ATOM     28  C   UNL     1      55.792 150.721  25.402  0.00  0.00    +0.000 C 
ATOM     29  C   UNL     1      55.042 149.748  24.541  0.00  0.00    +0.000 C 
ATOM     30  C   UNL     1      54.158 150.598  23.650  0.00  0.00    +0.000 C 
ATOM     31  C   UNL     1      54.065 152.247  26.412  0.00  0.00    +0.000 C 
ATOM     32  C   UNL     1      54.198 151.731  27.761  0.00  0.00    +0.000 C 
ATOM     33  C   UNL     1      54.188 152.911  28.744  0.00  0.00    +0.000 C 
ATOM     34  C   UNL     1      53.111 153.852  28.266  0.00  0.00    +0.000 C 
ATOM     35  C   UNL     1      53.105 155.093  28.754  0.00  0.00    +0.004 C 
ENDBRANCH   1  19
TORSDOF 1
