REMARK  Name = =
REMARK  3 active torsions:
REMARK  status: ('A' for Active; 'I' for Inactive)
REMARK    1  A    between atoms: C_1  and  C_19
REMARK    2  A    between atoms: C_6  and  C_36
REMARK    3  A    between atoms: C_36  and  C_38
REMARK                            x       y       z     vdW  Elec       q    Type
REMARK                         _______ _______ _______ _____ _____    ______ ____
ROOT
ATOM      1  C   UNL     1      51.609 157.177  29.194  0.00  0.00    -0.016 C 
ATOM      2  C   UNL     1      50.301 157.506  29.469  0.00  0.00    -0.008 C 
ATOM      3  C   UNL     1      49.935 158.709  30.030  0.00  0.00    -0.022 C 
ATOM      4  C   UNL     1      50.899 159.624  30.331  0.00  0.00    -0.021 C 
ATOM      5  C   UNL     1      52.220 159.332  30.071  0.00  0.00    -0.001 C 
ATOM      6  C   UNL     1      52.591 158.108  29.500  0.00  0.00    +0.038 C 
ATOM      7  C   UNL     1      50.523 160.914  30.930  0.00  0.00    +0.052 C 
ATOM      8  C   UNL     1      49.296 160.843  31.770  0.00  0.00    -0.026 C 
ATOM      9  C   UNL     1      48.388 159.954  31.448  0.00  0.00    -0.022 C 
ATOM     10  C   UNL     1      47.188 159.882  32.267  0.00  0.00    -0.005 C 
ATOM     11  C   UNL     1      47.022 160.686  33.300  0.00  0.00    -0.005 C 
ATOM     12  C   UNL     1      47.999 161.668  33.678  0.00  0.00    -0.026 C 
ATOM     13  C   UNL     1      49.198 161.777  32.889  0.00  0.00    -0.030 C 
ATOM     14  C   UNL     1      49.599 163.175  32.469  0.00  0.00    +0.026 C 
ATOM     15  C   UNL     1      48.369 163.998  32.150  0.00  0.00    +0.005 C 
ATOM     16  C   UNL     1      47.436 164.100  33.311  0.00  0.00    +0.005 C 
ATOM     17  C   UNL     1      47.499 162.945  34.257  0.00  0.00    +0.026 C 
ATOM     18  C   UNL     1      48.505 159.029  30.313  0.00  0.00    +0.052 C 
ENDROOT
BRANCH   1  19
ATOM     19  C   UNL     1      51.965 155.901  28.589  0.00  0.00    +0.044 C 
ATOM     20  C   UNL     1      50.953 154.805  28.909  0.00  0.00    +0.009 C 
ATOM     21  C   UNL     1      51.688 153.503  28.551  0.00  0.00    +0.005 C 
ATOM     22  C   UNL     1      51.873 153.463  27.075  0.00  0.00    +0.018 C 
ATOM     23  C   UNL     1      53.066 152.627  26.655  0.00  0.00    +0.004 C 
ATOM     24  C   UNL     1      52.511 151.373  26.041  0.00  0.00    +0.000 C 
ATOM     25  C   UNL     1      53.535 150.460  25.453  0.00  0.00    +0.000 C 
ATOM     26  C   UNL     1      54.495 151.180  24.531  0.00  0.00    +0.000 C 
ATOM     27  C   UNL     1      54.970 152.484  25.130  0.00  0.00    +0.000 C 
ATOM     28  C   UNL     1      55.802 151.980  26.306  0.00  0.00    +0.000 C 
ATOM     29  C   UNL     1      56.417 150.674  25.831  0.00  0.00    +0.000 C 
ATOM     30  C   UNL     1      55.775 150.378  24.485  0.00  0.00    +0.000 C 
ATOM     31  C   UNL     1      53.871 153.368  25.615  0.00  0.00    +0.001 C 
ATOM     32  C   UNL     1      53.029 153.851  24.453  0.00  0.00    +0.004 C 
ATOM     33  C   UNL     1      51.980 154.856  24.938  0.00  0.00    +0.022 C 
ATOM     34  C   UNL     1      51.951 154.804  26.443  0.00  0.00    -0.048 C 
ATOM     35  C   UNL     1      51.993 155.956  27.100  0.00  0.00    -0.031 C 
ENDBRANCH   1  19
BRANCH   6  36
ATOM     36  C   UNL     1      54.001 157.852  29.289  0.00  0.00    +0.237 C 
ATOM     37  O   UNL     1      54.424 156.668  29.052  0.00  0.00    -0.283 OA
BRANCH  36  38
ATOM     38  C   UNL     1      54.987 158.909  29.330  0.00  0.00    +0.276 C 
ATOM     39  O   UNL     1      54.831 160.112  29.551  0.00  0.00    -0.280 OA
ENDBRANCH  36  38
ENDBRANCH   6  36
TORSDOF 3
