REMARK  Name = =
REMARK  0 active torsions:
REMARK  status: ('A' for Active; 'I' for Inactive)
REMARK                            x       y       z     vdW  Elec       q    Type
REMARK                         _______ _______ _______ _____ _____    ______ ____
ROOT
ATOM      1  C   UNL     1      50.843 155.422  29.141  0.00  0.00    +0.003 C 
ATOM      2  C   UNL     1      51.566 154.892  28.085  0.00  0.00    +0.018 C 
ATOM      3  C   UNL     1      52.401 155.749  27.394  0.00  0.00    +0.081 C 
ATOM      4  N   UNL     1      52.490 157.058  27.760  0.00  0.00    -0.245 NA
ATOM      5  C   UNL     1      51.784 157.563  28.788  0.00  0.00    +0.081 C 
ATOM      6  C   UNL     1      50.939 156.748  29.507  0.00  0.00    +0.018 C 
ATOM      7  C   UNL     1      50.210 157.273  30.569  0.00  0.00    +0.001 C 
ATOM      8  C   UNL     1      50.309 158.597  30.928  0.00  0.00    +0.000 C 
ATOM      9  C   UNL     1      51.151 159.422  30.219  0.00  0.00    +0.002 C 
ATOM     10  C   UNL     1      51.872 158.895  29.164  0.00  0.00    +0.019 C 
ATOM     11  C   UNL     1      53.131 155.246  26.338  0.00  0.00    +0.018 C 
ATOM     12  C   UNL     1      53.075 153.929  25.930  0.00  0.00    +0.001 C 
ATOM     13  C   UNL     1      52.233 153.083  26.632  0.00  0.00    +0.000 C 
ATOM     14  C   UNL     1      51.491 153.570  27.697  0.00  0.00    +0.001 C 
ATOM     15  C   UNL     1      53.828 153.452  24.854  0.00  0.00    +0.000 C 
ATOM     16  C   UNL     1      54.658 154.310  24.171  0.00  0.00    +0.000 C 
ATOM     17  C   UNL     1      54.713 155.626  24.579  0.00  0.00    +0.000 C 
ATOM     18  C   UNL     1      53.968 156.095  25.642  0.00  0.00    +0.001 C 
ENDROOT
TORSDOF 0
