REMARK  Name = =
REMARK  4 active torsions:
REMARK  status: ('A' for Active; 'I' for Inactive)
REMARK    1  A    between atoms: C_1  and  N_7
REMARK    2  A    between atoms: C_2  and  O_19
REMARK    3  A    between atoms: C_5  and  C_17
REMARK    4  A    between atoms: C_6  and  O_16
REMARK                            x       y       z     vdW  Elec       q    Type
REMARK                         _______ _______ _______ _____ _____    ______ ____
ROOT
ATOM      1  C   UNL     1      52.823 154.108  27.743  0.00  0.00    +0.120 C 
ATOM      2  C   UNL     1      52.058 153.451  28.711  0.00  0.00    +0.150 C 
ATOM      3  C   UNL     1      51.289 154.173  29.601  0.00  0.00    +0.038 C 
ATOM      4  C   UNL     1      51.267 155.549  29.542  0.00  0.00    +0.010 C 
ATOM      5  C   UNL     1      52.007 156.246  28.601  0.00  0.00    +0.077 C 
ATOM      6  C   UNL     1      52.769 155.476  27.722  0.00  0.00    +0.153 C 
ENDROOT
BRANCH   1   7
ATOM      7  N   UNL     1      53.587 153.322  26.863  0.00  0.00    -0.282 N 
ATOM      8  C   UNL     1      53.295 152.005  26.428  0.00  0.00    +0.048 C 
ATOM      9  C   UNL     1      54.123 151.695  25.343  0.00  0.00    -0.007 C 
ATOM     10  C   UNL     1      54.987 152.851  25.049  0.00  0.00    +0.049 C 
ATOM     11  C   UNL     1      54.820 153.732  26.245  0.00  0.00    +0.100 C 
ATOM     12  C   UNL     1      54.081 150.478  24.693  0.00  0.00    -0.003 C 
ATOM     13  C   UNL     1      53.184 149.538  25.141  0.00  0.00    -0.000 C 
ATOM     14  C   UNL     1      52.336 149.792  26.215  0.00  0.00    +0.001 C 
ATOM     15  C   UNL     1      52.417 151.015  26.825  0.00  0.00    +0.015 C 
ENDBRANCH   1   7
BRANCH   6  16
ATOM     16  O   UNL     1      53.512 156.167  26.778  0.00  0.00    -0.504 OA
ATOM     17  H   UNL     1      54.041 155.698  26.163  0.00  0.00    +0.292 HD
ENDBRANCH   6  16
BRANCH   5  18
ATOM     18  C   UNL     1      51.987 157.692  28.535  0.00  0.00    +0.237 C 
ATOM     19  O   UNL     1      51.915 158.268  27.437  0.00  0.00    -0.283 OA
ENDBRANCH   5  18
BRANCH   2  20
ATOM     20  O   UNL     1      52.091 152.064  28.758  0.00  0.00    -0.504 OA
ATOM     21  H   UNL     1      52.618 151.587  28.147  0.00  0.00    +0.292 HD
ENDBRANCH   2  20
TORSDOF 4
