REMARK  Name = =
REMARK  1 active torsions:
REMARK  status: ('A' for Active; 'I' for Inactive)
REMARK    1  A    between atoms: C_1  and  C_19
REMARK                            x       y       z     vdW  Elec       q    Type
REMARK                         _______ _______ _______ _____ _____    ______ ____
ROOT
ATOM      1  C   UNL     1      51.909 156.252  28.633  0.00  0.00    +0.004 A 
ATOM      2  C   UNL     1      52.620 156.134  27.459  0.00  0.00    +0.018 A 
ATOM      3  C   UNL     1      53.182 157.254  26.881  0.00  0.00    +0.081 A 
ATOM      4  N   UNL     1      53.062 158.473  27.433  0.00  0.00    -0.245 NA
ATOM      5  C   UNL     1      52.359 158.598  28.599  0.00  0.00    +0.081 A 
ATOM      6  C   UNL     1      51.784 157.510  29.204  0.00  0.00    +0.018 A 
ATOM      7  C   UNL     1      51.069 157.627  30.376  0.00  0.00    +0.001 C 
ATOM      8  C   UNL     1      50.936 158.888  30.949  0.00  0.00    +0.000 C 
ATOM      9  C   UNL     1      51.503 160.005  30.367  0.00  0.00    +0.002 C 
ATOM     10  C   UNL     1      52.207 159.833  29.197  0.00  0.00    +0.019 C 
ATOM     11  C   UNL     1      53.886 157.150  25.690  0.00  0.00    +0.018 C 
ATOM     12  C   UNL     1      54.048 155.938  25.045  0.00  0.00    +0.001 C 
ATOM     13  C   UNL     1      53.478 154.815  25.635  0.00  0.00    +0.000 C 
ATOM     14  C   UNL     1      52.772 154.907  26.828  0.00  0.00    +0.001 C 
ATOM     15  C   UNL     1      54.743 155.858  23.858  0.00  0.00    +0.000 C 
ATOM     16  C   UNL     1      55.289 156.994  23.295  0.00  0.00    +0.000 C 
ATOM     17  C   UNL     1      55.145 158.226  23.914  0.00  0.00    +0.000 C 
ATOM     18  C   UNL     1      54.444 158.271  25.103  0.00  0.00    +0.001 C 
ENDROOT
BRANCH   1  19
ATOM     19  C   UNL     1      51.296 155.091  29.260  0.00  0.00    +0.019 C 
ATOM     20  C   UNL     1      50.432 155.288  30.346  0.00  0.00    +0.101 C 
ATOM     21  N   UNL     1      49.853 154.283  30.998  0.00  0.00    -0.225 NA
ATOM     22  C   UNL     1      50.092 153.002  30.617  0.00  0.00    +0.162 C 
ATOM     23  C   UNL     1      50.931 152.754  29.560  0.00  0.00    +0.036 C 
ATOM     24  C   UNL     1      51.538 153.797  28.874  0.00  0.00    +0.005 C 
ATOM     25  C   UNL     1      51.132 151.418  29.235  0.00  0.00    +0.005 C 
ATOM     26  C   UNL     1      50.508 150.407  29.956  0.00  0.00    +0.021 C 
ATOM     27  C   UNL     1      49.674 150.713  31.011  0.00  0.00    +0.101 C 
ATOM     28  N   UNL     1      49.502 152.010  31.296  0.00  0.00    -0.225 NA
ENDBRANCH   1  19
TORSDOF 1
