REMARK  Name = =
REMARK  0 active torsions:
REMARK  status: ('A' for Active; 'I' for Inactive)
REMARK                            x       y       z     vdW  Elec       q    Type
REMARK                         _______ _______ _______ _____ _____    ______ ____
ROOT
ATOM      1  C   UNL     1      52.664 157.009  27.790  0.00  0.00    +0.124 C 
ATOM      2  N   UNL     1      53.245 156.907  26.588  0.00  0.00    -0.146 NA
ATOM      3  N   UNL     1      53.429 155.765  25.976  0.00  0.00    -0.146 NA
ATOM      4  C   UNL     1      53.033 154.621  26.545  0.00  0.00    +0.122 C 
ATOM      5  C   UNL     1      52.431 154.626  27.769  0.00  0.00    +0.026 C 
ATOM      6  C   UNL     1      52.246 155.841  28.396  0.00  0.00    +0.042 C 
ATOM      7  C   UNL     1      51.636 155.857  29.642  0.00  0.00    +0.100 C 
ATOM      8  N   UNL     1      51.234 154.710  30.219  0.00  0.00    -0.242 NA
ATOM      9  C   UNL     1      51.391 153.499  29.648  0.00  0.00    +0.099 C 
ATOM     10  C   UNL     1      51.999 153.473  28.407  0.00  0.00    +0.022 C 
ENDROOT
TORSDOF 0
