REMARK  Name = =
REMARK  0 active torsions:
REMARK  status: ('A' for Active; 'I' for Inactive)
REMARK                            x       y       z     vdW  Elec       q    Type
REMARK                         _______ _______ _______ _____ _____    ______ ____
ROOT
ATOM      1  C   UNL     1      55.634 160.321  29.844  0.00  0.00    +0.000 C 
ATOM      2  C   UNL     1      55.955 161.592  30.600  0.00  0.00    +0.000 C 
ATOM      3  C   UNL     1      54.690 161.997  31.327  0.00  0.00    +0.000 C 
ATOM      4  C   UNL     1      53.840 160.785  31.240  0.00  0.00    +0.000 C 
ATOM      5  C   UNL     1      54.145 160.331  29.802  0.00  0.00    +0.000 C 
ATOM      6  C   UNL     1      53.499 159.020  29.557  0.00  0.00    +0.000 C 
ATOM      7  C   UNL     1      52.018 159.128  29.665  0.00  0.00    +0.001 C 
ATOM      8  C   UNL     1      51.524 159.934  30.818  0.00  0.00    +0.008 C 
ATOM      9  C   UNL     1      52.400 160.963  31.342  0.00  0.00    +0.001 C 
ATOM     10  C   UNL     1      51.852 162.216  31.844  0.00  0.00    +0.004 C 
ATOM     11  C   UNL     1      50.581 162.012  32.605  0.00  0.00    +0.022 C 
ATOM     12  C   UNL     1      49.680 161.033  31.908  0.00  0.00    -0.037 C 
ATOM     13  C   UNL     1      48.529 160.774  32.491  0.00  0.00    +0.034 C 
ATOM     14  C   UNL     1      47.645 159.824  31.825  0.00  0.00    +0.195 C 
ATOM     15  O   UNL     1      46.533 159.569  32.378  0.00  0.00    -0.287 OA
ATOM     16  C   UNL     1      48.043 159.203  30.572  0.00  0.00    +0.038 C 
ATOM     17  C   UNL     1      49.201 159.497  30.034  0.00  0.00    -0.019 C 
ATOM     18  C   UNL     1      50.132 160.432  30.640  0.00  0.00    +0.040 C 
ENDROOT
TORSDOF 0
