REMARK  Name = =
REMARK  1 active torsions:
REMARK  status: ('A' for Active; 'I' for Inactive)
REMARK    1  A    between atoms: N_1  and  C_9
REMARK                            x       y       z     vdW  Elec       q    Type
REMARK                         _______ _______ _______ _____ _____    ______ ____
ROOT
ATOM      1  N   UNL     1      52.300 155.275  28.232  0.00  0.00    -0.257 NA
ATOM      2  C   UNL     1      52.597 156.620  27.892  0.00  0.00    +0.090 C 
ATOM      3  C   UNL     1      52.345 157.596  29.018  0.00  0.00    +0.086 C 
ATOM      4  N   UNL     1      51.050 157.420  29.611  0.00  0.00    -0.295 NA
ATOM      5  C   UNL     1      50.831 156.066  30.036  0.00  0.00    +0.086 C 
ATOM      6  C   UNL     1      51.087 155.055  28.953  0.00  0.00    +0.090 C 
ATOM      7  H   UNL     1      50.337 157.669  28.925  0.00  0.00    +0.123 HD
ENDROOT
BRANCH   1  10
ATOM      8  C   UNL     1      53.047 154.518  24.918  0.00  0.00    +0.148 C 
ATOM      9  N   UNL     1      52.535 155.091  25.903  0.00  0.00    -0.191 NA
ATOM     10  C   UNL     1      52.342 154.394  27.097  0.00  0.00    +0.144 C 
ATOM     11  C   UNL     1      53.382 153.293  27.254  0.00  0.00    +0.093 C 
ATOM     12  S   UNL     1      53.385 152.822  25.457  0.00  0.00    -0.118 S 
ENDBRANCH   1  10
TORSDOF 1
