REMARK  Name = =
REMARK  2 active torsions:
REMARK  status: ('A' for Active; 'I' for Inactive)
REMARK    1  A    between atoms: C_1  and  C_19
REMARK    2  A    between atoms: C_19  and  N_20
REMARK                            x       y       z     vdW  Elec       q    Type
REMARK                         _______ _______ _______ _____ _____    ______ ____
ROOT
ATOM      1  C   UNL     1      55.361 162.182  30.661  0.00  0.00    +0.017 C 
ATOM      2  C   UNL     1      55.491 161.247  31.822  0.00  0.00    +0.001 C 
ATOM      3  C   UNL     1      54.159 161.423  32.565  0.00  0.00    +0.000 C 
ATOM      4  C   UNL     1      53.307 162.302  31.718  0.00  0.00    +0.000 C 
ATOM      5  C   UNL     1      53.905 162.100  30.334  0.00  0.00    +0.001 C 
ATOM      6  C   UNL     1      53.462 160.877  29.651  0.00  0.00    +0.000 C 
ATOM      7  C   UNL     1      52.433 160.049  30.333  0.00  0.00    +0.001 C 
ATOM      8  C   UNL     1      51.460 160.733  31.182  0.00  0.00    +0.008 C 
ATOM      9  C   UNL     1      51.859 162.015  31.792  0.00  0.00    +0.001 C 
ATOM     10  C   UNL     1      50.983 163.115  31.304  0.00  0.00    +0.004 C 
ATOM     11  C   UNL     1      49.593 162.904  31.871  0.00  0.00    +0.022 C 
ATOM     12  C   UNL     1      49.206 161.482  31.664  0.00  0.00    -0.037 C 
ATOM     13  C   UNL     1      48.120 161.064  32.292  0.00  0.00    +0.034 C 
ATOM     14  C   UNL     1      47.693 159.697  32.132  0.00  0.00    +0.195 C 
ATOM     15  O   UNL     1      46.648 159.296  32.737  0.00  0.00    -0.287 OA
ATOM     16  C   UNL     1      48.461 158.809  31.285  0.00  0.00    +0.038 C 
ATOM     17  C   UNL     1      49.526 159.261  30.682  0.00  0.00    -0.019 C 
ATOM     18  C   UNL     1      50.030 160.631  30.789  0.00  0.00    +0.040 C 
ENDROOT
BRANCH   1  19
ATOM     19  C   UNL     1      56.281 161.882  29.530  0.00  0.00    +0.089 C 
BRANCH  19  20
ATOM     20  N   UNL     1      56.522 163.031  28.714  0.00  0.00    -0.217 NA
ATOM     21  C   UNL     1      57.153 164.125  29.423  0.00  0.00    +0.107 C 
ENDBRANCH  19  20
ENDBRANCH   1  19
TORSDOF 2
