REMARK  Name = =
REMARK  3 active torsions:
REMARK  status: ('A' for Active; 'I' for Inactive)
REMARK    1  A    between atoms: C_3  and  C_6
REMARK    2  A    between atoms: C_3  and  N_17
REMARK    3  A    between atoms: C_10  and  O_16
REMARK                            x       y       z     vdW  Elec       q    Type
REMARK                         _______ _______ _______ _____ _____    ______ ____
ROOT
ATOM      1  C   UNL     1      49.872 155.031  29.611  0.00  0.00    +0.126 C 
ATOM      2  N   UNL     1      50.151 155.858  28.760  0.00  0.00    -0.250 NA
ATOM      3  C   UNL     1      51.408 156.504  28.729  0.00  0.00    +0.142 C 
ATOM      4  C   UNL     1      52.266 156.155  29.885  0.00  0.00    +0.101 C 
ATOM      5  S   UNL     1      51.295 154.852  30.703  0.00  0.00    -0.090 S 
ENDROOT
BRANCH   3   6
ATOM      6  C   UNL     1      51.018 157.993  28.797  0.00  0.00    +0.040 C 
ATOM      7  C   UNL     1      51.923 158.874  29.525  0.00  0.00    +0.029 C 
ATOM      8  C   UNL     1      51.301 159.697  30.590  0.00  0.00    -0.023 C 
ATOM      9  C   UNL     1      50.069 159.475  31.064  0.00  0.00    +0.008 C 
ATOM     10  C   UNL     1      49.566 160.307  32.081  0.00  0.00    +0.129 C 
ATOM     11  C   UNL     1      50.313 161.341  32.596  0.00  0.00    +0.036 C 
ATOM     12  C   UNL     1      51.579 161.577  32.114  0.00  0.00    +0.003 C 
ATOM     13  C   UNL     1      52.043 160.760  31.132  0.00  0.00    -0.004 C 
ATOM     14  C   UNL     1      49.239 158.372  30.528  0.00  0.00    +0.029 C 
ATOM     15  C   UNL     1      49.537 158.167  29.074  0.00  0.00    +0.008 C 
BRANCH  10  16
ATOM     16  O   UNL     1      48.292 160.051  32.550  0.00  0.00    -0.506 OA
ATOM     17  H   UNL     1      47.794 159.344  32.191  0.00  0.00    +0.292 HD
ENDBRANCH  10  16
ENDBRANCH   3   6
BRANCH   3  18
ATOM     18  N   UNL     1      51.978 156.212  27.458  0.00  0.00    -0.254 NA
ATOM     19  C   UNL     1      53.184 156.806  27.061  0.00  0.00    +0.091 C 
ATOM     20  C   UNL     1      53.732 156.157  25.793  0.00  0.00    +0.086 C 
ATOM     21  N   UNL     1      53.926 154.763  25.903  0.00  0.00    -0.295 NA
ATOM     22  C   UNL     1      53.138 154.115  26.923  0.00  0.00    +0.086 C 
ATOM     23  C   UNL     1      51.812 154.861  27.011  0.00  0.00    +0.091 C 
ATOM     24  H   UNL     1      54.911 154.596  26.111  0.00  0.00    +0.123 HD
ENDBRANCH   3  18
TORSDOF 3
