REMARK  Name = =
REMARK  5 active torsions:
REMARK  status: ('A' for Active; 'I' for Inactive)
REMARK    1  A    between atoms: C_1  and  S_19
REMARK    2  A    between atoms: C_1  and  C_24
REMARK    3  A    between atoms: S_19  and  S_20
REMARK    4  A    between atoms: S_19  and  C_22
REMARK    5  A    between atoms: C_24  and  N_25
REMARK                            x       y       z     vdW  Elec       q    Type
REMARK                         _______ _______ _______ _____ _____    ______ ____
ROOT
ATOM      1  C   UNL     1      54.512 162.592  31.864  0.00  0.00    +0.052 C 
ATOM      2  C   UNL     1      54.127 164.057  31.867  0.00  0.00    +0.011 C 
ATOM      3  C   UNL     1      52.641 164.115  31.513  0.00  0.00    +0.001 C 
ATOM      4  C   UNL     1      52.275 162.705  31.250  0.00  0.00    +0.001 C 
ATOM      5  C   UNL     1      53.178 161.951  32.181  0.00  0.00    +0.010 C 
ATOM      6  C   UNL     1      53.096 160.511  31.887  0.00  0.00    +0.001 C 
ATOM      7  C   UNL     1      51.927 160.038  31.130  0.00  0.00    +0.001 C 
ATOM      8  C   UNL     1      50.697 160.864  31.185  0.00  0.00    +0.008 C 
ATOM      9  C   UNL     1      50.881 162.302  31.481  0.00  0.00    +0.001 C 
ATOM     10  C   UNL     1      50.353 162.564  32.870  0.00  0.00    +0.004 C 
ATOM     11  C   UNL     1      48.844 162.490  32.767  0.00  0.00    +0.022 C 
ATOM     12  C   UNL     1      48.468 161.209  32.066  0.00  0.00    -0.037 C 
ATOM     13  C   UNL     1      47.222 161.035  31.643  0.00  0.00    +0.034 C 
ATOM     14  C   UNL     1      46.881 159.810  30.979  0.00  0.00    +0.195 C 
ATOM     15  O   UNL     1      45.698 159.582  30.547  0.00  0.00    -0.287 OA
ATOM     16  C   UNL     1      47.887 158.786  30.780  0.00  0.00    +0.038 C 
ATOM     17  C   UNL     1      49.109 158.986  31.208  0.00  0.00    -0.019 C 
ATOM     18  C   UNL     1      49.538 160.211  31.895  0.00  0.00    +0.040 C 
ENDROOT
BRANCH   1  19
ATOM     19  S   UNL     1      55.177 162.164  30.357  0.00  0.00    -0.126 S 
ATOM     20  H   UNL     1      55.570 160.876  30.163  0.00  0.00    +0.101 HD
BRANCH  19  21
ATOM     21  S   UNL     1      56.531 163.200  30.247  0.00  0.00    +0.164 S 
ATOM     22  O   UNL     1      56.920 164.168  29.530  0.00  0.00    -0.233 OA
ENDBRANCH  19  21
BRANCH  19  23
ATOM     23  C   UNL     1      53.916 162.504  29.201  0.00  0.00    +0.022 C 
ATOM     24  C   UNL     1      53.945 163.576  28.421  0.00  0.00    +0.006 C 
ENDBRANCH  19  23
ENDBRANCH   1  19
BRANCH   1  25
ATOM     25  C   UNL     1      55.475 162.286  32.999  0.00  0.00    +0.098 C 
BRANCH  25  26
ATOM     26  N   UNL     1      56.399 161.247  32.661  0.00  0.00    -0.216 NA
ATOM     27  C   UNL     1      57.725 161.463  33.198  0.00  0.00    +0.107 C 
ENDBRANCH  25  26
ENDBRANCH   1  25
TORSDOF 5
