REMARK  Name = =
REMARK  4 active torsions:
REMARK  status: ('A' for Active; 'I' for Inactive)
REMARK    1  A    between atoms: C_3  and  C_6
REMARK    2  A    between atoms: C_3  and  N_17
REMARK    3  A    between atoms: C_10  and  O_16
REMARK    4  A    between atoms: C_18  and  C_23
REMARK                            x       y       z     vdW  Elec       q    Type
REMARK                         _______ _______ _______ _____ _____    ______ ____
ROOT
ATOM      1  C   UNL     1      48.951 155.584  29.365  0.00  0.00    +0.147 C 
ATOM      2  N   UNL     1      49.901 155.998  28.691  0.00  0.00    -0.193 NA
ATOM      3  C   UNL     1      51.149 156.314  29.307  0.00  0.00    +0.117 C 
ATOM      4  C   UNL     1      51.321 155.314  30.494  0.00  0.00    +0.090 C 
ATOM      5  S   UNL     1      49.557 155.517  31.071  0.00  0.00    -0.119 S 
ENDROOT
BRANCH   3   6
ATOM      6  C   UNL     1      50.934 157.669  29.936  0.00  0.00    +0.034 C 
ATOM      7  C   UNL     1      49.720 158.402  29.475  0.00  0.00    +0.029 C 
ATOM      8  C   UNL     1      49.424 159.404  30.571  0.00  0.00    -0.023 C 
ATOM      9  C   UNL     1      50.472 160.200  30.964  0.00  0.00    +0.008 C 
ATOM     10  C   UNL     1      50.325 161.156  31.966  0.00  0.00    +0.129 C 
ATOM     11  C   UNL     1      49.098 161.302  32.574  0.00  0.00    +0.036 C 
ATOM     12  C   UNL     1      48.039 160.499  32.177  0.00  0.00    +0.003 C 
ATOM     13  C   UNL     1      48.197 159.539  31.166  0.00  0.00    -0.004 C 
ATOM     14  C   UNL     1      51.770 160.013  30.283  0.00  0.00    +0.029 C 
ATOM     15  C   UNL     1      52.108 158.567  29.983  0.00  0.00    +0.008 C 
BRANCH  10  16
ATOM     16  O   UNL     1      51.391 161.957  32.358  0.00  0.00    -0.506 OA
ATOM     17  H   UNL     1      52.227 161.859  31.946  0.00  0.00    +0.292 HD
ENDBRANCH  10  16
ENDBRANCH   3   6
BRANCH   3  18
ATOM     18  N   UNL     1      52.184 156.170  28.383  0.00  0.00    -0.260 NA
ATOM     19  C   UNL     1      52.048 155.548  27.146  0.00  0.00    +0.074 C 
ATOM     20  C   UNL     1      52.425 156.572  26.059  0.00  0.00    +0.085 C 
ATOM     21  N   UNL     1      53.079 157.713  26.611  0.00  0.00    -0.295 NA
ATOM     22  C   UNL     1      54.089 157.358  27.598  0.00  0.00    +0.086 C 
ATOM     23  C   UNL     1      53.484 156.618  28.774  0.00  0.00    +0.090 C 
ATOM     24  H   UNL     1      52.380 158.306  27.058  0.00  0.00    +0.123 HD
BRANCH  19  25
ATOM     25  C   UNL     1      52.968 154.358  26.912  0.00  0.00    +0.016 C 
ATOM     26  C   UNL     1      52.625 153.146  27.740  0.00  0.00    +0.001 C 
ATOM     27  C   UNL     1      53.005 151.994  26.764  0.00  0.00    +0.000 C 
ATOM     28  C   UNL     1      52.228 152.557  25.556  0.00  0.00    +0.000 C 
ATOM     29  C   UNL     1      52.973 153.902  25.469  0.00  0.00    +0.001 C 
ATOM     30  C   UNL     1      54.377 153.309  25.230  0.00  0.00    +0.000 C 
ATOM     31  C   UNL     1      54.430 152.281  26.345  0.00  0.00    +0.000 C 
ENDBRANCH  19  25
ENDBRANCH   3  18
TORSDOF 4
