REMARK  Name = =
REMARK  2 active torsions:
REMARK  status: ('A' for Active; 'I' for Inactive)
REMARK    1  A    between atoms: N_1  and  C_6
REMARK    2  A    between atoms: C_3  and  N_8
REMARK                            x       y       z     vdW  Elec       q    Type
REMARK                         _______ _______ _______ _____ _____    ______ ____
ROOT
ATOM      1  N   UNL     1      -3.889  -3.829  31.258  0.00  0.00    -0.243 NA
ATOM      2  C   UNL     1      -4.489  -2.518  31.364  0.00  0.00    +0.094 C 
ATOM      3  C   UNL     1      -5.223  -2.469  32.666  0.00  0.00    +0.090 C 
ATOM      4  C   UNL     1      -5.316  -3.946  33.020  0.00  0.00    +0.039 C 
ATOM      5  C   UNL     1      -3.923  -4.402  32.586  0.00  0.00    +0.076 C 
ENDROOT
BRANCH   3   6
ATOM      6  N   UNL     1      -6.478  -1.844  32.519  0.00  0.00    -0.304 N 
ATOM      7  C   UNL     1      -7.486  -2.501  31.788  0.00  0.00    +0.112 C 
ATOM      8  C   UNL     1      -8.751  -1.663  31.650  0.00  0.00    +0.109 C 
ATOM      9  N   UNL     1      -8.392  -0.447  30.964  0.00  0.00    -0.329 N 
ATOM     10  C   UNL     1      -7.498   0.299  31.781  0.00  0.00    +0.074 C 
ATOM     11  C   UNL     1      -6.416  -0.430  32.469  0.00  0.00    +0.077 C 
ATOM     12  H   UNL     1      -8.714  -0.177  30.074  0.00  0.00    +0.147 HD
ENDBRANCH   3   6
BRANCH   1  13
ATOM     13  C   UNL     1      -3.366  -4.449  30.115  0.00  0.00    +0.259 C 
ATOM     14  O   UNL     1      -2.869  -5.637  30.168  0.00  0.00    -0.201 OA
ENDBRANCH   1  13
TORSDOF 2
