REMARK  Name = =
REMARK  6 active torsions:
REMARK  status: ('A' for Active; 'I' for Inactive)
REMARK    1  A    between atoms: C_1  and  C_8
REMARK    2  A    between atoms: C_2  and  O_15
REMARK    3  A    between atoms: C_3  and  O_14
REMARK    4  A    between atoms: N_7  and  O_10
REMARK    5  A    between atoms: O_10  and  C_11
REMARK    6  A    between atoms: C_11  and  O_13
REMARK                            x       y       z     vdW  Elec       q    Type
REMARK                         _______ _______ _______ _____ _____    ______ ____
ROOT
ATOM      1  C   UNL     1     -14.060 -42.671  26.149  0.00  0.00    +0.093 C 
ATOM      2  C   UNL     1     -14.062 -43.791  25.340  0.00  0.00    +0.172 C 
ATOM      3  C   UNL     1     -14.597 -43.631  24.045  0.00  0.00    +0.168 C 
ATOM      4  C   UNL     1     -15.091 -42.466  23.582  0.00  0.00    +0.040 C 
ATOM      5  C   UNL     1     -15.072 -41.382  24.413  0.00  0.00    +0.003 C 
ATOM      6  C   UNL     1     -14.569 -41.455  25.682  0.00  0.00    +0.008 C 
ENDROOT
BRANCH   1   8
ATOM      7  N   UNL     1     -12.306 -42.095  27.902  0.00  0.00    -0.138 N 
ATOM      8  C   UNL     1     -13.527 -42.716  27.526  0.00  0.00    +0.280 C 
ATOM      9  O   UNL     1     -14.204 -43.339  28.389  0.00  0.00    -0.267 OA
ATOM     10  H   UNL     1     -11.766 -41.605  27.240  0.00  0.00    +0.196 HD
BRANCH   7  11
ATOM     11  O   UNL     1     -11.887 -42.195  29.232  0.00  0.00    -0.314 OA
BRANCH  11  12
ATOM     12  C   UNL     1     -10.845 -43.091  29.545  0.00  0.00    +0.531 C 
ATOM     13  O   UNL     1     -10.771 -44.138  28.849  0.00  0.00    -0.201 OA
BRANCH  12  14
ATOM     14  O   UNL     1      -9.930 -42.890  30.541  0.00  0.00    -0.448 OA
ATOM     15  H   UNL     1      -9.261 -43.527  30.698  0.00  0.00    +0.299 HD
ENDBRANCH  12  14
ENDBRANCH  11  12
ENDBRANCH   7  11
ENDBRANCH   1   8
BRANCH   3  16
ATOM     16  O   UNL     1     -14.601 -44.764  23.221  0.00  0.00    -0.503 OA
ATOM     17  H   UNL     1     -14.258 -45.576  23.539  0.00  0.00    +0.292 HD
ENDBRANCH   3  16
BRANCH   2  18
ATOM     18  O   UNL     1     -13.587 -45.026  25.697  0.00  0.00    -0.503 OA
ATOM     19  H   UNL     1     -13.226 -45.160  26.551  0.00  0.00    +0.292 HD
ENDBRANCH   2  18
TORSDOF 6
