REMARK  Name = =
REMARK  11 active torsions:
REMARK  status: ('A' for Active; 'I' for Inactive)
REMARK    1  A    between atoms: C_1  and  O_20
REMARK    2  A    between atoms: C_2  and  C_18
REMARK    3  A    between atoms: C_5  and  O_16
REMARK    4  A    between atoms: C_14  and  O_17
REMARK    5  A    between atoms: O_20  and  O_21
REMARK    6  A    between atoms: O_21  and  C_23
REMARK    7  A    between atoms: C_22  and  C_29
REMARK    8  A    between atoms: C_24  and  O_35
REMARK    9  A    between atoms: N_28  and  O_31
REMARK   10  A    between atoms: O_31  and  C_32
REMARK   11  A    between atoms: C_32  and  O_34
REMARK                            x       y       z     vdW  Elec       q    Type
REMARK                         _______ _______ _______ _____ _____    ______ ____
ROOT
ATOM      1  C   UNL     1     -12.231 -43.081  27.939  0.00  0.00    +0.202 C 
ATOM      2  C   UNL     1     -12.470 -43.022  29.331  0.00  0.00    +0.081 C 
ATOM      3  C   UNL     1     -11.426 -42.858  30.232  0.00  0.00    +0.012 C 
ATOM      4  C   UNL     1     -10.116 -42.750  29.785  0.00  0.00    +0.068 C 
ATOM      5  C   UNL     1      -9.048 -42.573  30.676  0.00  0.00    +0.139 C 
ATOM      6  C   UNL     1      -9.358 -42.512  32.026  0.00  0.00    +0.064 C 
ATOM      7  C   UNL     1     -10.623 -42.611  32.532  0.00  0.00    -0.016 C 
ATOM      8  C   UNL     1     -11.650 -42.788  31.589  0.00  0.00    -0.004 C 
ATOM      9  C   UNL     1     -10.997 -42.540  33.966  0.00  0.00    +0.027 C 
ATOM     10  C   UNL     1      -9.794 -42.568  34.858  0.00  0.00    +0.013 C 
ATOM     11  C   UNL     1      -8.723 -41.635  34.275  0.00  0.00    +0.070 C 
ATOM     12  C   UNL     1      -8.276 -42.335  33.017  0.00  0.00    +0.176 C 
ATOM     13  O   UNL     1      -7.137 -42.733  32.803  0.00  0.00    -0.291 OA
ATOM     14  C   UNL     1      -9.849 -42.802  28.451  0.00  0.00    +0.140 C 
ATOM     15  C   UNL     1     -10.906 -42.966  27.566  0.00  0.00    +0.079 C 
ENDROOT
BRANCH   5  16
ATOM     16  O   UNL     1      -7.776 -42.463  30.269  0.00  0.00    -0.505 OA
ATOM     17  H   UNL     1      -7.571 -42.505  29.356  0.00  0.00    +0.292 HD
ENDBRANCH   5  16
BRANCH  14  18
ATOM     18  O   UNL     1      -8.586 -42.701  27.951  0.00  0.00    -0.505 OA
ATOM     19  H   UNL     1      -7.860 -42.590  28.532  0.00  0.00    +0.292 HD
ENDBRANCH  14  18
BRANCH   2  20
ATOM     20  C   UNL     1     -13.827 -43.155  29.752  0.00  0.00    +0.237 C 
ATOM     21  O   UNL     1     -14.201 -43.287  30.917  0.00  0.00    -0.283 OA
ENDBRANCH   2  20
BRANCH   1  22
ATOM     22  O   UNL     1     -13.166 -43.233  26.990  0.00  0.00    -0.286 OA
BRANCH  22  23
ATOM     23  O   UNL     1     -14.234 -42.855  26.520  0.00  0.00    -0.283 OA
BRANCH  23  25
ATOM     24  C   UNL     1     -16.108 -42.011  25.357  0.00  0.00    +0.098 C 
ATOM     25  C   UNL     1     -14.760 -42.248  25.416  0.00  0.00    +0.233 C 
ATOM     26  C   UNL     1     -13.909 -41.878  24.370  0.00  0.00    +0.173 C 
ATOM     27  C   UNL     1     -14.396 -41.264  23.246  0.00  0.00    +0.040 C 
ATOM     28  C   UNL     1     -15.750 -41.014  23.162  0.00  0.00    +0.003 C 
ATOM     29  C   UNL     1     -16.564 -41.383  24.195  0.00  0.00    +0.008 C 
BRANCH  24  31
ATOM     30  N   UNL     1     -17.008 -42.132  27.744  0.00  0.00    -0.138 N 
ATOM     31  C   UNL     1     -17.076 -42.366  26.367  0.00  0.00    +0.280 C 
ATOM     32  O   UNL     1     -18.154 -42.978  26.000  0.00  0.00    -0.267 OA
ATOM     33  H   UNL     1     -16.218 -41.668  28.103  0.00  0.00    +0.196 HD
BRANCH  30  34
ATOM     34  O   UNL     1     -17.995 -42.521  28.619  0.00  0.00    -0.314 OA
BRANCH  34  35
ATOM     35  C   UNL     1     -19.336 -42.327  28.364  0.00  0.00    +0.531 C 
ATOM     36  O   UNL     1     -19.716 -41.418  27.589  0.00  0.00    -0.201 OA
BRANCH  35  37
ATOM     37  O   UNL     1     -20.336 -43.115  28.942  0.00  0.00    -0.448 OA
ATOM     38  H   UNL     1     -21.236 -42.950  28.742  0.00  0.00    +0.299 HD
ENDBRANCH  35  37
ENDBRANCH  34  35
ENDBRANCH  30  34
ENDBRANCH  24  31
BRANCH  26  39
ATOM     39  O   UNL     1     -12.541 -42.150  24.493  0.00  0.00    -0.503 OA
ATOM     40  H   UNL     1     -12.214 -42.570  25.264  0.00  0.00    +0.292 HD
ENDBRANCH  26  39
ENDBRANCH  23  25
ENDBRANCH  22  23
ENDBRANCH   1  22
TORSDOF 11
