REMARK  Name = =
REMARK  13 active torsions:
REMARK  status: ('A' for Active; 'I' for Inactive)
REMARK    1  A    between atoms: C_1  and  O_27
REMARK    2  A    between atoms: C_2  and  C_18
REMARK    3  A    between atoms: C_5  and  O_16
REMARK    4  A    between atoms: C_14  and  O_17
REMARK    5  A    between atoms: C_18  and  C_20
REMARK    6  A    between atoms: C_21  and  N_26
REMARK    7  A    between atoms: O_27  and  O_28
REMARK    8  A    between atoms: O_28  and  C_30
REMARK    9  A    between atoms: C_29  and  C_36
REMARK   10  A    between atoms: C_31  and  O_42
REMARK   11  A    between atoms: N_35  and  O_38
REMARK   12  A    between atoms: O_38  and  C_39
REMARK   13  A    between atoms: C_39  and  O_41
REMARK                            x       y       z     vdW  Elec       q    Type
REMARK                         _______ _______ _______ _____ _____    ______ ____
ROOT
ATOM      1  C   UNL     1     -12.754 -43.651  29.036  0.00  0.00    +0.202 C 
ATOM      2  C   UNL     1     -14.121 -43.593  29.448  0.00  0.00    +0.078 C 
ATOM      3  C   UNL     1     -15.090 -43.097  28.629  0.00  0.00    +0.012 C 
ATOM      4  C   UNL     1     -14.687 -42.651  27.387  0.00  0.00    +0.068 C 
ATOM      5  C   UNL     1     -15.653 -42.132  26.514  0.00  0.00    +0.139 C 
ATOM      6  C   UNL     1     -16.988 -42.087  26.932  0.00  0.00    +0.064 C 
ATOM      7  C   UNL     1     -17.385 -42.529  28.157  0.00  0.00    -0.016 C 
ATOM      8  C   UNL     1     -16.419 -43.038  29.013  0.00  0.00    -0.004 C 
ATOM      9  C   UNL     1     -18.770 -42.530  28.679  0.00  0.00    +0.027 C 
ATOM     10  C   UNL     1     -19.809 -42.176  27.639  0.00  0.00    +0.013 C 
ATOM     11  C   UNL     1     -19.298 -41.112  26.693  0.00  0.00    +0.070 C 
ATOM     12  C   UNL     1     -18.039 -41.556  26.034  0.00  0.00    +0.176 C 
ATOM     13  O   UNL     1     -17.844 -41.503  24.817  0.00  0.00    -0.291 OA
ATOM     14  C   UNL     1     -13.374 -42.688  26.947  0.00  0.00    +0.140 C 
ATOM     15  C   UNL     1     -12.389 -43.203  27.801  0.00  0.00    +0.079 C 
ENDROOT
BRANCH   5  16
ATOM     16  O   UNL     1     -15.255 -41.694  25.297  0.00  0.00    -0.505 OA
ATOM     17  H   UNL     1     -15.883 -41.343  24.697  0.00  0.00    +0.292 HD
ENDBRANCH   5  16
BRANCH  14  18
ATOM     18  O   UNL     1     -13.049 -42.220  25.679  0.00  0.00    -0.505 OA
ATOM     19  H   UNL     1     -13.719 -41.879  25.120  0.00  0.00    +0.292 HD
ENDBRANCH  14  18
BRANCH   2  20
ATOM     20  C   UNL     1     -14.418 -44.062  30.782  0.00  0.00    +0.203 C 
ATOM     21  O   UNL     1     -14.536 -45.320  30.941  0.00  0.00    -0.286 OA
BRANCH  20  22
ATOM     22  C   UNL     1     -14.590 -43.191  31.926  0.00  0.00    +0.089 C 
ATOM     23  C   UNL     1     -14.618 -43.702  33.210  0.00  0.00    +0.132 C 
ATOM     24  N   UNL     1     -14.744 -42.860  34.258  0.00  0.00    -0.209 NA
ATOM     25  C   UNL     1     -14.846 -41.532  34.123  0.00  0.00    +0.200 C 
ATOM     26  N   UNL     1     -14.818 -41.032  32.862  0.00  0.00    -0.222 NA
ATOM     27  C   UNL     1     -14.693 -41.830  31.778  0.00  0.00    +0.107 C 
BRANCH  23  28
ATOM     28  N   UNL     1     -14.512 -45.084  33.453  0.00  0.00    -0.342 N 
ATOM     29  H   UNL     1     -14.420 -45.711  32.699  0.00  0.00    +0.144 HD
ATOM     30  H   UNL     1     -14.530 -45.424  34.377  0.00  0.00    +0.144 HD
ENDBRANCH  23  28
ENDBRANCH  20  22
ENDBRANCH   2  20
BRANCH   1  31
ATOM     31  O   UNL     1     -11.834 -44.166  29.905  0.00  0.00    -0.286 OA
BRANCH  31  32
ATOM     32  O   UNL     1     -11.088 -43.564  30.787  0.00  0.00    -0.283 OA
BRANCH  32  34
ATOM     33  C   UNL     1      -9.210 -43.345  32.265  0.00  0.00    +0.098 C 
ATOM     34  C   UNL     1      -9.723 -43.672  31.031  0.00  0.00    +0.233 C 
ATOM     35  C   UNL     1      -8.841 -44.116  30.034  0.00  0.00    +0.173 C 
ATOM     36  C   UNL     1      -7.466 -44.230  30.266  0.00  0.00    +0.040 C 
ATOM     37  C   UNL     1      -6.981 -43.905  31.487  0.00  0.00    +0.003 C 
ATOM     38  C   UNL     1      -7.840 -43.476  32.450  0.00  0.00    +0.008 C 
BRANCH  33  40
ATOM     39  N   UNL     1     -11.278 -42.251  33.315  0.00  0.00    -0.138 N 
ATOM     40  C   UNL     1      -9.995 -42.829  33.362  0.00  0.00    +0.280 C 
ATOM     41  O   UNL     1      -9.502 -42.878  34.565  0.00  0.00    -0.267 OA
ATOM     42  H   UNL     1     -11.738 -42.171  32.448  0.00  0.00    +0.196 HD
BRANCH  39  43
ATOM     43  O   UNL     1     -11.915 -41.787  34.476  0.00  0.00    -0.314 OA
BRANCH  43  44
ATOM     44  C   UNL     1     -11.347 -40.668  35.096  0.00  0.00    +0.531 C 
ATOM     45  O   UNL     1     -10.210 -40.299  34.687  0.00  0.00    -0.201 OA
BRANCH  44  46
ATOM     46  O   UNL     1     -11.947 -39.951  36.112  0.00  0.00    -0.448 OA
ATOM     47  H   UNL     1     -11.510 -39.210  36.484  0.00  0.00    +0.299 HD
ENDBRANCH  44  46
ENDBRANCH  43  44
ENDBRANCH  39  43
ENDBRANCH  33  40
BRANCH  35  48
ATOM     48  O   UNL     1      -9.238 -44.470  28.766  0.00  0.00    -0.503 OA
ATOM     49  H   UNL     1      -8.604 -44.760  28.140  0.00  0.00    +0.292 HD
ENDBRANCH  35  48
ENDBRANCH  32  34
ENDBRANCH  31  32
ENDBRANCH   1  31
TORSDOF 13
