REMARK  Name = =
REMARK  3 active torsions:
REMARK  status: ('A' for Active; 'I' for Inactive)
REMARK    1  A    between atoms: C_1  and  O_17
REMARK    2  A    between atoms: C_2  and  O_18
REMARK    3  A    between atoms: C_4  and  C_7
REMARK                            x       y       z     vdW  Elec       q    Type
REMARK                         _______ _______ _______ _____ _____    ______ ____
ROOT
ATOM      1  C   UNL     1      -2.584  -1.682  29.324  0.00  0.00    +0.202 C 
ATOM      2  C   UNL     1      -1.455  -1.973  28.621  0.00  0.00    +0.170 C 
ATOM      3  C   UNL     1      -1.060  -3.306  28.498  0.00  0.00    +0.044 C 
ATOM      4  C   UNL     1      -1.763  -4.354  29.058  0.00  0.00    +0.057 C 
ATOM      5  C   UNL     1      -2.891  -4.025  29.754  0.00  0.00    +0.008 C 
ATOM      6  C   UNL     1      -3.312  -2.696  29.895  0.00  0.00    +0.043 C 
ENDROOT
BRANCH   4   7
ATOM      7  C   UNL     1      -1.328  -5.691  28.834  0.00  0.00    +0.255 C 
ATOM      8  N   UNL     1      -1.457  -6.841  29.613  0.00  0.00    -0.226 N 
ATOM      9  C   UNL     1      -1.043  -8.131  29.083  0.00  0.00    +0.101 C 
ATOM     10  C   UNL     1      -1.591  -9.280  29.875  0.00  0.00    +0.022 C 
ATOM     11  C   UNL     1      -2.913  -9.062  30.540  0.00  0.00    +0.011 C 
ATOM     12  C   UNL     1      -3.013  -7.798  31.360  0.00  0.00    +0.086 C 
ATOM     13  C   UNL     1      -1.909  -6.844  30.942  0.00  0.00    +0.232 C 
ATOM     14  O   UNL     1      -1.371  -6.043  31.764  0.00  0.00    -0.274 OA
ATOM     15  O   UNL     1      -0.697  -5.870  27.695  0.00  0.00    -0.269 OA
ENDBRANCH   4   7
BRANCH   1  17
ATOM     16  N   UNL     1      -4.069  -0.021  30.270  0.00  0.00    +0.111 NA
ATOM     17  O   UNL     1      -3.011  -0.375  29.471  0.00  0.00    -0.362 OA
ENDBRANCH   1  17
BRANCH   2  18
ATOM     18  O   UNL     1      -0.730  -0.946  28.050  0.00  0.00    -0.503 OA
ATOM     19  H   UNL     1      -1.017  -0.059  28.147  0.00  0.00    +0.292 HD
ENDBRANCH   2  18
TORSDOF 3
