REMARK  Name = =
REMARK  0 active torsions:
REMARK  status: ('A' for Active; 'I' for Inactive)
REMARK                            x       y       z     vdW  Elec       q    Type
REMARK                         _______ _______ _______ _____ _____    ______ ____
ROOT
ATOM      1  C   UNL     1      51.684 156.172  28.035  0.00  0.00    -0.000 C 
ATOM      2  C   UNL     1      52.795 155.204  27.956  0.00  0.00    -0.004 C 
ATOM      3  C   UNL     1      52.228 153.960  27.816  0.00  0.00    -0.018 C 
ATOM      4  C   UNL     1      50.774 154.072  27.799  0.00  0.00    -0.004 C 
ATOM      5  C   UNL     1      50.437 155.395  27.929  0.00  0.00    -0.000 C 
ATOM      6  C   UNL     1      49.114 155.816  27.947  0.00  0.00    -0.000 C 
ATOM      7  C   UNL     1      48.145 154.863  27.829  0.00  0.00    -0.000 C 
ATOM      8  C   UNL     1      48.495 153.517  27.696  0.00  0.00    -0.000 C 
ATOM      9  C   UNL     1      49.798 153.107  27.680  0.00  0.00    -0.000 C 
ATOM     10  C   UNL     1      53.104 152.879  27.721  0.00  0.00    +0.052 C 
ATOM     11  C   UNL     1      54.474 153.002  27.761  0.00  0.00    -0.021 C 
ATOM     12  C   UNL     1      55.017 154.261  27.902  0.00  0.00    -0.004 C 
ATOM     13  C   UNL     1      54.160 155.362  28.000  0.00  0.00    -0.001 C 
ENDROOT
TORSDOF 0
