REMARK  Name = =
REMARK  1 active torsions:
REMARK  status: ('A' for Active; 'I' for Inactive)
REMARK    1  A    between atoms: C_1  and  C_14
REMARK                            x       y       z     vdW  Elec       q    Type
REMARK                         _______ _______ _______ _____ _____    ______ ____
ROOT
ATOM      1  C   UNL     1      52.781 157.278  27.764  0.00  0.00    +0.072 C 
ATOM      2  C   UNL     1      52.662 155.922  27.242  0.00  0.00    -0.016 C 
ATOM      3  C   UNL     1      51.629 155.291  27.869  0.00  0.00    -0.004 C 
ATOM      4  C   UNL     1      50.974 156.200  28.791  0.00  0.00    -0.004 C 
ATOM      5  C   UNL     1      51.650 157.409  28.700  0.00  0.00    -0.016 C 
ATOM      6  C   UNL     1      51.161 158.451  29.481  0.00  0.00    -0.004 C 
ATOM      7  C   UNL     1      50.067 158.270  30.294  0.00  0.00    -0.000 C 
ATOM      8  C   UNL     1      49.394 157.079  30.392  0.00  0.00    -0.000 C 
ATOM      9  C   UNL     1      49.871 156.043  29.621  0.00  0.00    -0.000 C 
ATOM     10  C   UNL     1      51.294 153.961  27.584  0.00  0.00    -0.000 C 
ATOM     11  C   UNL     1      52.024 153.275  26.650  0.00  0.00    -0.000 C 
ATOM     12  C   UNL     1      53.087 153.920  26.001  0.00  0.00    -0.000 C 
ATOM     13  C   UNL     1      53.401 155.219  26.291  0.00  0.00    -0.004 C 
ENDROOT
BRANCH   1  14
ATOM     14  C   UNL     1      54.140 157.538  28.375  0.00  0.00    +0.124 C 
ATOM     15  O   UNL     1      55.109 157.716  27.401  0.00  0.00    -0.348 OA
ATOM     16  C   UNL     1      55.409 159.047  27.117  0.00  0.00    +0.206 C 
ATOM     17  C   UNL     1      55.813 159.777  28.336  0.00  0.00    +0.180 C 
ATOM     18  O   UNL     1      56.389 160.817  28.276  0.00  0.00    -0.293 OA
ATOM     19  C   UNL     1      55.472 159.159  29.631  0.00  0.00    +0.070 C 
ATOM     20  C   UNL     1      54.042 158.614  29.391  0.00  0.00    +0.038 C 
ENDBRANCH   1  14
TORSDOF 1
