REMARK  Name = =
REMARK  5 active torsions:
REMARK  status: ('A' for Active; 'I' for Inactive)
REMARK    1  A    between atoms: C_1  and  C_7
REMARK    2  A    between atoms: C_1  and  C_8
REMARK    3  A    between atoms: C_1  and  O_21
REMARK    4  A    between atoms: C_4  and  O_38
REMARK    5  A    between atoms: O_21  and  C_24
REMARK                            x       y       z     vdW  Elec       q    Type
REMARK                         _______ _______ _______ _____ _____    ______ ____
ROOT
ATOM      1  C   UNL     1      52.917 155.441  28.414  0.00  0.00    +0.081 C 
ATOM      2  C   UNL     1      53.367 155.996  27.121  0.00  0.00    -0.029 C 
ATOM      3  C   UNL     1      52.999 155.165  26.092  0.00  0.00    +0.073 C 
ATOM      4  C   UNL     1      52.374 154.001  26.720  0.00  0.00    +0.016 C 
ATOM      5  C   UNL     1      52.350 154.097  28.086  0.00  0.00    -0.016 C 
ATOM      6  C   UNL     1      51.844 153.080  28.896  0.00  0.00    -0.004 C 
ATOM      7  C   UNL     1      51.351 151.942  28.291  0.00  0.00    +0.003 C 
ATOM      8  C   UNL     1      51.362 151.825  26.918  0.00  0.00    +0.037 C 
ATOM      9  C   UNL     1      51.868 152.842  26.129  0.00  0.00    +0.135 C 
ATOM     10  C   UNL     1      53.287 155.496  24.778  0.00  0.00    +0.019 C 
ATOM     11  C   UNL     1      53.946 156.654  24.449  0.00  0.00    +0.004 C 
ATOM     12  C   UNL     1      54.317 157.488  25.474  0.00  0.00    -0.000 C 
ATOM     13  C   UNL     1      54.027 157.155  26.790  0.00  0.00    -0.007 C 
ATOM     14  C   UNL     1      53.753 152.435  25.760  0.00  0.00    +0.206 C 
ATOM     15  O   UNL     1      52.996 151.654  26.368  0.00  0.00    -0.476 OA
ATOM     16  C   UNL     1      54.894 151.836  25.023  0.00  0.00    +0.053 C 
ATOM     17  C   UNL     1      56.104 152.627  25.476  0.00  0.00    +0.038 C 
ATOM     18  C   UNL     1      55.996 154.028  25.000  0.00  0.00    +0.015 C 
ATOM     19  C   UNL     1      54.660 154.657  25.037  0.00  0.00    -0.109 C 
ENDROOT
BRANCH   1  20
ATOM     20  C   UNL     1      51.700 156.267  28.929  0.00  0.00    +0.178 C 
BRANCH  20  21
ATOM     21  C   UNL     1      50.534 155.908  28.095  0.00  0.00    +0.074 C 
ATOM     22  P   UNL     1      50.462 155.678  29.923  0.00  0.00    -0.032 P 
ENDBRANCH  20  21
BRANCH  20  23
ATOM     23  O   UNL     1      52.079 157.586  28.880  0.00  0.00    -0.478 OA
BRANCH  23  25
ATOM     24  C   UNL     1      50.531 158.945  30.113  0.00  0.00    +0.037 C 
ATOM     25  C   UNL     1      51.767 158.699  29.573  0.00  0.00    +0.145 C 
ATOM     26  C   UNL     1      52.774 159.663  29.760  0.00  0.00    +0.068 C 
ATOM     27  C   UNL     1      52.588 160.834  30.456  0.00  0.00    +0.010 C 
ATOM     28  C   UNL     1      51.340 161.070  30.996  0.00  0.00    +0.001 C 
ATOM     29  C   UNL     1      50.350 160.134  30.817  0.00  0.00    +0.003 C 
ATOM     30 BR   UNL     1      54.516 159.408  29.020  0.00  0.00    -0.046 Br
ENDBRANCH  23  25
ENDBRANCH  20  23
ENDBRANCH   1  20
TORSDOF 4
REMARK  Name = =
REMARK  5 active torsions:
REMARK  status: ('A' for Active; 'I' for Inactive)
REMARK    1  A    between atoms: C_1  and  C_7
REMARK    2  A    between atoms: C_1  and  C_8
REMARK    3  A    between atoms: C_1  and  O_21
REMARK    4  A    between atoms: C_4  and  O_38
REMARK    5  A    between atoms: O_21  and  C_24
REMARK                            x       y       z     vdW  Elec       q    Type
REMARK                         _______ _______ _______ _____ _____    ______ ____
ROOT
ATOM      1  O   HOH     1      51.513 155.907  30.281  0.00  0.00    +0.000 OA
ENDROOT
TORSDOF 0
REMARK  Name = =
REMARK  5 active torsions:
REMARK  status: ('A' for Active; 'I' for Inactive)
REMARK    1  A    between atoms: C_1  and  C_7
REMARK    2  A    between atoms: C_1  and  C_8
REMARK    3  A    between atoms: C_1  and  O_21
REMARK    4  A    between atoms: C_4  and  O_38
REMARK    5  A    between atoms: O_21  and  C_24
REMARK                            x       y       z     vdW  Elec       q    Type
REMARK                         _______ _______ _______ _____ _____    ______ ____
ROOT
ATOM      1  C   UNL     1      50.881 154.697  30.421  0.00  0.00    +0.169 C 
ATOM      2  O   UNL     1      51.606 154.869  30.833  0.00  0.00    -0.379 OA
ATOM      3  H   UNL     1      51.550 155.751  31.232  0.00  0.00    +0.211 HD
ENDROOT
TORSDOF 0
REMARK  Name = =
REMARK  5 active torsions:
REMARK  status: ('A' for Active; 'I' for Inactive)
REMARK    1  A    between atoms: C_1  and  C_7
REMARK    2  A    between atoms: C_1  and  C_8
REMARK    3  A    between atoms: C_1  and  O_21
REMARK    4  A    between atoms: C_4  and  O_38
REMARK    5  A    between atoms: O_21  and  C_24
REMARK                            x       y       z     vdW  Elec       q    Type
REMARK                         _______ _______ _______ _____ _____    ______ ____
ROOT
ATOM      1  C   UNL     1      49.449 154.895  30.033  0.00  0.00    +0.325 C 
ATOM      2  O   UNL     1      48.589 154.335  30.646  0.00  0.00    -0.184 OA
ENDROOT
BRANCH   1   3
ATOM      3  O   UNL     1      49.450 154.578  29.172  0.00  0.00    -0.354 OA
ATOM      4  H   UNL     1      50.066 154.912  28.550  0.00  0.00    +0.213 HD
ENDBRANCH   1   3
TORSDOF 1
REMARK  Name = =
REMARK  5 active torsions:
REMARK  status: ('A' for Active; 'I' for Inactive)
REMARK    1  A    between atoms: C_1  and  C_7
REMARK    2  A    between atoms: C_1  and  C_8
REMARK    3  A    between atoms: C_1  and  O_21
REMARK    4  A    between atoms: C_4  and  O_38
REMARK    5  A    between atoms: O_21  and  C_24
REMARK                            x       y       z     vdW  Elec       q    Type
REMARK                         _______ _______ _______ _____ _____    ______ ____
ROOT
ATOM      1  C   UNL     1      49.218 155.795  28.888  0.00  0.00    +0.000 C 
ENDROOT
TORSDOF 0
REMARK  Name = =
REMARK  5 active torsions:
REMARK  status: ('A' for Active; 'I' for Inactive)
REMARK    1  A    between atoms: C_1  and  C_7
REMARK    2  A    between atoms: C_1  and  C_8
REMARK    3  A    between atoms: C_1  and  O_21
REMARK    4  A    between atoms: C_4  and  O_38
REMARK    5  A    between atoms: O_21  and  C_24
REMARK                            x       y       z     vdW  Elec       q    Type
REMARK                         _______ _______ _______ _____ _____    ______ ____
ROOT
ATOM      1 BR   UNL     1      49.016 157.779  29.865  0.00  0.00    +0.143 Br
ATOM      2  O   UNL     1      49.701 156.710  30.706  0.00  0.00    -0.143 OA
ENDROOT
TORSDOF 0
