REMARK  Name = =
REMARK  0 active torsions:
REMARK  status: ('A' for Active; 'I' for Inactive)
REMARK                            x       y       z     vdW  Elec       q    Type
REMARK                         _______ _______ _______ _____ _____    ______ ____
ROOT
ATOM      1  N   UNL     1      -3.632  -3.936  31.063  0.00  0.00    -0.272 N 
ATOM      2  C   UNL     1      -4.667  -3.026  31.475  0.00  0.00    +0.094 C 
ATOM      3  C   UNL     1      -4.787  -3.298  32.944  0.00  0.00    +0.023 C 
ATOM      4  C   UNL     1      -4.409  -4.759  33.057  0.00  0.00    +0.023 C 
ATOM      5  C   UNL     1      -3.971  -5.197  31.672  0.00  0.00    +0.094 C 
ATOM      6  C   UNL     1      -2.523  -3.664  30.241  0.00  0.00    +0.303 C 
ATOM      7  O   UNL     1      -1.703  -4.569  29.970  0.00  0.00    -0.265 OA
ENDROOT
TORSDOF 0
