REMARK  Name = =
REMARK  3 active torsions:
REMARK  status: ('A' for Active; 'I' for Inactive)
REMARK    1  A    between atoms: N_1  and  C_9
REMARK    2  A    between atoms: C_3  and  C_14
REMARK    3  A    between atoms: C_14  and  C_15
REMARK                            x       y       z     vdW  Elec       q    Type
REMARK                         _______ _______ _______ _____ _____    ______ ____
ROOT
ATOM      1  N   UNL     1      -4.980  -3.580  32.785  0.00  0.00    -0.270 NA
ATOM      2  C   UNL     1      -4.847  -4.888  33.295  0.00  0.00    +0.088 C 
ATOM      3  C   UNL     1      -4.216  -5.816  32.246  0.00  0.00    +0.075 C 
ATOM      4  N   UNL     1      -2.869  -5.299  32.080  0.00  0.00    -0.296 NA
ATOM      5  C   UNL     1      -2.866  -3.974  31.567  0.00  0.00    +0.086 C 
ATOM      6  C   UNL     1      -4.071  -3.163  31.796  0.00  0.00    +0.089 C 
ATOM      7  H   UNL     1      -2.362  -5.903  31.434  0.00  0.00    +0.123 HD
ENDROOT
BRANCH   1  10
ATOM      8  N   UNL     1      -7.245  -1.125  31.975  0.00  0.00    -0.271 N 
ATOM      9  C   UNL     1      -6.431  -2.176  31.399  0.00  0.00    +0.110 C 
ATOM     10  C   UNL     1      -6.333  -3.250  32.423  0.00  0.00    +0.079 C 
ATOM     11  C   UNL     1      -7.147  -2.754  33.595  0.00  0.00    +0.039 C 
ATOM     12  C   UNL     1      -8.127  -1.812  32.917  0.00  0.00    +0.095 C 
ATOM     13  C   UNL     1      -7.200   0.269  31.693  0.00  0.00    +0.303 C 
ATOM     14  O   UNL     1      -7.957   1.095  32.255  0.00  0.00    -0.265 OA
ENDBRANCH   1  10
BRANCH   3  15
ATOM     15  C   UNL     1      -4.105  -7.217  32.777  0.00  0.00    +0.043 C 
BRANCH  15  16
ATOM     16  C   UNL     1      -3.382  -8.114  31.845  0.00  0.00    -0.025 C 
ATOM     17  C   UNL     1      -3.022  -7.698  30.641  0.00  0.00    -0.005 C 
ENDBRANCH  15  16
ENDBRANCH   3  15
TORSDOF 3
