REMARK  Name = =
REMARK  6 active torsions:
REMARK  status: ('A' for Active; 'I' for Inactive)
REMARK    1  A    between atoms: C_1  and  C_4
REMARK    2  A    between atoms: C_1  and  C_23
REMARK    3  A    between atoms: N_2  and  C_10
REMARK    4  A    between atoms: C_11  and  N_15
REMARK    5  A    between atoms: C_23  and  C_25
REMARK    6  A    between atoms: C_33  and  N_36
REMARK                            x       y       z     vdW  Elec       q    Type
REMARK                         _______ _______ _______ _____ _____    ______ ____
ROOT
ATOM      1  C   UNL     1       2.931  -5.235  29.044  0.00  0.00    +0.039 C 
ENDROOT
BRANCH   1   4
ATOM      2  N   UNL     1       3.138  -8.579  27.532  0.00  0.00    -0.269 NA
ATOM      3  C   UNL     1       3.473  -7.231  27.661  0.00  0.00    +0.088 C 
ATOM      4  C   UNL     1       2.351  -6.378  28.218  0.00  0.00    +0.074 C 
ATOM      5  N   UNL     1       1.497  -7.225  29.020  0.00  0.00    -0.296 NA
ATOM      6  C   UNL     1       0.809  -8.113  28.105  0.00  0.00    +0.086 C 
ATOM      7  C   UNL     1       1.801  -8.997  27.436  0.00  0.00    +0.089 C 
ATOM      8  H   UNL     1       0.822  -6.658  29.533  0.00  0.00    +0.123 HD
BRANCH   2  11
ATOM      9  N   UNL     1       6.087 -10.416  27.320  0.00  0.00    -0.269 N 
ATOM     10  C   UNL     1       5.431  -9.126  27.377  0.00  0.00    +0.112 C 
ATOM     11  C   UNL     1       4.079  -9.318  26.720  0.00  0.00    +0.098 C 
ATOM     12  C   UNL     1       3.919 -10.776  26.699  0.00  0.00    +0.118 C 
ATOM     13  C   UNL     1       5.328 -11.287  26.444  0.00  0.00    +0.115 C 
ATOM     14  C   UNL     1       7.264 -10.748  28.010  0.00  0.00    +0.303 C 
ATOM     15  O   UNL     1       7.756 -11.891  27.896  0.00  0.00    -0.265 OA
BRANCH  12  16
ATOM     16  N   UNL     1       2.972 -11.315  25.772  0.00  0.00    -0.228 N 
ATOM     17  C   UNL     1       2.873 -10.935  24.409  0.00  0.00    +0.231 C 
ATOM     18  O   UNL     1       3.611 -10.004  24.003  0.00  0.00    -0.274 OA
ATOM     19  C   UNL     1       1.970 -11.543  23.413  0.00  0.00    +0.086 C 
ATOM     20  C   UNL     1       1.113 -12.642  23.967  0.00  0.00    +0.019 C 
ATOM     21  C   UNL     1       0.791 -12.463  25.427  0.00  0.00    +0.086 C 
ATOM     22  C   UNL     1       2.051 -12.306  26.197  0.00  0.00    +0.231 C 
ATOM     23  O   UNL     1       2.249 -13.048  27.186  0.00  0.00    -0.274 OA
ENDBRANCH  12  16
ENDBRANCH   2  11
ENDBRANCH   1   4
BRANCH   1  24
ATOM     24  C   UNL     1       1.983  -4.095  29.044  0.00  0.00    -0.039 C 
ATOM     25  C   UNL     1       1.460  -3.670  30.233  0.00  0.00    -0.009 C 
BRANCH  24  26
ATOM     26  C   UNL     1       1.531  -3.346  27.882  0.00  0.00    +0.038 C 
ATOM     27  C   UNL     1       0.062  -2.954  27.857  0.00  0.00    +0.008 C 
ATOM     28  C   UNL     1      -0.432  -2.330  29.114  0.00  0.00    +0.001 C 
ATOM     29  C   UNL     1      -1.867  -1.844  28.848  0.00  0.00    +0.000 C 
ATOM     30  C   UNL     1      -2.355  -2.378  27.516  0.00  0.00    +0.000 C 
ATOM     31  C   UNL     1      -1.527  -1.836  26.373  0.00  0.00    +0.000 C 
ATOM     32  C   UNL     1      -0.038  -1.902  26.733  0.00  0.00    +0.002 C 
ATOM     33  C   UNL     1       0.758  -2.418  25.558  0.00  0.00    +0.020 C 
ATOM     34  C   UNL     1       2.233  -2.147  25.816  0.00  0.00    +0.077 C 
ATOM     35  C   UNL     1       2.340  -2.262  27.329  0.00  0.00    -0.027 C 
ATOM     36  C   UNL     1       3.034  -1.422  28.009  0.00  0.00    -0.008 C 
BRANCH  34  37
ATOM     37  N   UNL     1       3.083  -3.010  25.112  0.00  0.00    -0.267 NA
ATOM     38  C   UNL     1       4.328  -2.528  24.678  0.00  0.00    +0.099 C 
ATOM     39  C   UNL     1       4.529  -2.920  23.257  0.00  0.00    -0.010 C 
ATOM     40  C   UNL     1       4.212  -4.219  22.930  0.00  0.00    -0.023 C 
ATOM     41  C   UNL     1       4.363  -4.679  21.636  0.00  0.00    -0.004 C 
ATOM     42  C   UNL     1       4.844  -3.780  20.699  0.00  0.00    -0.000 C 
ATOM     43  C   UNL     1       5.169  -2.474  20.997  0.00  0.00    -0.000 C 
ATOM     44  C   UNL     1       5.006  -2.036  22.315  0.00  0.00    -0.003 C 
ATOM     45  C   UNL     1       3.707  -5.083  24.029  0.00  0.00    +0.043 C 
ATOM     46  C   UNL     1       2.751  -4.355  24.951  0.00  0.00    +0.077 C 
ENDBRANCH  34  37
ENDBRANCH  24  26
ENDBRANCH   1  24
TORSDOF 6
