REMARK  Name = =
REMARK  1 active torsions:
REMARK  status: ('A' for Active; 'I' for Inactive)
REMARK    1  A    between atoms: C_3  and  O_7
REMARK                            x       y       z     vdW  Elec       q    Type
REMARK                         _______ _______ _______ _____ _____    ______ ____
ROOT
ATOM      1  C   UNL     1      52.509 156.386  28.025  0.00  0.00    +0.006 C 
ATOM      2  C   UNL     1      52.866 156.113  26.717  0.00  0.00    +0.058 C 
ATOM      3  C   UNL     1      52.671 154.875  26.142  0.00  0.00    +0.222 C 
ATOM      4  N   UNL     1      52.109 153.882  26.871  0.00  0.00    -0.210 NA
ATOM      5  C   UNL     1      51.746 154.110  28.152  0.00  0.00    +0.102 C 
ATOM      6  C   UNL     1      51.939 155.351  28.736  0.00  0.00    +0.021 C 
ENDROOT
BRANCH   3   7
ATOM      7  O   UNL     1      53.061 154.682  24.812  0.00  0.00    -0.492 OA
ATOM      8  H   UNL     1      53.448 155.387  24.330  0.00  0.00    +0.294 HD
ENDBRANCH   3   7
TORSDOF 1
