REMARK  Name = =
REMARK  2 active torsions:
REMARK  status: ('A' for Active; 'I' for Inactive)
REMARK    1  A    between atoms: C_1  and  C_10
REMARK    2  A    between atoms: C_12  and  O_16
REMARK                            x       y       z     vdW  Elec       q    Type
REMARK                         _______ _______ _______ _____ _____    ______ ____
ROOT
ATOM      1  C   UNL     1      51.217 157.239  29.555  0.00  0.00    +0.023 C 
ATOM      2  C   UNL     1      49.811 157.622  29.134  0.00  0.00    +0.005 C 
ATOM      3  C   UNL     1      49.485 158.843  29.923  0.00  0.00    +0.005 C 
ATOM      4  C   UNL     1      49.211 158.547  31.383  0.00  0.00    +0.022 C 
ATOM      5  C   UNL     1      49.582 159.858  32.014  0.00  0.00    -0.044 C 
ATOM      6  C   UNL     1      48.916 160.546  32.910  0.00  0.00    -0.009 C 
ATOM      7  C   UNL     1      50.898 160.185  31.368  0.00  0.00    +0.022 C 
ATOM      8  C   UNL     1      50.795 159.586  30.000  0.00  0.00    +0.005 C 
ATOM      9  C   UNL     1      51.876 158.572  29.707  0.00  0.00    +0.005 C 
ENDROOT
BRANCH   1  10
ATOM     10  C   UNL     1      51.838 156.353  28.580  0.00  0.00    -0.016 C 
ATOM     11  C   UNL     1      52.427 156.761  27.407  0.00  0.00    +0.053 C 
ATOM     12  C   UNL     1      52.987 155.851  26.553  0.00  0.00    +0.221 C 
ATOM     13  N   UNL     1      52.981 154.541  26.820  0.00  0.00    -0.210 NA
ATOM     14  C   UNL     1      52.418 154.100  27.950  0.00  0.00    +0.102 C 
ATOM     15  C   UNL     1      51.853 154.993  28.821  0.00  0.00    +0.017 C 
BRANCH  12  16
ATOM     16  O   UNL     1      53.576 156.298  25.372  0.00  0.00    -0.492 OA
ATOM     17  H   UNL     1      53.963 155.684  24.780  0.00  0.00    +0.294 HD
ENDBRANCH  12  16
ENDBRANCH   1  10
TORSDOF 2
