REMARK  Name = =
REMARK  3 active torsions:
REMARK  status: ('A' for Active; 'I' for Inactive)
REMARK    1  A    between atoms: C_1  and  C_11
REMARK    2  A    between atoms: C_1  and  C_17
REMARK    3  A    between atoms: C_19  and  O_23
REMARK                            x       y       z     vdW  Elec       q    Type
REMARK                         _______ _______ _______ _____ _____    ______ ____
ROOT
ATOM      1  C   UNL     1      52.537 156.749  28.229  0.00  0.00    +0.041 C 
ATOM      2  C   UNL     1      52.223 157.115  26.785  0.00  0.00    +0.009 C 
ATOM      3  C   UNL     1      52.446 155.873  25.977  0.00  0.00    +0.005 C 
ATOM      4  C   UNL     1      53.579 156.007  24.995  0.00  0.00    +0.022 C 
ATOM      5  C   UNL     1      54.035 154.598  24.845  0.00  0.00    -0.044 C 
ATOM      6  C   UNL     1      54.451 153.975  23.736  0.00  0.00    -0.009 C 
ATOM      7  C   UNL     1      53.933 154.004  26.206  0.00  0.00    +0.022 C 
ATOM      8  C   UNL     1      52.945 154.839  26.964  0.00  0.00    +0.005 C 
ATOM      9  C   UNL     1      53.630 155.725  28.015  0.00  0.00    +0.009 C 
ENDROOT
BRANCH   1  11
ATOM     10  C   UNL     1      54.289 158.357  28.899  0.00  0.00    -0.022 C 
ATOM     11  C   UNL     1      53.028 157.981  28.897  0.00  0.00    +0.016 C 
ATOM     12  C   UNL     1      52.082 158.845  29.599  0.00  0.00    +0.191 C 
ATOM     13  O   UNL     1      50.847 158.592  29.668  0.00  0.00    -0.287 OA
ATOM     14  C   UNL     1      52.542 160.059  30.263  0.00  0.00    +0.037 C 
ATOM     15  C   UNL     1      53.812 160.391  30.239  0.00  0.00    -0.018 C 
ATOM     16  C   UNL     1      54.800 159.554  29.544  0.00  0.00    +0.052 C 
ENDBRANCH   1  11
BRANCH   1  17
ATOM     17  C   UNL     1      51.391 156.131  28.906  0.00  0.00    -0.013 C 
ATOM     18  C   UNL     1      51.598 155.242  29.944  0.00  0.00    +0.054 C 
ATOM     19  C   UNL     1      50.539 154.642  30.605  0.00  0.00    +0.221 C 
ATOM     20  N   UNL     1      49.269 154.908  30.252  0.00  0.00    -0.210 NA
ATOM     21  C   UNL     1      49.045 155.767  29.247  0.00  0.00    +0.102 C 
ATOM     22  C   UNL     1      50.070 156.379  28.573  0.00  0.00    +0.017 C 
BRANCH  19  23
ATOM     23  O   UNL     1      50.775 153.749  31.650  0.00  0.00    -0.492 OA
ATOM     24  H   UNL     1      51.654 153.552  31.909  0.00  0.00    +0.294 HD
ENDBRANCH  19  23
ENDBRANCH   1  17
TORSDOF 3
