REMARK  Name = =
REMARK  3 active torsions:
REMARK  status: ('A' for Active; 'I' for Inactive)
REMARK    1  A    between atoms: C_1  and  C_12
REMARK    2  A    between atoms: C_1  and  C_18
REMARK    3  A    between atoms: C_20  and  O_24
REMARK                            x       y       z     vdW  Elec       q    Type
REMARK                         _______ _______ _______ _____ _____    ______ ____
ROOT
ATOM      1  C   UNL     1      52.642 156.755  28.345  0.00  0.00    +0.040 C 
ATOM      2  C   UNL     1      52.155 158.249  28.300  0.00  0.00    +0.009 C 
ATOM      3  C   UNL     1      52.217 158.550  29.813  0.00  0.00    +0.005 C 
ATOM      4  C   UNL     1      52.186 160.036  30.064  0.00  0.00    +0.022 C 
ATOM      5  C   UNL     1      53.580 160.510  29.867  0.00  0.00    -0.044 C 
ATOM      6  C   UNL     1      53.940 161.782  29.885  0.00  0.00    -0.009 C 
ATOM      7  C   UNL     1      54.432 159.310  29.655  0.00  0.00    +0.022 C 
ATOM      8  C   UNL     1      53.631 158.128  30.105  0.00  0.00    +0.005 C 
ATOM      9  C   UNL     1      53.825 156.899  29.215  0.00  0.00    +0.009 C 
ENDROOT
BRANCH   1  12
ATOM     10  C   UNL     1      51.289 154.588  27.203  0.00  0.00    +0.026 C 
ATOM     11  C   UNL     1      52.266 155.395  26.404  0.00  0.00    -0.040 C 
ATOM     12  C   UNL     1      52.930 156.400  26.925  0.00  0.00    +0.012 C 
ATOM     13  C   UNL     1      53.868 157.168  26.121  0.00  0.00    +0.191 C 
ATOM     14  O   UNL     1      54.530 158.121  26.540  0.00  0.00    -0.287 OA
ATOM     15  C   UNL     1      54.024 156.768  24.734  0.00  0.00    +0.037 C 
ATOM     16  C   UNL     1      53.358 155.769  24.236  0.00  0.00    -0.019 C 
ATOM     17  C   UNL     1      52.418 154.978  25.005  0.00  0.00    +0.048 C 
ENDBRANCH   1  12
BRANCH   1  18
ATOM     18  C   UNL     1      51.466 156.070  28.876  0.00  0.00    -0.013 C 
ATOM     19  C   UNL     1      51.599 154.855  29.514  0.00  0.00    +0.054 C 
ATOM     20  C   UNL     1      50.491 154.217  29.992  0.00  0.00    +0.221 C 
ATOM     21  N   UNL     1      49.265 154.755  29.852  0.00  0.00    -0.210 NA
ATOM     22  C   UNL     1      49.098 155.936  29.238  0.00  0.00    +0.102 C 
ATOM     23  C   UNL     1      50.212 156.590  28.750  0.00  0.00    +0.017 C 
BRANCH  20  24
ATOM     24  O   UNL     1      50.687 152.984  30.632  0.00  0.00    -0.492 OA
ATOM     25  H   UNL     1      51.551 152.632  30.716  0.00  0.00    +0.294 HD
ENDBRANCH  20  24
ENDBRANCH   1  18
TORSDOF 3
