REMARK  Name = =
REMARK  3 active torsions:
REMARK  status: ('A' for Active; 'I' for Inactive)
REMARK    1  A    between atoms: C_1  and  C_12
REMARK    2  A    between atoms: C_20  and  O_30
REMARK    3  A    between atoms: C_22  and  C_24
REMARK                            x       y       z     vdW  Elec       q    Type
REMARK                         _______ _______ _______ _____ _____    ______ ____
ROOT
ATOM      1  C   UNL     1      52.022 156.020  28.660  0.00  0.00    +0.026 C 
ATOM      2  C   UNL     1      51.096 157.262  28.579  0.00  0.00    +0.005 C 
ATOM      3  C   UNL     1      52.080 158.352  28.264  0.00  0.00    +0.005 C 
ATOM      4  C   UNL     1      52.000 159.531  29.170  0.00  0.00    +0.022 C 
ATOM      5  C   UNL     1      53.355 159.734  29.759  0.00  0.00    -0.044 C 
ATOM      6  C   UNL     1      53.678 160.536  30.737  0.00  0.00    -0.009 C 
ATOM      7  C   UNL     1      54.317 158.854  29.037  0.00  0.00    +0.022 C 
ATOM      8  C   UNL     1      53.480 157.772  28.429  0.00  0.00    +0.013 C 
ATOM      9  C   UNL     1      53.123 156.717  29.528  0.00  0.00    +0.005 C 
ATOM     10  C   UNL     1      52.706 155.844  27.378  0.00  0.00    +0.036 C 
ATOM     11  C   UNL     1      53.241 156.899  26.686  0.00  0.00    +0.081 C 
ATOM     12  C   UNL     1      53.975 156.726  25.521  0.00  0.00    +0.196 C 
ATOM     13  N   UNL     1      54.169 155.485  25.052  0.00  0.00    -0.220 NA
ATOM     14  C   UNL     1      53.674 154.405  25.678  0.00  0.00    +0.057 C 
ATOM     15  C   UNL     1      52.947 154.599  26.835  0.00  0.00    -0.011 C 
ENDROOT
BRANCH   1  18
ATOM     16  C   UNL     1      49.499 156.127  30.216  0.00  0.00    +0.026 C 
ATOM     17  C   UNL     1      50.335 154.888  30.032  0.00  0.00    -0.040 C 
ATOM     18  C   UNL     1      51.416 154.901  29.332  0.00  0.00    +0.009 C 
ATOM     19  C   UNL     1      52.142 153.597  29.246  0.00  0.00    +0.191 C 
ATOM     20  O   UNL     1      53.203 153.517  28.588  0.00  0.00    -0.287 OA
ATOM     21  C   UNL     1      51.651 152.400  29.909  0.00  0.00    +0.037 C 
ATOM     22  C   UNL     1      50.543 152.469  30.598  0.00  0.00    -0.019 C 
ATOM     23  C   UNL     1      49.762 153.673  30.744  0.00  0.00    +0.048 C 
ENDBRANCH   1  18
BRANCH  14  24
ATOM     24  C   UNL     1      53.923 153.058  25.108  0.00  0.00    +0.040 C 
ATOM     25  C   UNL     1      55.353 152.616  25.334  0.00  0.00    +0.006 C 
ATOM     26  C   UNL     1      55.509 151.163  25.032  0.00  0.00    +0.000 C 
ATOM     27  C   UNL     1      54.307 150.555  24.352  0.00  0.00    +0.000 C 
ATOM     28  C   UNL     1      53.032 150.782  25.119  0.00  0.00    +0.000 C 
ATOM     29  C   UNL     1      53.048 152.079  25.893  0.00  0.00    +0.006 C 
ENDBRANCH  14  24
BRANCH  12  30
ATOM     30  O   UNL     1      54.496 157.831  24.859  0.00  0.00    -0.495 OA
ATOM     31  H   UNL     1      54.352 158.692  25.199  0.00  0.00    +0.293 HD
ENDBRANCH  12  30
TORSDOF 3
