REMARK  Name = =
REMARK  4 active torsions:
REMARK  status: ('A' for Active; 'I' for Inactive)
REMARK    1  A    between atoms: C_10  and  C_17
REMARK    2  A    between atoms: C_17  and  C_18
REMARK    3  A    between atoms: C_22  and  O_32
REMARK    4  A    between atoms: C_24  and  C_26
REMARK                            x       y       z     vdW  Elec       q    Type
REMARK                         _______ _______ _______ _____ _____    ______ ____
ROOT
ATOM      1  C   UNL     1      50.978 157.470  29.801  0.00  0.00    +0.040 C 
ATOM      2  C   UNL     1      49.925 156.896  28.884  0.00  0.00    +0.008 C 
ATOM      3  C   UNL     1      50.214 155.396  28.891  0.00  0.00    +0.005 C 
ATOM      4  C   UNL     1      49.341 154.659  29.852  0.00  0.00    +0.022 C 
ATOM      5  C   UNL     1      50.209 153.755  30.651  0.00  0.00    -0.044 C 
ATOM      6  C   UNL     1      49.830 152.932  31.595  0.00  0.00    -0.009 C 
ATOM      7  C   UNL     1      51.621 153.931  30.201  0.00  0.00    +0.022 C 
ATOM      8  C   UNL     1      51.620 155.295  29.513  0.00  0.00    +0.005 C 
ATOM      9  C   UNL     1      51.359 156.360  30.657  0.00  0.00    +0.008 C 
ATOM     10  C   UNL     1      49.746 159.323  30.807  0.00  0.00    -0.015 C 
ATOM     11  C   UNL     1      50.748 158.840  30.189  0.00  0.00    +0.011 C 
ATOM     12  C   UNL     1      51.851 159.793  29.768  0.00  0.00    +0.136 C 
ATOM     13  O   UNL     1      52.857 159.342  29.157  0.00  0.00    -0.466 OA
ATOM     14  C   UNL     1      51.700 161.181  30.093  0.00  0.00    +0.037 C 
ATOM     15  C   UNL     1      50.646 161.603  30.727  0.00  0.00    +0.003 C 
ATOM     16  C   UNL     1      49.540 160.782  31.172  0.00  0.00    -0.004 C 
ATOM     17  C   UNL     1      52.247 157.607  28.941  0.00  0.00    +0.005 C 
ATOM     18  C   UNL     1      53.301 158.299  29.554  0.00  0.00    +0.259 C 
ATOM     19  C   UNL     1      54.481 158.477  28.865  0.00  0.00    +0.238 C 
ATOM     20  N   UNL     1      54.574 157.978  27.626  0.00  0.00    -0.236 NA
ATOM     21  C   UNL     1      53.577 157.311  27.019  0.00  0.00    +0.128 C 
ATOM     22  C   UNL     1      52.369 157.119  27.702  0.00  0.00    -0.007 C 
ENDROOT
BRANCH  21  23
ATOM     23  C   UNL     1      53.745 156.785  25.652  0.00  0.00    +0.027 C 
ATOM     24  C   UNL     1      55.100 157.093  25.061  0.00  0.00    +0.002 C 
ATOM     25  C   UNL     1      55.008 156.669  23.590  0.00  0.00    +0.000 C 
ATOM     26  C   UNL     1      54.793 155.169  23.491  0.00  0.00    +0.000 C 
ATOM     27  C   UNL     1      53.638 154.684  24.305  0.00  0.00    +0.000 C 
ATOM     28  C   UNL     1      53.641 155.258  25.685  0.00  0.00    +0.002 C 
ENDBRANCH  21  23
BRANCH  19  29
ATOM     29  O   UNL     1      55.540 159.152  29.436  0.00  0.00    -0.493 OA
ATOM     30  H   UNL     1      55.463 159.497  30.304  0.00  0.00    +0.294 HD
ENDBRANCH  19  29
BRANCH  10  31
ATOM     31  C   UNL     1      48.616 158.488  31.263  0.00  0.00    +0.098 C 
BRANCH  31  32
ATOM     32  C   UNL     1      47.450 159.467  31.372  0.00  0.00    +0.212 C 
ATOM     33  O   UNL     1      47.308 160.267  32.241  0.00  0.00    -0.288 OA
ENDBRANCH  31  32
ENDBRANCH  10  31
TORSDOF 4
