REMARK  Name = =
REMARK  5 active torsions:
REMARK  status: ('A' for Active; 'I' for Inactive)
REMARK    1  A    between atoms: C_10  and  C_17
REMARK    2  A    between atoms: C_17  and  C_21
REMARK    3  A    between atoms: C_19  and  C_23
REMARK    4  A    between atoms: C_31  and  O_41
REMARK    5  A    between atoms: C_33  and  C_35
REMARK                            x       y       z     vdW  Elec       q    Type
REMARK                         _______ _______ _______ _____ _____    ______ ____
ROOT
ATOM      1  C   UNL     1      52.306 156.051  28.318  0.00  0.00    +0.040 C 
ATOM      2  C   UNL     1      51.262 157.085  28.120  0.00  0.00    +0.008 C 
ATOM      3  C   UNL     1      51.970 158.385  28.111  0.00  0.00    +0.005 C 
ATOM      4  C   UNL     1      51.456 159.338  29.155  0.00  0.00    +0.022 C 
ATOM      5  C   UNL     1      52.698 159.989  29.656  0.00  0.00    -0.044 C 
ATOM      6  C   UNL     1      52.805 161.177  30.228  0.00  0.00    -0.009 C 
ATOM      7  C   UNL     1      53.866 159.087  29.422  0.00  0.00    +0.022 C 
ATOM      8  C   UNL     1      53.401 158.077  28.416  0.00  0.00    +0.005 C 
ATOM      9  C   UNL     1      53.275 156.697  29.185  0.00  0.00    +0.008 C 
ATOM     10  C   UNL     1      51.236 154.162  29.428  0.00  0.00    -0.014 C 
ATOM     11  C   UNL     1      51.843 154.684  28.435  0.00  0.00    +0.011 C 
ATOM     12  C   UNL     1      52.087 153.836  27.213  0.00  0.00    +0.135 C 
ATOM     13  O   UNL     1      52.691 154.350  26.224  0.00  0.00    -0.473 OA
ATOM     14  C   UNL     1      51.634 152.479  27.204  0.00  0.00    +0.037 C 
ATOM     15  C   UNL     1      51.020 151.976  28.238  0.00  0.00    +0.003 C 
ATOM     16  C   UNL     1      50.752 152.709  29.441  0.00  0.00    -0.004 C 
ATOM     17  C   UNL     1      53.106 155.983  27.012  0.00  0.00    +0.005 C 
ATOM     18  C   UNL     1      53.466 157.024  26.258  0.00  0.00    +0.052 C 
ATOM     19  C   UNL     1      54.204 156.839  25.104  0.00  0.00    +0.217 C 
ATOM     20  N   UNL     1      54.570 155.610  24.721  0.00  0.00    -0.236 NA
ATOM     21  C   UNL     1      54.219 154.525  25.464  0.00  0.00    +0.150 C 
ATOM     22  C   UNL     1      53.490 154.713  26.604  0.00  0.00    +0.207 C 
ENDROOT
BRANCH  21  23
ATOM     23  C   UNL     1      54.660 153.201  24.966  0.00  0.00    +0.026 C 
ATOM     24  C   UNL     1      54.622 153.053  23.483  0.00  0.00    +0.002 C 
ATOM     25  C   UNL     1      54.226 151.666  23.064  0.00  0.00    +0.000 C 
ATOM     26  C   UNL     1      54.770 150.595  23.967  0.00  0.00    +0.000 C 
ATOM     27  C   UNL     1      54.138 150.762  25.337  0.00  0.00    +0.000 C 
ATOM     28  C   UNL     1      53.776 152.170  25.665  0.00  0.00    +0.002 C 
ENDBRANCH  21  23
BRANCH  19  29
ATOM     29  O   UNL     1      54.591 157.917  24.305  0.00  0.00    -0.492 OA
ATOM     30  H   UNL     1      54.350 158.790  24.547  0.00  0.00    +0.294 HD
ENDBRANCH  19  29
BRANCH  10  31
ATOM     31  C   UNL     1      50.939 154.848  30.661  0.00  0.00    +0.112 C 
BRANCH  31  35
ATOM     32  N   UNL     1      49.923 157.161  30.993  0.00  0.00    -0.251 N 
ATOM     33  C   UNL     1      48.901 158.090  30.686  0.00  0.00    +0.253 C 
ATOM     34  O   UNL     1      47.979 157.823  29.875  0.00  0.00    -0.270 OA
ATOM     35  C   UNL     1      49.904 155.892  30.358  0.00  0.00    +0.233 C 
ATOM     36  O   UNL     1      49.006 155.649  29.535  0.00  0.00    -0.274 OA
ATOM     37  H   UNL     1      50.634 157.390  31.635  0.00  0.00    +0.158 HD
BRANCH  33  38
ATOM     38  C   UNL     1      48.893 159.408  31.316  0.00  0.00    +0.073 C 
ATOM     39  C   UNL     1      49.881 159.662  32.266  0.00  0.00    +0.103 C 
ATOM     40  N   UNL     1      49.865 160.858  32.849  0.00  0.00    -0.242 NA
ATOM     41  C   UNL     1      48.956 161.808  32.565  0.00  0.00    +0.099 C 
ATOM     42  C   UNL     1      47.966 161.573  31.625  0.00  0.00    +0.021 C 
ATOM     43  C   UNL     1      47.943 160.351  30.997  0.00  0.00    +0.008 C 
ENDBRANCH  33  38
ENDBRANCH  31  35
ENDBRANCH  10  31
TORSDOF 5
