REMARK  Name = =
REMARK  1 active torsions:
REMARK  status: ('A' for Active; 'I' for Inactive)
REMARK    1  A    between atoms: N_1  and  N_5
REMARK                            x       y       z     vdW  Elec       q    Type
REMARK                         _______ _______ _______ _____ _____    ______ ____
ROOT
ATOM      1  N   UNL     1      49.909 158.501  30.144  0.00  0.00    -0.218 N 
ATOM      2  C   UNL     1      50.976 159.448  30.030  0.00  0.00    +0.313 C 
ATOM      3  O   UNL     1      50.674 160.674  30.034  0.00  0.00    -0.252 OA
ATOM      4  N   UNL     1      52.322 159.027  29.914  0.00  0.00    -0.312 N 
ATOM      5  H   UNL     1      50.108 157.537  30.142  0.00  0.00    +0.174 HD
ATOM      6  H   UNL     1      53.042 159.694  29.837  0.00  0.00    +0.147 HD
ATOM      7  H   UNL     1      52.539 158.067  29.911  0.00  0.00    +0.147 HD
ENDROOT
BRANCH   1   8
ATOM      8  N   UNL     1      48.573 158.942  30.259  0.00  0.00    -0.225 N 
ATOM      9  C   UNL     1      48.002 159.392  31.476  0.00  0.00    +0.316 C 
ATOM     10  O   UNL     1      48.733 159.389  32.490  0.00  0.00    -0.264 OA
ATOM     11  H   UNL     1      48.009 158.937  29.452  0.00  0.00    +0.173 HD
ENDBRANCH   1   8
TORSDOF 1
