REMARK  Name = =
REMARK  8 active torsions:
REMARK  status: ('A' for Active; 'I' for Inactive)
REMARK    1  A    between atoms: N_1  and  C_2
REMARK    2  A    between atoms: N_1  and  N_14
REMARK    3  A    between atoms: N_1  and  P_21
REMARK    4  A    between atoms: C_5  and  O_13
REMARK    5  A    between atoms: C_7  and  O_12
REMARK    6  A    between atoms: N_14  and  N_17
REMARK    7  A    between atoms: P_21  and  N_23
REMARK    8  A    between atoms: P_21  and  O_24
REMARK                            x       y       z     vdW  Elec       q    Type
REMARK                         _______ _______ _______ _____ _____    ______ ____
ROOT
ATOM      1  N   UNL     1      48.445 160.757  32.156  0.00  0.00    -0.137 N 
ENDROOT
BRANCH   1   2
ATOM      2  C   UNL     1      48.585 160.850  30.734  0.00  0.00    +0.144 C 
ATOM      3  C   UNL     1      49.473 160.029  30.078  0.00  0.00    +0.156 C 
ATOM      4  C   UNL     1      49.628 160.017  28.695  0.00  0.00    +0.047 C 
ATOM      5  C   UNL     1      48.858 160.870  27.924  0.00  0.00    +0.136 C 
ATOM      6  C   UNL     1      47.963 161.703  28.583  0.00  0.00    +0.074 C 
ATOM      7  C   UNL     1      47.834 161.687  29.949  0.00  0.00    +0.155 C 
ATOM      8  C   UNL     1      50.594 159.075  28.084  0.00  0.00    +0.036 C 
ATOM      9  C   UNL     1      51.712 158.827  29.073  0.00  0.00    +0.052 C 
ATOM     10  C   UNL     1      51.120 158.236  30.339  0.00  0.00    +0.206 C 
ATOM     11  O   UNL     1      50.232 159.184  30.895  0.00  0.00    -0.474 OA
BRANCH   7  12
ATOM     12  O   UNL     1      46.912 162.555  30.517  0.00  0.00    -0.504 OA
ATOM     13  H   UNL     1      46.404 163.122  29.971  0.00  0.00    +0.292 HD
ENDBRANCH   7  12
BRANCH   5  14
ATOM     14  O   UNL     1      48.994 160.873  26.558  0.00  0.00    -0.506 OA
ATOM     15  H   UNL     1      48.472 161.451  26.037  0.00  0.00    +0.292 HD
ENDBRANCH   5  14
ENDBRANCH   1   2
BRANCH   1  16
ATOM     16  N   UNL     1      48.772 161.804  32.986  0.00  0.00    -0.114 N 
ATOM     17  C   UNL     1      48.202 161.944  34.253  0.00  0.00    +0.338 C 
ATOM     18  O   UNL     1      48.493 162.916  35.036  0.00  0.00    -0.262 OA
BRANCH  16  19
ATOM     19  N   UNL     1      49.700 162.831  32.650  0.00  0.00    -0.198 N 
ATOM     20  C   UNL     1      51.027 162.492  32.304  0.00  0.00    +0.315 C 
ATOM     21  O   UNL     1      51.336 161.279  32.306  0.00  0.00    -0.251 OA
ATOM     22  N   UNL     1      52.039 163.457  31.950  0.00  0.00    -0.312 N 
ATOM     23  H   UNL     1      49.418 163.774  32.659  0.00  0.00    +0.176 HD
ATOM     24  H   UNL     1      52.947 163.155  31.718  0.00  0.00    +0.147 HD
ATOM     25  H   UNL     1      51.822 164.417  31.940  0.00  0.00    +0.147 HD
ENDBRANCH  16  19
ENDBRANCH   1  16
BRANCH   1  26
ATOM     26  P   UNL     1      47.866 159.213  32.738  0.00  0.00    +0.376 P 
ATOM     27  O   UNL     1      48.063 158.193  31.625  0.00  0.00    -0.249 OA
BRANCH  26  28
ATOM     28  N   UNL     1      46.186 159.189  33.138  0.00  0.00    -0.243 NA
ATOM     29  H   UNL     1      45.642 159.519  32.341  0.00  0.00    +0.129 HD
ATOM     30  H   UNL     1      46.019 159.797  33.940  0.00  0.00    +0.129 HD
ENDBRANCH  26  28
BRANCH  26  31
ATOM     31  O   UNL     1      48.862 158.672  34.022  0.00  0.00    -0.318 OA
ATOM     32  H   UNL     1      49.791 158.705  33.746  0.00  0.00    +0.220 HD
ENDBRANCH  26  31
ENDBRANCH   1  26
TORSDOF 8
