REMARK  Name = =
REMARK  0 active torsions:
REMARK  status: ('A' for Active; 'I' for Inactive)
REMARK                            x       y       z     vdW  Elec       q    Type
REMARK                         _______ _______ _______ _____ _____    ______ ____
ROOT
ATOM      1  O   UNL     1      52.595 156.629  28.188  0.00  0.00    -0.476 OA
ATOM      2  C   UNL     1      51.687 156.415  29.241  0.00  0.00    +0.206 C 
ATOM      3  C   UNL     1      51.323 154.978  29.450  0.00  0.00    +0.052 C 
ATOM      4  C   UNL     1      52.181 154.003  28.731  0.00  0.00    +0.033 C 
ATOM      5  C   UNL     1      52.556 154.420  27.368  0.00  0.00    +0.012 C 
ATOM      6  C   UNL     1      52.758 155.757  27.125  0.00  0.00    +0.135 C 
ATOM      7  C   UNL     1      53.111 156.249  25.882  0.00  0.00    +0.037 C 
ATOM      8  C   UNL     1      53.271 155.365  24.832  0.00  0.00    +0.003 C 
ATOM      9  C   UNL     1      53.067 154.025  25.080  0.00  0.00    -0.000 C 
ATOM     10  C   UNL     1      52.714 153.529  26.322  0.00  0.00    -0.001 C 
ENDROOT
TORSDOF 0
