REMARK  Name = =
REMARK  0 active torsions:
REMARK  status: ('A' for Active; 'I' for Inactive)
REMARK                            x       y       z     vdW  Elec       q    Type
REMARK                         _______ _______ _______ _____ _____    ______ ____
ROOT
ATOM      1  N   UNL     1      50.805 155.388  29.080  0.00  0.00    -0.235 N 
ATOM      2  N   UNL     1      51.507 154.964  28.074  0.00  0.00    -0.180 NA
ATOM      3  C   UNL     1      52.528 155.788  27.801  0.00  0.00    +0.119 C 
ATOM      4  C   UNL     1      52.448 156.812  28.722  0.00  0.00    +0.040 C 
ATOM      5  C   UNL     1      51.354 156.528  29.510  0.00  0.00    +0.081 C 
ATOM      6  H   UNL     1      50.010 154.948  29.459  0.00  0.00    +0.174 HD
ENDROOT
TORSDOF 0
