REMARK  Name = =
REMARK  0 active torsions:
REMARK  status: ('A' for Active; 'I' for Inactive)
REMARK                            x       y       z     vdW  Elec       q    Type
REMARK                         _______ _______ _______ _____ _____    ______ ____
ROOT
ATOM      1  O   UNL     1      52.396 155.831  28.229  0.00  0.00    -0.445 OA
ATOM      2  C   UNL     1      51.342 154.966  28.684  0.00  0.00    +0.213 C 
ATOM      3  C   UNL     1      51.897 153.564  28.670  0.00  0.00    +0.074 C 
ATOM      4  C   UNL     1      52.319 153.254  27.297  0.00  0.00    -0.016 C 
ATOM      5  C   UNL     1      52.743 154.201  26.499  0.00  0.00    +0.077 C 
ATOM      6  C   UNL     1      52.813 155.604  26.924  0.00  0.00    +0.341 C 
ATOM      7  O   UNL     1      53.227 156.468  26.127  0.00  0.00    -0.245 OA
ENDROOT
TORSDOF 0
