REMARK  Name = =
REMARK  1 active torsions:
REMARK  status: ('A' for Active; 'I' for Inactive)
REMARK    1  A    between atoms: C_1  and  N_12
REMARK                            x       y       z     vdW  Elec       q    Type
REMARK                         _______ _______ _______ _____ _____    ______ ____
ROOT
ATOM      1  C   UNL     1      52.716 151.921  26.184  0.00  0.00    +0.214 C 
ATOM      2  O   UNL     1      53.745 152.799  25.940  0.00  0.00    -0.316 OA
ATOM      3  C   UNL     1      53.336 154.078  26.317  0.00  0.00    +0.189 C 
ATOM      4  O   UNL     1      52.093 154.421  25.862  0.00  0.00    -0.334 OA
ATOM      5  C   UNL     1      52.060 154.973  24.603  0.00  0.00    +0.145 C 
ATOM      6  C   UNL     1      52.881 156.218  24.453  0.00  0.00    +0.032 C 
ATOM      7  C   UNL     1      53.656 156.423  25.751  0.00  0.00    +0.008 C 
ATOM      8  C   UNL     1      54.406 155.108  25.973  0.00  0.00    +0.056 C 
ATOM      9  C   UNL     1      53.252 154.110  27.851  0.00  0.00    +0.056 C 
ATOM     10  C   UNL     1      52.288 153.087  28.363  0.00  0.00    +0.009 C 
ATOM     11  C   UNL     1      52.343 151.791  27.625  0.00  0.00    +0.053 C 
ENDROOT
BRANCH   1  12
ATOM     12  N   UNL     1      53.072 150.583  25.705  0.00  0.00    -0.185 N 
ATOM     13  N   UNL     1      52.413 149.464  25.951  0.00  0.00    -0.174 NA
ATOM     14  C   UNL     1      53.008 148.419  25.363  0.00  0.00    +0.119 C 
ATOM     15  C   UNL     1      54.116 148.894  24.699  0.00  0.00    +0.040 C 
ATOM     16  C   UNL     1      54.120 150.252  24.939  0.00  0.00    +0.088 C 
ENDBRANCH   1  12
TORSDOF 1
