REMARK  Name = =
REMARK  3 active torsions:
REMARK  status: ('A' for Active; 'I' for Inactive)
REMARK    1  A    between atoms: C_2  and  C_11
REMARK    2  A    between atoms: C_13  and  O_18
REMARK    3  A    between atoms: C_14  and  O_17
REMARK                            x       y       z     vdW  Elec       q    Type
REMARK                         _______ _______ _______ _____ _____    ______ ____
ROOT
ATOM      1  O   UNL     1      51.994 156.897  28.150  0.00  0.00    -0.475 OA
ATOM      2  C   UNL     1      50.964 156.750  29.107  0.00  0.00    +0.189 C 
ATOM      3  C   UNL     1      51.167 155.556  29.989  0.00  0.00    +0.053 C 
ATOM      4  C   UNL     1      51.705 154.356  29.289  0.00  0.00    +0.033 C 
ATOM      5  C   UNL     1      52.389 154.584  28.023  0.00  0.00    +0.012 C 
ATOM      6  C   UNL     1      52.528 155.819  27.471  0.00  0.00    +0.135 C 
ATOM      7  C   UNL     1      53.193 155.991  26.251  0.00  0.00    +0.037 C 
ATOM      8  C   UNL     1      53.701 154.885  25.627  0.00  0.00    +0.003 C 
ATOM      9  C   UNL     1      53.560 153.633  26.185  0.00  0.00    -0.000 C 
ATOM     10  C   UNL     1      52.908 153.458  27.383  0.00  0.00    -0.001 C 
ENDROOT
BRANCH   2  11
ATOM     11  C   UNL     1      50.886 158.008  29.875  0.00  0.00    +0.020 C 
ATOM     12  C   UNL     1      49.769 158.432  30.558  0.00  0.00    +0.039 C 
ATOM     13  C   UNL     1      49.786 159.627  31.254  0.00  0.00    +0.167 C 
ATOM     14  C   UNL     1      50.927 160.422  31.278  0.00  0.00    +0.167 C 
ATOM     15  C   UNL     1      52.025 160.004  30.606  0.00  0.00    +0.040 C 
ATOM     16  C   UNL     1      52.002 158.810  29.913  0.00  0.00    +0.002 C 
BRANCH  14  17
ATOM     17  O   UNL     1      50.950 161.633  31.981  0.00  0.00    -0.503 OA
ATOM     18  H   UNL     1      50.188 161.920  32.445  0.00  0.00    +0.292 HD
ENDBRANCH  14  17
BRANCH  13  19
ATOM     19  O   UNL     1      48.691 160.103  31.959  0.00  0.00    -0.503 OA
ATOM     20  H   UNL     1      47.895 159.609  31.978  0.00  0.00    +0.292 HD
ENDBRANCH  13  19
ENDBRANCH   2  11
TORSDOF 3
