REMARK  Name = =
REMARK  2 active torsions:
REMARK  status: ('A' for Active; 'I' for Inactive)
REMARK    1  A    between atoms: C_1  and  C_8
REMARK    2  A    between atoms: C_3  and  C_14
REMARK                            x       y       z     vdW  Elec       q    Type
REMARK                         _______ _______ _______ _____ _____    ______ ____
ROOT
ATOM      1  C   UNL     1      52.772 155.157  27.195  0.00  0.00    +0.018 C 
ATOM      2  C   UNL     1      51.680 155.246  28.011  0.00  0.00    +0.009 C 
ATOM      3  C   UNL     1      51.305 156.441  28.592  0.00  0.00    +0.068 C 
ATOM      4  C   UNL     1      52.037 157.595  28.357  0.00  0.00    +0.010 C 
ATOM      5  C   UNL     1      53.148 157.527  27.532  0.00  0.00    +0.000 C 
ATOM      6  C   UNL     1      53.490 156.316  26.971  0.00  0.00    -0.001 C 
ENDROOT
BRANCH   1   8
ATOM      7  O   UNL     1      53.929 154.317  25.365  0.00  0.00    -0.444 OA
ATOM      8  C   UNL     1      53.231 153.900  26.539  0.00  0.00    +0.196 C 
ATOM      9  C   UNL     1      52.127 153.006  26.128  0.00  0.00    +0.075 C 
ATOM     10  C   UNL     1      52.673 151.850  25.390  0.00  0.00    -0.015 C 
ATOM     11  C   UNL     1      53.786 151.996  24.701  0.00  0.00    +0.077 C 
ATOM     12  C   UNL     1      54.521 153.271  24.629  0.00  0.00    +0.341 C 
ATOM     13  O   UNL     1      55.580 153.417  23.973  0.00  0.00    -0.245 OA
ENDBRANCH   1   8
BRANCH   3  14
ATOM     14  C   UNL     1      50.164 156.564  29.453  0.00  0.00    +0.100 C 
ATOM     15  N   UNL     1      49.234 156.658  30.163  0.00  0.00    -0.191 NA
ENDBRANCH   3  14
TORSDOF 2
