REMARK  Name = =
REMARK  4 active torsions:
REMARK  status: ('A' for Active; 'I' for Inactive)
REMARK    1  A    between atoms: C_2  and  C_16
REMARK    2  A    between atoms: C_10  and  N_11
REMARK    3  A    between atoms: C_18  and  O_23
REMARK    4  A    between atoms: C_19  and  O_22
REMARK                            x       y       z     vdW  Elec       q    Type
REMARK                         _______ _______ _______ _____ _____    ______ ____
ROOT
ATOM      1  O   UNL     1      50.982 156.599  27.976  0.00  0.00    -0.475 OA
ATOM      2  C   UNL     1      50.233 156.279  29.158  0.00  0.00    +0.189 C 
ATOM      3  C   UNL     1      50.843 155.111  29.827  0.00  0.00    +0.053 C 
ATOM      4  C   UNL     1      52.381 155.161  29.665  0.00  0.00    +0.035 C 
ATOM      5  C   UNL     1      52.636 154.919  28.250  0.00  0.00    +0.025 C 
ATOM      6  C   UNL     1      51.852 155.695  27.377  0.00  0.00    +0.136 C 
ATOM      7  C   UNL     1      51.967 155.543  26.032  0.00  0.00    +0.037 C 
ATOM      8  C   UNL     1      52.860 154.624  25.542  0.00  0.00    +0.004 C 
ATOM      9  C   UNL     1      53.620 153.872  26.397  0.00  0.00    +0.014 C 
ATOM     10  C   UNL     1      53.541 153.988  27.800  0.00  0.00    +0.048 C 
ENDROOT
BRANCH  10  11
ATOM     11  N   UNL     1      54.382 153.220  28.633  0.00  0.00    -0.293 N 
ATOM     12  C   UNL     1      55.734 152.844  28.169  0.00  0.00    +0.165 C 
ATOM     13  N   UNL     1      56.294 151.947  29.112  0.00  0.00    -0.279 NA
ATOM     14  C   UNL     1      55.798 152.497  30.371  0.00  0.00    +0.092 C 
ATOM     15  C   UNL     1      54.310 152.669  29.953  0.00  0.00    +0.109 C 
ATOM     16  H   UNL     1      57.313 151.958  29.077  0.00  0.00    +0.125 HD
ENDBRANCH  10  11
BRANCH   2  17
ATOM     17  C   UNL     1      50.031 157.471  29.973  0.00  0.00    +0.020 C 
ATOM     18  C   UNL     1      49.902 158.680  29.278  0.00  0.00    +0.039 C 
ATOM     19  C   UNL     1      49.708 159.875  29.935  0.00  0.00    +0.167 C 
ATOM     20  C   UNL     1      49.638 159.897  31.313  0.00  0.00    +0.167 C 
ATOM     21  C   UNL     1      49.762 158.734  32.014  0.00  0.00    +0.040 C 
ATOM     22  C   UNL     1      49.957 157.527  31.342  0.00  0.00    +0.002 C 
BRANCH  20  23
ATOM     23  O   UNL     1      49.439 161.130  31.963  0.00  0.00    -0.503 OA
ATOM     24  H   UNL     1      49.357 161.917  31.461  0.00  0.00    +0.292 HD
ENDBRANCH  20  23
BRANCH  19  25
ATOM     25  O   UNL     1      49.577 161.085  29.253  0.00  0.00    -0.503 OA
ATOM     26  H   UNL     1      49.620 161.102  28.317  0.00  0.00    +0.292 HD
ENDBRANCH  19  25
ENDBRANCH   2  17
TORSDOF 4
