REMARK  Name = =
REMARK  4 active torsions:
REMARK  status: ('A' for Active; 'I' for Inactive)
REMARK    1  A    between atoms: C_1  and  C_8
REMARK    2  A    between atoms: C_2  and  C_16
REMARK    3  A    between atoms: C_3  and  C_14
REMARK    4  A    between atoms: C_16  and  C_18
REMARK                            x       y       z     vdW  Elec       q    Type
REMARK                         _______ _______ _______ _____ _____    ______ ____
ROOT
ATOM      1  C   UNL     1      53.552 155.284  26.478  0.00  0.00    +0.017 C 
ATOM      2  C   UNL     1      53.376 153.883  26.600  0.00  0.00    +0.026 C 
ATOM      3  C   UNL     1      53.303 153.079  25.420  0.00  0.00    +0.067 C 
ATOM      4  C   UNL     1      53.414 153.608  24.193  0.00  0.00    +0.010 C 
ATOM      5  C   UNL     1      53.599 155.003  24.080  0.00  0.00    +0.000 C 
ATOM      6  C   UNL     1      53.654 155.768  25.207  0.00  0.00    -0.001 C 
ENDROOT
BRANCH   1   8
ATOM      7  O   UNL     1      52.510 155.300  28.511  0.00  0.00    -0.444 OA
ATOM      8  C   UNL     1      53.490 156.024  27.729  0.00  0.00    +0.196 C 
ATOM      9  C   UNL     1      53.165 157.438  27.632  0.00  0.00    +0.075 C 
ATOM     10  C   UNL     1      51.908 157.935  28.199  0.00  0.00    -0.015 C 
ATOM     11  C   UNL     1      51.037 157.193  28.853  0.00  0.00    +0.077 C 
ATOM     12  C   UNL     1      51.381 155.803  29.002  0.00  0.00    +0.341 C 
ATOM     13  O   UNL     1      50.573 155.027  29.633  0.00  0.00    -0.245 OA
ENDBRANCH   1   8
BRANCH   3  14
ATOM     14  C   UNL     1      52.893 151.668  25.690  0.00  0.00    +0.100 C 
ATOM     15  N   UNL     1      52.568 150.611  25.905  0.00  0.00    -0.191 NA
ENDBRANCH   3  14
BRANCH   2  16
ATOM     16  C   UNL     1      53.392 153.207  27.833  0.00  0.00    +0.250 C 
ATOM     17  O   UNL     1      54.693 153.299  28.383  0.00  0.00    -0.208 OA
BRANCH  16  18
ATOM     18  C   UNL     1      52.647 152.485  28.698  0.00  0.00    +0.254 C 
ATOM     19  O   UNL     1      51.375 152.218  28.532  0.00  0.00    -0.272 OA
ATOM     20  N   UNL     1      53.113 151.893  29.937  0.00  0.00    -0.326 N 
ATOM     21  H   UNL     1      54.052 152.001  30.212  0.00  0.00    +0.145 HD
ATOM     22  H   UNL     1      52.490 151.383  30.504  0.00  0.00    +0.145 HD
ENDBRANCH  16  18
ENDBRANCH   2  16
TORSDOF 4
