REMARK  Name = =
REMARK  2 active torsions:
REMARK  status: ('A' for Active; 'I' for Inactive)
REMARK    1  A    between atoms: C_1  and  C_12
REMARK    2  A    between atoms: C_1  and  N_21
REMARK                            x       y       z     vdW  Elec       q    Type
REMARK                         _______ _______ _______ _____ _____    ______ ____
ROOT
ATOM      1  C   UNL     1      53.682 152.830  26.451  0.00  0.00    +0.193 C 
ATOM      2  O   UNL     1      54.075 153.821  25.601  0.00  0.00    -0.317 OA
ATOM      3  C   UNL     1      53.384 155.008  25.668  0.00  0.00    +0.189 C 
ATOM      4  O   UNL     1      54.287 155.996  25.248  0.00  0.00    -0.334 OA
ATOM      5  C   UNL     1      53.745 157.246  25.167  0.00  0.00    +0.145 C 
ATOM      6  C   UNL     1      52.527 157.332  24.267  0.00  0.00    +0.032 C 
ATOM      7  C   UNL     1      52.266 155.971  23.641  0.00  0.00    +0.008 C 
ATOM      8  C   UNL     1      52.207 154.892  24.701  0.00  0.00    +0.056 C 
ATOM      9  C   UNL     1      52.928 155.399  27.047  0.00  0.00    +0.056 C 
ATOM     10  C   UNL     1      51.987 154.328  27.546  0.00  0.00    +0.010 C 
ATOM     11  C   UNL     1      52.356 152.964  27.076  0.00  0.00    +0.053 C 
ENDROOT
BRANCH   1  12
ATOM     12  C   UNL     1      54.786 152.604  27.413  0.00  0.00    +0.025 C 
ATOM     13  C   UNL     1      54.654 152.731  28.769  0.00  0.00    +0.040 C 
ATOM     14  C   UNL     1      55.701 152.512  29.652  0.00  0.00    +0.176 C 
ATOM     15  C   UNL     1      56.940 152.151  29.176  0.00  0.00    +0.176 C 
ATOM     16  C   UNL     1      57.117 152.011  27.807  0.00  0.00    +0.040 C 
ATOM     17  C   UNL     1      56.058 152.235  26.953  0.00  0.00    +0.003 C 
ATOM     18  O   UNL     1      57.805 151.993  30.254  0.00  0.00    -0.435 OA
ATOM     19  C   UNL     1      57.060 152.035  31.455  0.00  0.00    +0.429 C 
ATOM     20  O   UNL     1      55.816 152.575  31.034  0.00  0.00    -0.435 OA
ENDBRANCH   1  12
BRANCH   1  21
ATOM     21  N   UNL     1      53.630 151.591  25.648  0.00  0.00    -0.185 N 
ATOM     22  N   UNL     1      54.201 151.333  24.498  0.00  0.00    -0.174 NA
ATOM     23  C   UNL     1      53.936 150.099  24.061  0.00  0.00    +0.119 C 
ATOM     24  C   UNL     1      53.128 149.521  25.013  0.00  0.00    +0.040 C 
ATOM     25  C   UNL     1      52.951 150.470  25.993  0.00  0.00    +0.088 C 
ENDBRANCH   1  21
TORSDOF 2
