REMARK  Name = =
REMARK  6 active torsions:
REMARK  status: ('A' for Active; 'I' for Inactive)
REMARK    1  A    between atoms: C_2  and  C_16
REMARK    2  A    between atoms: C_4  and  S_24
REMARK    3  A    between atoms: C_10  and  N_11
REMARK    4  A    between atoms: C_18  and  O_23
REMARK    5  A    between atoms: C_19  and  O_22
REMARK    6  A    between atoms: S_24  and  N_27
REMARK                            x       y       z     vdW  Elec       q    Type
REMARK                         _______ _______ _______ _____ _____    ______ ____
ROOT
ATOM      1  O   UNL     1      51.225 157.196  27.464  0.00  0.00    -0.475 OA
ATOM      2  C   UNL     1      51.869 157.968  28.502  0.00  0.00    +0.190 C 
ATOM      3  C   UNL     1      52.583 157.090  29.463  0.00  0.00    +0.078 C 
ATOM      4  C   UNL     1      52.684 155.632  29.020  0.00  0.00    +0.175 C 
ATOM      5  C   UNL     1      52.842 155.485  27.563  0.00  0.00    +0.048 C 
ATOM      6  C   UNL     1      52.045 156.311  26.754  0.00  0.00    +0.138 C 
ATOM      7  C   UNL     1      52.108 156.218  25.396  0.00  0.00    +0.037 C 
ATOM      8  C   UNL     1      52.947 155.322  24.767  0.00  0.00    +0.004 C 
ATOM      9  C   UNL     1      53.714 154.531  25.588  0.00  0.00    +0.014 C 
ATOM     10  C   UNL     1      53.687 154.586  26.972  0.00  0.00    +0.049 C 
ENDROOT
BRANCH  10  11
ATOM     11  N   UNL     1      54.534 153.723  27.708  0.00  0.00    -0.293 N 
ATOM     12  C   UNL     1      54.457 153.487  29.125  0.00  0.00    +0.165 C 
ATOM     13  N   UNL     1      55.063 152.146  29.270  0.00  0.00    -0.279 NA
ATOM     14  C   UNL     1      56.257 152.369  28.439  0.00  0.00    +0.092 C 
ATOM     15  C   UNL     1      55.637 152.908  27.174  0.00  0.00    +0.109 C 
ATOM     16  H   UNL     1      54.465 151.409  28.896  0.00  0.00    +0.125 HD
ENDBRANCH  10  11
BRANCH   2  17
ATOM     17  C   UNL     1      50.797 158.732  29.215  0.00  0.00    +0.020 C 
ATOM     18  C   UNL     1      51.009 159.909  29.884  0.00  0.00    +0.039 C 
ATOM     19  C   UNL     1      49.956 160.554  30.544  0.00  0.00    +0.167 C 
ATOM     20  C   UNL     1      48.681 160.045  30.550  0.00  0.00    +0.167 C 
ATOM     21  C   UNL     1      48.478 158.861  29.873  0.00  0.00    +0.040 C 
ATOM     22  C   UNL     1      49.492 158.216  29.224  0.00  0.00    +0.002 C 
BRANCH  20  23
ATOM     23  O   UNL     1      47.629 160.692  31.211  0.00  0.00    -0.503 OA
ATOM     24  H   UNL     1      47.786 161.496  31.666  0.00  0.00    +0.292 HD
ENDBRANCH  20  23
BRANCH  19  25
ATOM     25  O   UNL     1      50.208 161.738  31.207  0.00  0.00    -0.503 OA
ATOM     26  H   UNL     1      51.073 162.097  31.212  0.00  0.00    +0.292 HD
ENDBRANCH  19  25
ENDBRANCH   2  17
BRANCH   4  27
ATOM     27  S   UNL     1      51.195 154.844  29.633  0.00  0.00    +0.040 S 
ATOM     28  O   UNL     1      50.880 153.578  28.923  0.00  0.00    -0.157 OA
ATOM     29  O   UNL     1      50.025 155.810  29.491  0.00  0.00    -0.157 OA
BRANCH  27  30
ATOM     30  N   UNL     1      51.401 154.630  31.341  0.00  0.00    -0.207 NA
ATOM     31  H   UNL     1      52.175 153.989  31.512  0.00  0.00    +0.144 HD
ATOM     32  H   UNL     1      50.545 154.245  31.741  0.00  0.00    +0.144 HD
ENDBRANCH  27  30
ENDBRANCH   4  27
TORSDOF 6
