REMARK  Name = =
REMARK  1 active torsions:
REMARK  status: ('A' for Active; 'I' for Inactive)
REMARK    1  A    between atoms: C_24  and  N_35
REMARK                            x       y       z     vdW  Elec       q    Type
REMARK                         _______ _______ _______ _____ _____    ______ ____
ROOT
ATOM      1  C   UNL     1      51.704 160.115  30.484  0.00  0.00    +0.025 C 
ATOM      2  C   UNL     1      52.370 161.310  30.751  0.00  0.00    +0.040 C 
ATOM      3  C   UNL     1      53.732 161.438  30.608  0.00  0.00    +0.176 C 
ATOM      4  C   UNL     1      54.499 160.374  30.191  0.00  0.00    +0.176 C 
ATOM      5  C   UNL     1      53.849 159.197  29.926  0.00  0.00    +0.040 C 
ATOM      6  C   UNL     1      52.439 159.066  30.074  0.00  0.00    +0.003 C 
ATOM      7  O   UNL     1      55.804 160.839  30.157  0.00  0.00    -0.435 OA
ATOM      8  C   UNL     1      55.850 162.230  30.350  0.00  0.00    +0.429 C 
ATOM      9  O   UNL     1      54.577 162.546  30.827  0.00  0.00    -0.435 OA
ATOM     10  C   UNL     1      51.911 157.768  29.740  0.00  0.00    -0.004 C 
ATOM     11  C   UNL     1      50.911 157.103  30.380  0.00  0.00    -0.018 C 
ATOM     12  C   UNL     1      50.420 155.914  29.910  0.00  0.00    -0.004 C 
ATOM     13  C   UNL     1      50.956 155.377  28.751  0.00  0.00    -0.000 C 
ATOM     14  C   UNL     1      51.970 155.994  28.048  0.00  0.00    -0.000 C 
ATOM     15  C   UNL     1      52.424 157.187  28.570  0.00  0.00    -0.000 C 
ATOM     16  C   UNL     1      53.450 157.820  27.867  0.00  0.00    -0.000 C 
ATOM     17  C   UNL     1      53.991 157.298  26.718  0.00  0.00    -0.000 C 
ATOM     18  C   UNL     1      53.517 156.111  26.226  0.00  0.00    -0.000 C 
ATOM     19  C   UNL     1      52.494 155.445  26.895  0.00  0.00    -0.000 C 
ATOM     20  C   UNL     1      52.020 154.254  26.399  0.00  0.00    -0.000 C 
ATOM     21  C   UNL     1      52.596 153.765  25.234  0.00  0.00    +0.000 C 
ATOM     22  C   UNL     1      53.598 154.406  24.568  0.00  0.00    +0.000 C 
ATOM     23  C   UNL     1      54.080 155.595  25.053  0.00  0.00    +0.000 C 
ATOM     24  C   UNL     1      50.243 160.105  30.678  0.00  0.00    +0.197 C 
ATOM     25  O   UNL     1      49.738 160.748  29.571  0.00  0.00    -0.317 OA
ATOM     26  C   UNL     1      48.512 160.548  29.080  0.00  0.00    +0.189 C 
ATOM     27  O   UNL     1      48.716 160.354  27.698  0.00  0.00    -0.334 OA
ATOM     28  C   UNL     1      48.654 161.505  26.962  0.00  0.00    +0.145 C 
ATOM     29  C   UNL     1      47.267 162.092  26.860  0.00  0.00    +0.032 C 
ATOM     30  C   UNL     1      46.672 162.070  28.228  0.00  0.00    +0.008 C 
ATOM     31  C   UNL     1      47.662 161.777  29.331  0.00  0.00    +0.056 C 
ATOM     32  C   UNL     1      47.745 159.329  29.508  0.00  0.00    +0.057 C 
ATOM     33  C   UNL     1      48.262 158.741  30.795  0.00  0.00    +0.014 C 
ATOM     34  C   UNL     1      49.777 158.643  30.678  0.00  0.00    +0.071 C 
ENDROOT
BRANCH  24  35
ATOM     35  N   UNL     1      49.889 160.732  31.908  0.00  0.00    -0.185 N 
ATOM     36  N   UNL     1      49.516 161.977  32.087  0.00  0.00    -0.174 NA
ATOM     37  C   UNL     1      49.213 162.219  33.360  0.00  0.00    +0.119 C 
ATOM     38  C   UNL     1      49.402 161.050  34.065  0.00  0.00    +0.040 C 
ATOM     39  C   UNL     1      49.825 160.141  33.124  0.00  0.00    +0.088 C 
ENDBRANCH  24  35
TORSDOF 1
