MODEL 1
REMARK VINA RESULT:    -6.983      0.000      0.000
REMARK INTER + INTRA:          -9.479
REMARK INTER:                  -9.637
REMARK INTRA:                   0.158
REMARK UNBOUND:                 0.158
REMARK  Name = =
REMARK  7 active torsions:
REMARK  status: ('A' for Active; 'I' for Inactive)
REMARK    1  A    between atoms: C_1  and  C_19
REMARK    2  A    between atoms: C_6  and  C_40
REMARK    3  A    between atoms: C_19  and  N_36
REMARK    4  A    between atoms: N_36  and  C_37
REMARK    5  A    between atoms: C_37  and  C_38
REMARK    6  A    between atoms: C_38  and  O_39
REMARK    7  A    between atoms: C_40  and  C_42
REMARK                            x       y       z     vdW  Elec       q    Type
REMARK                         _______ _______ _______ _____ _____    ______ ____
ROOT
ATOM      1  C   UNL     1      59.326 164.611  39.599  0.00  0.00    -0.001 C 
ATOM      2  C   UNL     1      58.608 163.588  40.179  0.00  0.00    -0.007 C 
ATOM      3  C   UNL     1      57.578 163.847  41.059  0.00  0.00    -0.022 C 
ATOM      4  C   UNL     1      57.225 165.124  41.392  0.00  0.00    -0.021 C 
ATOM      5  C   UNL     1      57.923 166.152  40.824  0.00  0.00    -0.001 C 
ATOM      6  C   UNL     1      58.981 165.908  39.922  0.00  0.00    +0.040 C 
ATOM      7  C   UNL     1      56.089 165.383  42.359  0.00  0.00    +0.052 C 
ATOM      8  C   UNL     1      55.030 164.343  42.051  0.00  0.00    -0.026 C 
ATOM      9  C   UNL     1      55.390 163.117  41.727  0.00  0.00    -0.022 C 
ATOM     10  C   UNL     1      54.393 162.105  41.431  0.00  0.00    -0.005 C 
ATOM     11  C   UNL     1      53.125 162.408  41.486  0.00  0.00    -0.005 C 
ATOM     12  C   UNL     1      52.670 163.728  41.838  0.00  0.00    -0.026 C 
ATOM     13  C   UNL     1      53.643 164.778  42.120  0.00  0.00    -0.030 C 
ATOM     14  C   UNL     1      53.362 166.136  41.581  0.00  0.00    +0.026 C 
ATOM     15  C   UNL     1      52.046 166.296  40.877  0.00  0.00    +0.005 C 
ATOM     16  C   UNL     1      50.992 165.568  41.671  0.00  0.00    +0.005 C 
ATOM     17  C   UNL     1      51.257 164.074  41.648  0.00  0.00    +0.026 C 
ATOM     18  C   UNL     1      56.838 162.728  41.665  0.00  0.00    +0.052 C 
ENDROOT
BRANCH   1  19
ATOM     19  C   UNL     1      60.471 164.317  38.671  0.00  0.00    +0.096 C 
ATOM     20  C   UNL     1      61.680 165.054  39.241  0.00  0.00    +0.025 C 
ATOM     21  C   UNL     1      62.773 165.113  38.157  0.00  0.00    +0.006 C 
ATOM     22  C   UNL     1      62.278 166.103  37.141  0.00  0.00    +0.018 C 
ATOM     23  C   UNL     1      63.294 166.449  36.110  0.00  0.00    +0.004 C 
ATOM     24  C   UNL     1      63.472 167.927  35.905  0.00  0.00    +0.000 C 
ATOM     25  C   UNL     1      64.570 168.188  34.922  0.00  0.00    +0.000 C 
ATOM     26  C   UNL     1      64.404 167.417  33.636  0.00  0.00    +0.000 C 
ATOM     27  C   UNL     1      64.158 165.946  33.886  0.00  0.00    +0.000 C 
ATOM     28  C   UNL     1      65.475 165.445  34.403  0.00  0.00    +0.000 C 
ATOM     29  C   UNL     1      66.533 166.343  33.756  0.00  0.00    +0.000 C 
ATOM     30  C   UNL     1      65.765 167.373  32.961  0.00  0.00    +0.000 C 
ATOM     31  C   UNL     1      63.041 165.690  34.857  0.00  0.00    +0.001 C 
ATOM     32  C   UNL     1      61.690 165.919  34.243  0.00  0.00    +0.004 C 
ATOM     33  C   UNL     1      60.605 166.154  35.249  0.00  0.00    +0.022 C 
ATOM     34  C   UNL     1      60.991 165.659  36.616  0.00  0.00    -0.047 C 
ATOM     35  C   UNL     1      60.192 164.870  37.308  0.00  0.00    -0.015 C 
BRANCH  19  36
ATOM     36  N   UNL     1      60.632 162.919  38.565  0.00  0.00    -0.210 NA
BRANCH  36  37
ATOM     37  C   UNL     1      60.375 162.220  37.384  0.00  0.00    +0.121 C 
BRANCH  37  38
ATOM     38  C   UNL     1      59.203 161.236  37.507  0.00  0.00    +0.156 C 
BRANCH  38  39
ATOM     39  O   UNL     1      58.512 161.106  36.306  0.00  0.00    -0.380 OA
ATOM     40  H   UNL     1      58.637 161.907  35.772  0.00  0.00    +0.211 HD
ENDBRANCH  38  39
ENDBRANCH  37  38
ENDBRANCH  36  37
ENDBRANCH  19  36
ENDBRANCH   1  19
BRANCH   6  41
ATOM     41  C   UNL     1      59.552 167.108  39.368  0.00  0.00    +0.237 C 
ATOM     42  O   UNL     1      59.128 167.611  38.322  0.00  0.00    -0.283 OA
BRANCH  41  43
ATOM     43  C   UNL     1      60.658 167.746  40.046  0.00  0.00    +0.276 C 
ATOM     44  O   UNL     1      61.403 168.589  39.548  0.00  0.00    -0.280 OA
ENDBRANCH  41  43
ENDBRANCH   6  41
TORSDOF 7
ENDMDL
