REMARK  Name = =
REMARK  7 active torsions:
REMARK  status: ('A' for Active; 'I' for Inactive)
REMARK    1  A    between atoms: C_2  and  N_12
REMARK    2  A    between atoms: C_4  and  C_26
REMARK    3  A    between atoms: C_6  and  C_9
REMARK    4  A    between atoms: C_16  and  O_22
REMARK    5  A    between atoms: O_22  and  C_23
REMARK    6  A    between atoms: C_23  and  O_25
REMARK    7  A    between atoms: C_26  and  O_28
REMARK                            x       y       z     vdW  Elec       q    Type
REMARK                         _______ _______ _______ _____ _____    ______ ____
ROOT
ATOM      1  C   UNL     1     -11.760 -44.104  31.520  0.00  0.00    +0.020 C 
ATOM      2  C   UNL     1     -10.422 -43.847  31.729  0.00  0.00    +0.056 C 
ATOM      3  C   UNL     1     -10.022 -42.950  32.705  0.00  0.00    +0.050 C 
ATOM      4  C   UNL     1     -10.992 -42.324  33.458  0.00  0.00    +0.088 C 
ATOM      5  C   UNL     1     -12.327 -42.585  33.246  0.00  0.00    +0.041 C 
ATOM      6  C   UNL     1     -12.749 -43.483  32.270  0.00  0.00    +0.060 C 
ATOM      7  I   UNL     1     -13.791 -41.609  34.419  0.00  0.00    -0.042 I 
ATOM      8  I   UNL     1      -8.002 -42.546  33.035  0.00  0.00    -0.041 I 
ENDROOT
BRANCH   6   9
ATOM      9  C   UNL     1     -14.170 -43.734  32.073  0.00  0.00    +0.243 C 
ATOM     10  O   UNL     1     -14.838 -42.888  31.397  0.00  0.00    -0.270 OA
ATOM     11  N   UNL     1     -14.803 -44.866  32.602  0.00  0.00    -0.325 N 
ATOM     12  H   UNL     1     -14.285 -45.520  33.125  0.00  0.00    +0.145 HD
ATOM     13  H   UNL     1     -15.765 -45.008  32.451  0.00  0.00    +0.145 HD
ENDBRANCH   6   9
BRANCH   2  14
ATOM     14  N   UNL     1      -9.483 -44.527  30.915  0.00  0.00    -0.276 N 
ATOM     15  C   UNL     1      -9.089 -43.878  29.692  0.00  0.00    +0.304 C 
ATOM     16  O   UNL     1      -9.574 -42.763  29.395  0.00  0.00    -0.265 OA
ATOM     17  H   UNL     1      -9.117 -45.403  31.174  0.00  0.00    +0.155 HD
ENDBRANCH   2  14
BRANCH   4  18
ATOM     18  C   UNL     1     -10.619 -41.380  34.488  0.00  0.00    +0.339 C 
ATOM     19  O   UNL     1      -9.425 -41.310  34.917  0.00  0.00    -0.245 OA
BRANCH  18  20
ATOM     20  O   UNL     1     -11.523 -40.504  35.065  0.00  0.00    -0.477 OA
ATOM     21  H   UNL     1     -12.419 -40.507  34.791  0.00  0.00    +0.295 HD
ENDBRANCH  18  20
ENDBRANCH   4  18
TORSDOF 4
REMARK  Name = =
REMARK  7 active torsions:
REMARK  status: ('A' for Active; 'I' for Inactive)
REMARK    1  A    between atoms: C_2  and  N_12
REMARK    2  A    between atoms: C_4  and  C_26
REMARK    3  A    between atoms: C_6  and  C_9
REMARK    4  A    between atoms: C_16  and  O_22
REMARK    5  A    between atoms: O_22  and  C_23
REMARK    6  A    between atoms: C_23  and  O_25
REMARK    7  A    between atoms: C_26  and  O_28
REMARK                            x       y       z     vdW  Elec       q    Type
REMARK                         _______ _______ _______ _____ _____    ______ ____
ROOT
ATOM      1  I   UNL     1     -12.315 -45.460  30.042  0.00  0.00    -0.107 I 
ATOM      2  H   UNL     1     -10.754 -45.460  30.042  0.00  0.00    +0.107 HD
ENDROOT
TORSDOF 0
REMARK  Name = =
REMARK  7 active torsions:
REMARK  status: ('A' for Active; 'I' for Inactive)
REMARK    1  A    between atoms: C_2  and  N_12
REMARK    2  A    between atoms: C_4  and  C_26
REMARK    3  A    between atoms: C_6  and  C_9
REMARK    4  A    between atoms: C_16  and  O_22
REMARK    5  A    between atoms: O_22  and  C_23
REMARK    6  A    between atoms: C_23  and  O_25
REMARK    7  A    between atoms: C_26  and  O_28
REMARK                            x       y       z     vdW  Elec       q    Type
REMARK                         _______ _______ _______ _____ _____    ______ ____
ROOT
ATOM      1  C   UNL     1     -14.059 -42.901  26.314  0.00  0.00    +0.274 C 
ATOM      2  C   UNL     1     -13.631 -44.209  26.147  0.00  0.00    +0.160 C 
ATOM      3  N   UNL     1     -13.146 -44.933  27.166  0.00  0.00    -0.216 NA
ATOM      4  C   UNL     1     -13.059 -44.390  28.415  0.00  0.00    +0.222 C 
ATOM      5  N   UNL     1     -13.479 -43.124  28.551  0.00  0.00    -0.122 NA
ATOM      6  N   UNL     1     -13.960 -42.396  27.557  0.00  0.00    -0.106 NA
ENDROOT
BRANCH   1   7
ATOM      7  O   UNL     1     -14.557 -42.177  25.237  0.00  0.00    -0.372 OA
BRANCH   7   8
ATOM      8  C   UNL     1     -15.927 -42.124  24.987  0.00  0.00    +0.515 C 
ATOM      9  O   UNL     1     -16.676 -42.286  25.997  0.00  0.00    -0.203 OA
BRANCH   8  10
ATOM     10  O   UNL     1     -16.446 -41.905  23.709  0.00  0.00    -0.449 OA
ATOM     11  H   UNL     1     -17.373 -41.876  23.579  0.00  0.00    +0.299 HD
ENDBRANCH   8  10
ENDBRANCH   7   8
ENDBRANCH   1   7
TORSDOF 3
