MODEL 1
REMARK VINA RESULT:   -11.488      0.000      0.000
REMARK INTER + INTRA:         -13.661
REMARK INTER:                 -14.174
REMARK INTRA:                   0.513
REMARK UNBOUND:                 0.513
REMARK  Name = =
REMARK  5 active torsions:
REMARK  status: ('A' for Active; 'I' for Inactive)
REMARK    1  A    between atoms: C_1  and  O_20
REMARK    2  A    between atoms: C_5  and  C_16
REMARK    3  A    between atoms: C_10  and  O_19
REMARK    4  A    between atoms: C_16  and  O_18
REMARK    5  A    between atoms: O_20  and  C_38
REMARK                            x       y       z     vdW  Elec       q    Type
REMARK                         _______ _______ _______ _____ _____    ______ ____
ROOT
ATOM      1  C   UNL     1      51.932 160.166  42.173  0.00  0.00    +0.153 C 
ATOM      2  C   UNL     1      50.888 161.026  41.905  0.00  0.00    +0.070 C 
ATOM      3  C   UNL     1      49.584 160.596  41.795  0.00  0.00    -0.012 C 
ATOM      4  C   UNL     1      49.329 159.228  41.966  0.00  0.00    +0.003 C 
ATOM      5  C   UNL     1      50.342 158.345  42.233  0.00  0.00    +0.078 C 
ATOM      6  C   UNL     1      51.630 158.831  42.333  0.00  0.00    +0.044 C 
ATOM      7  C   UNL     1      48.440 161.447  41.515  0.00  0.00    +0.053 C 
ATOM      8  C   UNL     1      48.740 162.882  41.341  0.00  0.00    -0.012 C 
ATOM      9  C   UNL     1      50.018 163.381  41.437  0.00  0.00    +0.069 C 
ATOM     10  C   UNL     1      50.228 164.736  41.263  0.00  0.00    +0.136 C 
ATOM     11  C   UNL     1      49.138 165.590  40.991  0.00  0.00    +0.037 C 
ATOM     12  C   UNL     1      47.865 165.111  40.892  0.00  0.00    +0.003 C 
ATOM     13  C   UNL     1      47.680 163.768  41.068  0.00  0.00    -0.004 C 
ATOM     14  C   UNL     1      51.114 162.465  41.720  0.00  0.00    +0.201 C 
ATOM     15  O   UNL     1      52.305 162.834  41.824  0.00  0.00    -0.286 OA
ENDROOT
BRANCH   5  16
ATOM     16  C   UNL     1      50.077 156.924  42.412  0.00  0.00    +0.338 C 
ATOM     17  O   UNL     1      49.058 156.556  43.034  0.00  0.00    -0.245 OA
BRANCH  16  18
ATOM     18  O   UNL     1      50.926 155.968  41.913  0.00  0.00    -0.477 OA
ATOM     19  H   UNL     1      50.578 155.190  41.522  0.00  0.00    +0.295 HD
ENDBRANCH  16  18
ENDBRANCH   5  16
BRANCH  10  20
ATOM     20  O   UNL     1      51.478 165.262  41.351  0.00  0.00    -0.505 OA
ATOM     21  H   UNL     1      51.792 165.839  40.684  0.00  0.00    +0.292 HD
ENDBRANCH  10  20
BRANCH   1  22
ATOM     22  O   UNL     1      53.204 160.695  42.263  0.00  0.00    -0.407 OA
BRANCH  22  40
ATOM     23  N   UNL     1      55.621 160.596  41.820  0.00  0.00    -0.163 N 
ATOM     24  N   UNL     1      56.795 159.980  41.669  0.00  0.00    -0.160 NA
ATOM     25  C   UNL     1      57.725 160.928  41.389  0.00  0.00    +0.103 A 
ATOM     26  C   UNL     1      59.155 160.938  41.119  0.00  0.00    +0.022 C 
ATOM     27  C   UNL     1      59.803 162.154  40.861  0.00  0.00    +0.040 C 
ATOM     28  C   UNL     1      59.082 163.409  40.856  0.00  0.00    +0.196 C 
ATOM     29  O   UNL     1      59.667 164.476  40.626  0.00  0.00    -0.287 OA
ATOM     30  C   UNL     1      57.655 163.349  41.130  0.00  0.00    +0.042 C 
ATOM     31  C   UNL     1      57.073 162.132  41.375  0.00  0.00    +0.040 A 
ATOM     32  C   UNL     1      55.757 161.922  41.647  0.00  0.00    +0.091 A 
ATOM     33  C   UNL     1      54.946 163.045  41.673  0.00  0.00    +0.019 C 
ATOM     34  C   UNL     1      55.504 164.305  41.426  0.00  0.00    +0.002 C 
ATOM     35  C   UNL     1      56.850 164.467  41.156  0.00  0.00    +0.003 C 
ATOM     36  C   UNL     1      61.158 162.117  40.610  0.00  0.00    +0.003 C 
ATOM     37  C   UNL     1      61.864 160.910  40.613  0.00  0.00    +0.000 C 
ATOM     38  C   UNL     1      61.201 159.732  40.870  0.00  0.00    +0.000 C 
ATOM     39  C   UNL     1      59.846 159.734  41.124  0.00  0.00    +0.002 C 
ATOM     40  C   UNL     1      54.362 159.974  42.125  0.00  0.00    +0.442 C 
ATOM     41  O   UNL     1      54.294 158.721  42.280  0.00  0.00    -0.221 OA
ENDBRANCH  22  40
ENDBRANCH   1  22
TORSDOF 5
ENDMDL
