REMARK  Name = =
REMARK  5 active torsions:
REMARK  status: ('A' for Active; 'I' for Inactive)
REMARK    1  A    between atoms: C_6  and  N_10
REMARK    2  A    between atoms: C_8  and  N_20
REMARK    3  A    between atoms: N_20  and  P_21
REMARK    4  A    between atoms: P_21  and  N_23
REMARK    5  A    between atoms: P_21  and  O_24
REMARK                            x       y       z     vdW  Elec       q    Type
REMARK                         _______ _______ _______ _____ _____    ______ ____
ROOT
ATOM      1  N   UNL     1      54.752 156.254  24.557  0.00  0.00    -0.226 NA
ATOM      2  C   UNL     1      54.086 155.406  25.279  0.00  0.00    +0.099 C 
ATOM      3  C   UNL     1      53.453 156.040  26.322  0.00  0.00    +0.081 C 
ATOM      4  N   UNL     1      53.722 157.301  26.253  0.00  0.00    -0.294 N 
ATOM      5  C   UNL     1      54.582 157.569  25.118  0.00  0.00    +0.164 C 
ATOM      6  C   UNL     1      52.676 155.324  27.231  0.00  0.00    +0.064 C 
ATOM      7  C   UNL     1      52.583 153.981  27.031  0.00  0.00    +0.031 C 
ATOM      8  C   UNL     1      53.209 153.319  25.994  0.00  0.00    +0.055 C 
ATOM      9  C   UNL     1      53.987 154.045  25.086  0.00  0.00    +0.035 C 
ATOM     10  H   UNL     1      53.390 157.983  26.881  0.00  0.00    +0.154 HD
ENDROOT
BRANCH   6  11
ATOM     11  N   UNL     1      52.039 156.035  28.295  0.00  0.00    -0.305 N 
ATOM     12  C   UNL     1      52.516 155.569  29.566  0.00  0.00    +0.110 C 
ATOM     13  C   UNL     1      52.081 154.210  29.959  0.00  0.00    +0.110 C 
ATOM     14  N   UNL     1      50.934 154.260  30.879  0.00  0.00    -0.216 NA
ATOM     15  C   UNL     1      49.971 155.248  30.442  0.00  0.00    +0.091 C 
ATOM     16  C   UNL     1      49.842 155.111  28.946  0.00  0.00    +0.040 C 
ATOM     17  C   UNL     1      50.631 156.124  28.180  0.00  0.00    +0.092 C 
ENDBRANCH   6  11
BRANCH   8  18
ATOM     18  N   UNL     1      53.083 151.904  25.824  0.00  0.00    -0.261 N 
ATOM     19  H   UNL     1      52.372 151.413  26.296  0.00  0.00    +0.157 HD
BRANCH  18  20
ATOM     20  P   UNL     1      54.187 151.048  24.783  0.00  0.00    +0.355 P 
ATOM     21  O   UNL     1      53.947 149.558  24.926  0.00  0.00    -0.251 OA
BRANCH  20  22
ATOM     22  N   UNL     1      53.920 151.574  23.130  0.00  0.00    -0.244 NA
ATOM     23  H   UNL     1      54.561 151.080  22.508  0.00  0.00    +0.129 HD
ATOM     24  H   UNL     1      54.086 152.578  23.062  0.00  0.00    +0.129 HD
ENDBRANCH  20  22
BRANCH  20  25
ATOM     25  O   UNL     1      55.789 151.405  25.235  0.00  0.00    -0.319 OA
ATOM     26  H   UNL     1      55.939 151.115  26.148  0.00  0.00    +0.220 HD
ENDBRANCH  20  25
ENDBRANCH  18  20
ENDBRANCH   8  18
TORSDOF 5
REMARK  Name = =
REMARK  5 active torsions:
REMARK  status: ('A' for Active; 'I' for Inactive)
REMARK    1  A    between atoms: C_6  and  N_10
REMARK    2  A    between atoms: C_8  and  N_20
REMARK    3  A    between atoms: N_20  and  P_21
REMARK    4  A    between atoms: P_21  and  N_23
REMARK    5  A    between atoms: P_21  and  O_24
REMARK                            x       y       z     vdW  Elec       q    Type
REMARK                         _______ _______ _______ _____ _____    ______ ____
ROOT
ATOM      1  I   UNL     1      52.757 158.017  28.137  0.00  0.00    +0.000 I 
ENDROOT
TORSDOF 0
REMARK  Name = =
REMARK  5 active torsions:
REMARK  status: ('A' for Active; 'I' for Inactive)
REMARK    1  A    between atoms: C_6  and  N_10
REMARK    2  A    between atoms: C_8  and  N_20
REMARK    3  A    between atoms: N_20  and  P_21
REMARK    4  A    between atoms: P_21  and  N_23
REMARK    5  A    between atoms: P_21  and  O_24
REMARK                            x       y       z     vdW  Elec       q    Type
REMARK                         _______ _______ _______ _____ _____    ______ ____
ROOT
ATOM      1  C   UNL     1      54.406 158.155  29.430  0.00  0.00    +0.000 C 
ATOM      2  C   UNL     1      55.419 158.939  29.126  0.00  0.00    +0.000 C 
ENDROOT
TORSDOF 0
