REMARK  Name = =
REMARK  2 active torsions:
REMARK  status: ('A' for Active; 'I' for Inactive)
REMARK    1  A    between atoms: C_2  and  S_17
REMARK    2  A    between atoms: S_17  and  S_18
REMARK                            x       y       z     vdW  Elec       q    Type
REMARK                         _______ _______ _______ _____ _____    ______ ____
ROOT
ATOM      1 BR   UNL     1     -14.032 -41.496  27.801  0.00  0.00    -0.040 Br
ATOM      2  C   UNL     1     -12.731 -42.831  28.412  0.00  0.00    +0.190 C 
ATOM      3  O   UNL     1     -11.617 -42.691  27.655  0.00  0.00    -0.336 OA
ATOM      4  C   UNL     1     -10.443 -43.157  28.174  0.00  0.00    +0.176 C 
ATOM      5  C   UNL     1     -10.187 -42.449  29.481  0.00  0.00    +0.174 C 
ATOM      6  O   UNL     1      -8.959 -42.730  30.024  0.00  0.00    -0.326 OA
ATOM      7  C   UNL     1      -8.825 -44.059  30.421  0.00  0.00    +0.264 C 
ATOM      8  O   UNL     1      -7.572 -44.204  30.980  0.00  0.00    -0.321 OA
ATOM      9  C   UNL     1      -7.541 -44.007  32.363  0.00  0.00    +0.209 C 
ATOM     10  C   UNL     1      -8.642 -43.122  32.777  0.00  0.00    +0.183 C 
ATOM     11  O   UNL     1      -8.423 -42.054  33.273  0.00  0.00    -0.293 OA
ATOM     12  C   UNL     1     -10.026 -43.582  32.566  0.00  0.00    +0.102 C 
ATOM     13  C   UNL     1      -9.953 -44.497  31.332  0.00  0.00    +0.179 C 
ATOM     14  O   UNL     1     -11.145 -44.281  30.641  0.00  0.00    -0.350 OA
ATOM     15  C   UNL     1     -11.247 -42.904  30.448  0.00  0.00    +0.149 C 
ATOM     16  C   UNL     1     -12.584 -42.603  29.874  0.00  0.00    +0.082 C 
ENDROOT
BRANCH   2  17
ATOM     17  S   UNL     1     -13.571 -44.441  28.143  0.00  0.00    -0.049 S 
BRANCH  17  18
ATOM     18  S   UNL     1     -12.554 -45.960  29.209  0.00  0.00    -0.107 S 
ATOM     19  H   UNL     1     -13.179 -47.151  29.008  0.00  0.00    +0.114 HD
ENDBRANCH  17  18
ENDBRANCH   2  17
TORSDOF 2
