REMARK  Name = =
REMARK  4 active torsions:
REMARK  status: ('A' for Active; 'I' for Inactive)
REMARK    1  A    between atoms: C_2  and  S_17
REMARK    2  A    between atoms: S_17  and  S_18
REMARK    3  A    between atoms: S_17  and  O_19
REMARK    4  A    between atoms: O_19  and  C_20
REMARK                            x       y       z     vdW  Elec       q    Type
REMARK                         _______ _______ _______ _____ _____    ______ ____
ROOT
ATOM      1 BR   UNL     1     -11.550 -45.663  27.139  0.00  0.00    -0.039 Br
ATOM      2  C   UNL     1     -12.002 -43.973  28.040  0.00  0.00    +0.201 C 
ATOM      3  O   UNL     1     -11.073 -43.090  27.616  0.00  0.00    -0.335 OA
ATOM      4  C   UNL     1     -10.865 -41.965  28.357  0.00  0.00    +0.176 C 
ATOM      5  C   UNL     1     -10.672 -42.200  29.822  0.00  0.00    +0.174 C 
ATOM      6  O   UNL     1      -9.331 -42.502  30.036  0.00  0.00    -0.326 OA
ATOM      7  C   UNL     1      -9.231 -43.872  30.181  0.00  0.00    +0.264 C 
ATOM      8  O   UNL     1      -7.970 -44.376  30.005  0.00  0.00    -0.321 OA
ATOM      9  C   UNL     1      -7.083 -43.598  30.745  0.00  0.00    +0.209 C 
ATOM     10  C   UNL     1      -7.631 -43.269  32.090  0.00  0.00    +0.183 C 
ATOM     11  O   UNL     1      -6.953 -42.563  32.810  0.00  0.00    -0.293 OA
ATOM     12  C   UNL     1      -8.928 -43.743  32.593  0.00  0.00    +0.102 C 
ATOM     13  C   UNL     1      -9.852 -44.238  31.508  0.00  0.00    +0.179 C 
ATOM     14  O   UNL     1     -11.120 -43.722  31.596  0.00  0.00    -0.350 OA
ATOM     15  C   UNL     1     -11.603 -43.205  30.400  0.00  0.00    +0.149 C 
ATOM     16  C   UNL     1     -12.000 -44.307  29.489  0.00  0.00    +0.083 C 
ENDROOT
BRANCH   2  17
ATOM     17  S   UNL     1     -13.639 -43.596  27.569  0.00  0.00    -0.014 S 
ATOM     18  H   UNL     1     -14.660 -44.180  28.252  0.00  0.00    +0.136 HD
BRANCH  17  19
ATOM     19  S   UNL     1     -13.845 -42.053  27.802  0.00  0.00    -0.094 S 
ATOM     20  H   UNL     1     -12.867 -41.363  27.156  0.00  0.00    +0.115 HD
ENDBRANCH  17  19
BRANCH  17  21
ATOM     21  O   UNL     1     -13.656 -44.150  25.858  0.00  0.00    -0.436 OA
BRANCH  21  22
ATOM     22  C   UNL     1     -14.408 -43.279  25.088  0.00  0.00    +0.154 C 
ATOM     23  C   UNL     1     -15.788 -43.305  25.101  0.00  0.00    +0.038 C 
ATOM     24  C   UNL     1     -16.535 -42.435  24.332  0.00  0.00    +0.003 C 
ATOM     25  C   UNL     1     -15.929 -41.502  23.516  0.00  0.00    +0.000 C 
ATOM     26  C   UNL     1     -14.539 -41.480  23.506  0.00  0.00    +0.003 C 
ATOM     27  C   UNL     1     -13.796 -42.351  24.276  0.00  0.00    +0.038 C 
ATOM     28  C   UNL     1     -16.673 -40.629  22.745  0.00  0.00    +0.000 C 
ATOM     29  C   UNL     1     -18.052 -40.658  22.761  0.00  0.00    +0.000 C 
ATOM     30  C   UNL     1     -18.672 -41.586  23.573  0.00  0.00    +0.000 C 
ATOM     31  C   UNL     1     -17.925 -42.455  24.342  0.00  0.00    +0.000 C 
ENDBRANCH  21  22
ENDBRANCH  17  21
ENDBRANCH   2  17
TORSDOF 4
