MODEL 1
REMARK VINA RESULT:    -6.937      0.000      0.000
REMARK INTER + INTRA:          -9.525
REMARK INTER:                  -8.964
REMARK INTRA:                  -0.561
REMARK UNBOUND:                -0.561
REMARK  Name = =
REMARK  5 active torsions:
REMARK  status: ('A' for Active; 'I' for Inactive)
REMARK    1  A    between atoms: C_10  and  N_29
REMARK    2  A    between atoms: C_18  and  N_20
REMARK    3  A    between atoms: N_29  and  C_30
REMARK    4  A    between atoms: N_29  and  C_38
REMARK    5  A    between atoms: C_30  and  S_35
REMARK                            x       y       z     vdW  Elec       q    Type
REMARK                         _______ _______ _______ _____ _____    ______ ____
ROOT
ATOM      1  N   UNL     1      56.830 164.795  41.503  0.00  0.00    -0.268 NA
ATOM      2  C   UNL     1      58.081 164.505  41.333  0.00  0.00    +0.123 C 
ATOM      3  C   UNL     1      58.268 163.067  41.144  0.00  0.00    -0.002 C 
ATOM      4  C   UNL     1      57.029 162.552  41.228  0.00  0.00    +0.013 C 
ATOM      5  C   UNL     1      56.071 163.627  41.456  0.00  0.00    +0.076 C 
ATOM      6  C   UNL     1      54.785 163.334  41.579  0.00  0.00    +0.019 C 
ATOM      7  C   UNL     1      54.191 161.999  41.494  0.00  0.00    +0.002 C 
ATOM      8  C   UNL     1      55.166 160.937  41.282  0.00  0.00    +0.000 C 
ATOM      9  C   UNL     1      56.456 161.191  41.158  0.00  0.00    +0.001 C 
ATOM     10  C   UNL     1      59.542 162.437  40.896  0.00  0.00    +0.115 C 
ATOM     11  C   UNL     1      60.557 163.118  40.046  0.00  0.00    +0.097 C 
ATOM     12  N   UNL     1      60.287 163.397  38.695  0.00  0.00    -0.270 NA
ATOM     13  C   UNL     1      59.215 164.331  38.526  0.00  0.00    +0.072 C 
ATOM     14  C   UNL     1      59.701 165.622  38.977  0.00  0.00    +0.017 C 
ATOM     15  C   UNL     1      59.169 166.289  40.117  0.00  0.00    +0.004 C 
ATOM     16  C   UNL     1      59.135 165.546  41.416  0.00  0.00    +0.029 C 
ATOM     17  C   UNL     1      60.696 166.212  38.097  0.00  0.00    +0.019 C 
ATOM     18  C   UNL     1      61.505 165.138  37.396  0.00  0.00    +0.073 C 
ATOM     19  C   UNL     1      61.484 163.803  38.027  0.00  0.00    +0.088 C 
ENDROOT
BRANCH  18  20
ATOM     20  N   UNL     1      62.849 165.680  37.312  0.00  0.00    -0.274 NA
ATOM     21  C   UNL     1      62.793 166.999  36.691  0.00  0.00    +0.058 C 
ATOM     22  C   UNL     1      63.795 167.907  37.327  0.00  0.00    +0.016 C 
ATOM     23  C   UNL     1      64.180 169.088  36.482  0.00  0.00    +0.001 C 
ATOM     24  C   UNL     1      64.769 168.557  35.190  0.00  0.00    +0.000 C 
ATOM     25  C   UNL     1      63.617 167.850  34.471  0.00  0.00    +0.001 C 
ATOM     26  C   UNL     1      63.085 166.694  35.245  0.00  0.00    +0.016 C 
ATOM     27  C   UNL     1      64.051 165.557  35.274  0.00  0.00    +0.019 C 
ATOM     28  C   UNL     1      63.798 164.913  36.614  0.00  0.00    +0.072 C 
ENDBRANCH  18  20
BRANCH  10  29
ATOM     29  N   UNL     1      59.507 161.060  40.427  0.00  0.00    -0.244 N 
BRANCH  29  30
ATOM     30  C   UNL     1      60.152 160.002  41.193  0.00  0.00    +0.375 C 
ATOM     31  O   UNL     1      61.307 159.552  40.594  0.00  0.00    -0.300 OA
ATOM     32  C   UNL     1      62.156 159.152  41.636  0.00  0.00    +0.180 C 
ATOM     33  C   UNL     1      61.655 159.855  42.854  0.00  0.00    +0.180 C 
ATOM     34  O   UNL     1      60.487 160.490  42.440  0.00  0.00    -0.300 OA
BRANCH  30  35
ATOM     35  S   UNL     1      59.087 158.608  41.475  0.00  0.00    +0.032 S 
ATOM     36  O   UNL     1      59.529 157.388  40.764  0.00  0.00    -0.171 OA
ATOM     37  O   UNL     1      58.781 158.414  42.924  0.00  0.00    -0.171 OA
ATOM     38  H   UNL     1      57.888 158.903  40.903  0.00  0.00    +0.217 HD
ENDBRANCH  30  35
ENDBRANCH  29  30
BRANCH  29  39
ATOM     39  C   UNL     1      58.900 160.746  39.210  0.00  0.00    +0.067 C 
ATOM     40  C   UNL     1      59.405 160.125  38.172  0.00  0.00    +0.017 C 
ENDBRANCH  29  39
ENDBRANCH  10  29
TORSDOF 5
ENDMDL
