MODEL 1
REMARK VINA RESULT:    -9.578      0.000      0.000
REMARK INTER + INTRA:         -12.514
REMARK INTER:                 -11.818
REMARK INTRA:                  -0.696
REMARK UNBOUND:                -0.696
REMARK  Name = =
REMARK  4 active torsions:
REMARK  status: ('A' for Active; 'I' for Inactive)
REMARK    1  A    between atoms: C_1  and  O_22
REMARK    2  A    between atoms: C_5  and  C_11
REMARK    3  A    between atoms: O_22  and  C_23
REMARK    4  A    between atoms: C_26  and  C_29
REMARK                            x       y       z     vdW  Elec       q    Type
REMARK                         _______ _______ _______ _____ _____    ______ ____
ROOT
ATOM      1  C   UNL     1      52.370 159.276  42.716  0.00  0.00    +0.230 C 
ATOM      2  C   UNL     1      51.657 158.096  42.738  0.00  0.00    +0.057 C 
ATOM      3  C   UNL     1      50.302 158.099  42.482  0.00  0.00    +0.025 C 
ATOM      4  C   UNL     1      49.640 159.294  42.200  0.00  0.00    +0.024 C 
ATOM      5  C   UNL     1      50.394 160.451  42.189  0.00  0.00    +0.118 C 
ATOM      6  N   UNL     1      51.695 160.403  42.441  0.00  0.00    -0.208 NA
ATOM      7  C   UNL     1      49.603 156.909  42.507  0.00  0.00    +0.099 C 
ATOM      8  N   UNL     1      50.260 155.776  42.779  0.00  0.00    -0.242 NA
ATOM      9  C   UNL     1      51.592 155.759  43.033  0.00  0.00    +0.099 C 
ATOM     10  C   UNL     1      52.333 156.921  43.020  0.00  0.00    +0.025 C 
ENDROOT
BRANCH   5  11
ATOM     11  C   UNL     1      49.684 161.704  41.891  0.00  0.00    +0.161 A 
ATOM     12  N   UNL     1      50.314 162.841  41.620  0.00  0.00    -0.227 NA
ATOM     13  C   UNL     1      49.714 164.002  41.346  0.00  0.00    +0.088 A 
ATOM     14  C   UNL     1      48.347 164.055  41.336  0.00  0.00    +0.074 A 
ATOM     15  C   UNL     1      47.684 165.232  41.057  0.00  0.00    +0.006 C 
ATOM     16  C   UNL     1      48.368 166.397  40.779  0.00  0.00    +0.000 C 
ATOM     17  C   UNL     1      49.761 166.357  40.786  0.00  0.00    +0.002 C 
ATOM     18  C   UNL     1      50.402 165.165  41.069  0.00  0.00    +0.019 C 
ATOM     19  C   UNL     1      47.663 162.887  41.614  0.00  0.00    +0.260 A 
ATOM     20  O   UNL     1      46.403 162.892  41.615  0.00  0.00    -0.267 OA
ATOM     21  N   UNL     1      48.322 161.725  41.889  0.00  0.00    -0.305 N 
ATOM     22  H   UNL     1      47.814 160.904  42.085  0.00  0.00    +0.170 HD
ENDBRANCH   5  11
BRANCH   1  23
ATOM     23  O   UNL     1      53.723 159.259  42.975  0.00  0.00    -0.436 OA
BRANCH  23  24
ATOM     24  C   UNL     1      54.594 160.270  42.558  0.00  0.00    +0.147 C 
ATOM     25  C   UNL     1      54.500 161.555  43.032  0.00  0.00    +0.038 C 
ATOM     26  C   UNL     1      55.353 162.571  42.631  0.00  0.00    +0.003 C 
ATOM     27  C   UNL     1      56.334 162.263  41.714  0.00  0.00    +0.000 C 
ATOM     28  C   UNL     1      56.426 160.961  41.235  0.00  0.00    +0.003 C 
ATOM     29  C   UNL     1      55.571 159.969  41.644  0.00  0.00    +0.038 C 
BRANCH  27  30
ATOM     30  C   UNL     1      57.268 163.297  41.252  0.00  0.00    +0.000 C 
ATOM     31  C   UNL     1      57.005 164.579  41.223  0.00  0.00    +0.000 C 
ENDBRANCH  27  30
ENDBRANCH  23  24
ENDBRANCH   1  23
TORSDOF 4
ENDMDL
