REMARK  Name = =
REMARK  4 active torsions:
REMARK  status: ('A' for Active; 'I' for Inactive)
REMARK    1  A    between atoms: C_1  and  O_22
REMARK    2  A    between atoms: C_5  and  C_11
REMARK    3  A    between atoms: O_22  and  C_23
REMARK    4  A    between atoms: C_26  and  C_29
REMARK                            x       y       z     vdW  Elec       q    Type
REMARK                         _______ _______ _______ _____ _____    ______ ____
ROOT
ATOM      1  C   UNL     1      53.207 155.180  27.429  0.00  0.00    +0.230 C 
ATOM      2  C   UNL     1      52.622 153.984  27.788  0.00  0.00    +0.057 C 
ATOM      3  C   UNL     1      51.621 153.958  28.736  0.00  0.00    +0.025 C 
ATOM      4  C   UNL     1      51.192 155.139  29.341  0.00  0.00    +0.024 C 
ATOM      5  C   UNL     1      51.806 156.313  28.951  0.00  0.00    +0.118 C 
ATOM      6  N   UNL     1      52.765 156.293  28.036  0.00  0.00    -0.208 NA
ATOM      7  C   UNL     1      51.046 152.752  29.083  0.00  0.00    +0.099 C 
ATOM      8  N   UNL     1      51.474 151.634  28.488  0.00  0.00    -0.242 NA
ATOM      9  C   UNL     1      52.457 151.645  27.554  0.00  0.00    +0.099 C 
ATOM     10  C   UNL     1      53.063 152.824  27.175  0.00  0.00    +0.025 C 
ENDROOT
BRANCH   5  11
ATOM     11  C   UNL     1      51.345 157.551  29.598  0.00  0.00    +0.161 A 
ATOM     12  N   UNL     1      50.136 157.677  30.131  0.00  0.00    -0.227 NA
ATOM     13  C   UNL     1      49.672 158.779  30.726  0.00  0.00    +0.088 A 
ATOM     14  C   UNL     1      50.483 159.877  30.809  0.00  0.00    +0.074 A 
ATOM     15  C   UNL     1      50.047 161.037  31.416  0.00  0.00    +0.006 C 
ATOM     16  C   UNL     1      48.784 161.136  31.960  0.00  0.00    +0.000 C 
ATOM     17  C   UNL     1      47.948 160.023  31.883  0.00  0.00    +0.002 C 
ATOM     18  C   UNL     1      48.408 158.873  31.269  0.00  0.00    +0.019 C 
ATOM     19  C   UNL     1      51.748 159.777  30.263  0.00  0.00    +0.260 A 
ATOM     20  O   UNL     1      52.527 160.766  30.318  0.00  0.00    -0.267 OA
ATOM     21  N   UNL     1      52.176 158.629  29.664  0.00  0.00    -0.305 N 
ATOM     22  H   UNL     1      53.082 158.579  29.281  0.00  0.00    +0.170 HD
ENDBRANCH   5  11
BRANCH   1  23
ATOM     23  O   UNL     1      54.206 155.192  26.481  0.00  0.00    -0.436 OA
BRANCH  23  24
ATOM     24  C   UNL     1      54.280 156.144  25.459  0.00  0.00    +0.147 C 
ATOM     25  C   UNL     1      53.216 156.949  25.134  0.00  0.00    +0.038 C 
ATOM     26  C   UNL     1      53.269 157.897  24.125  0.00  0.00    +0.003 C 
ATOM     27  C   UNL     1      54.448 158.026  23.424  0.00  0.00    +0.000 C 
ATOM     28  C   UNL     1      55.523 157.208  23.755  0.00  0.00    +0.003 C 
ATOM     29  C   UNL     1      55.451 156.275  24.758  0.00  0.00    +0.038 C 
BRANCH  27  30
ATOM     30  C   UNL     1      54.565 159.013  22.344  0.00  0.00    +0.000 C 
ATOM     31  C   UNL     1      53.616 159.839  21.984  0.00  0.00    +0.000 C 
ENDBRANCH  27  30
ENDBRANCH  23  24
ENDBRANCH   1  23
TORSDOF 4
