REMARK  Name = =
REMARK  10 active torsions:
REMARK  status: ('A' for Active; 'I' for Inactive)
REMARK    1  A    between atoms: C_1  and  C_24
REMARK    2  A    between atoms: C_6  and  C_8
REMARK    3  A    between atoms: C_6  and  S_35
REMARK    4  A    between atoms: C_7  and  N_39
REMARK    5  A    between atoms: N_22  and  N_30
REMARK    6  A    between atoms: C_24  and  C_27
REMARK    7  A    between atoms: N_30  and  O_33
REMARK    8  A    between atoms: C_31  and  O_34
REMARK    9  A    between atoms: S_35  and  O_38
REMARK   10  A    between atoms: N_39  and  N_40
REMARK                            x       y       z     vdW  Elec       q    Type
REMARK                         _______ _______ _______ _____ _____    ______ ____
ROOT
ATOM      1  C   UNL     1     -13.595  -8.072  21.928  0.00  0.00    +0.153 C 
ATOM      2  O   UNL     1     -12.730  -8.863  21.245  0.00  0.00    -0.345 OA
ATOM      3  C   UNL     1     -11.423  -8.685  21.661  0.00  0.00    +0.208 C 
ATOM      4  C   UNL     1     -11.234  -7.249  21.378  0.00  0.00    +0.206 C 
ATOM      5  O   UNL     1     -10.680  -6.896  20.398  0.00  0.00    -0.291 OA
ATOM      6  C   UNL     1     -11.776  -6.298  22.370  0.00  0.00    +0.202 C 
ATOM      7  C   UNL     1     -13.275  -6.648  22.215  0.00  0.00    +0.128 C 
ENDROOT
BRANCH   6   8
ATOM      8  C   UNL     1     -11.513  -4.890  21.977  0.00  0.00    +0.006 C 
ATOM      9  C   UNL     1     -10.246  -4.316  21.943  0.00  0.00    -0.002 C 
ATOM     10  C   UNL     1     -10.065  -2.946  21.688  0.00  0.00    -0.000 C 
ATOM     11  C   UNL     1      -8.803  -2.369  21.633  0.00  0.00    -0.000 C 
ATOM     12  C   UNL     1      -7.725  -3.213  21.842  0.00  0.00    -0.000 C 
ATOM     13  C   UNL     1      -6.458  -2.644  21.789  0.00  0.00    -0.000 C 
ATOM     14  C   UNL     1      -6.247  -1.326  21.546  0.00  0.00    +0.000 C 
ATOM     15  C   UNL     1      -7.320  -0.502  21.339  0.00  0.00    -0.000 C 
ATOM     16  C   UNL     1      -8.601  -1.027  21.383  0.00  0.00    -0.000 C 
ATOM     17  C   UNL     1      -7.877  -4.553  22.092  0.00  0.00    -0.000 C 
ATOM     18  C   UNL     1      -9.144  -5.114  22.142  0.00  0.00    -0.000 C 
ATOM     19  C   UNL     1     -11.150  -2.131  21.455  0.00  0.00    -0.000 C 
ATOM     20  C   UNL     1     -12.429  -2.684  21.479  0.00  0.00    -0.000 C 
ATOM     21  C   UNL     1     -12.575  -4.046  21.740  0.00  0.00    -0.002 C 
ENDBRANCH   6   8
BRANCH   1  24
ATOM     22  N   UNL     1     -14.889  -7.881  18.673  0.00  0.00    -0.157 NA
ATOM     23  C   UNL     1     -14.650  -7.093  19.863  0.00  0.00    +0.119 C 
ATOM     24  C   UNL     1     -14.827  -8.076  20.976  0.00  0.00    +0.122 C 
ATOM     25  N   UNL     1     -14.750  -9.381  20.299  0.00  0.00    -0.194 NA
ATOM     26  C   UNL     1     -14.787  -9.229  19.041  0.00  0.00    +0.184 C 
BRANCH  24  27
ATOM     27  C   UNL     1     -16.105  -7.981  21.663  0.00  0.00    -0.001 C 
ATOM     28  C   UNL     1     -16.588  -8.966  22.402  0.00  0.00    +0.032 C 
ATOM     29  I   UNL     1     -15.543 -10.790  22.660  0.00  0.00    -0.042 I 
ENDBRANCH  24  27
BRANCH  22  30
ATOM     30  N   UNL     1     -15.168  -7.420  17.374  0.00  0.00    -0.070 N 
ATOM     31  C   UNL     1     -14.900  -6.087  16.994  0.00  0.00    +0.439 C 
ATOM     32  O   UNL     1     -15.159  -5.712  15.828  0.00  0.00    -0.223 OA
BRANCH  30  33
ATOM     33  O   UNL     1     -15.706  -8.274  16.447  0.00  0.00    -0.275 OA
ATOM     34  H   UNL     1     -15.834  -9.148  16.848  0.00  0.00    +0.243 HD
ENDBRANCH  30  33
BRANCH  31  35
ATOM     35  O   UNL     1     -14.361  -5.193  17.875  0.00  0.00    -0.464 OA
ATOM     36  H   UNL     1     -14.162  -5.460  18.751  0.00  0.00    +0.297 HD
ENDBRANCH  31  35
ENDBRANCH  22  30
ENDBRANCH   1  24
BRANCH   6  37
ATOM     37  S   UNL     1     -11.373  -6.501  24.034  0.00  0.00    -0.002 S 
ATOM     38  O   UNL     1     -11.911  -7.760  24.668  0.00  0.00    -0.071 OA
ATOM     39  O   UNL     1      -9.972  -6.381  24.511  0.00  0.00    -0.071 OA
BRANCH  37  40
ATOM     40  O   UNL     1     -12.029  -5.140  24.890  0.00  0.00    -0.271 OA
ATOM     41  H   UNL     1     -11.694  -4.319  24.497  0.00  0.00    +0.243 HD
ENDBRANCH  37  40
ENDBRANCH   6  37
BRANCH   7  42
ATOM     42  N   UNL     1     -14.108  -6.185  23.247  0.00  0.00    -0.245 NA
ATOM     43  H   UNL     1     -14.946  -5.818  22.796  0.00  0.00    +0.141 HD
BRANCH  42  44
ATOM     44  N   UNL     1     -14.535  -6.999  24.235  0.00  0.00    -0.270 NA
ATOM     45  H   UNL     1     -13.730  -7.395  24.721  0.00  0.00    +0.137 HD
ATOM     46  H   UNL     1     -15.096  -7.752  23.837  0.00  0.00    +0.137 HD
ENDBRANCH  42  44
ENDBRANCH   7  42
TORSDOF 10
