MODEL 1
REMARK VINA RESULT:    -9.649      0.000      0.000
REMARK INTER + INTRA:         -11.117
REMARK INTER:                 -11.905
REMARK INTRA:                   0.788
REMARK UNBOUND:                 0.788
REMARK  Name = =
REMARK  4 active torsions:
REMARK  status: ('A' for Active; 'I' for Inactive)
REMARK    1  A    between atoms: C_1  and  N_9
REMARK    2  A    between atoms: N_8  and  C_27
REMARK    3  A    between atoms: C_27  and  N_34
REMARK    4  A    between atoms: C_38  and  C_40
REMARK                            x       y       z     vdW  Elec       q    Type
REMARK                         _______ _______ _______ _____ _____    ______ ____
ROOT
ATOM      1  C   UNL     1       1.837  -5.281  30.569  0.00  0.00    +0.109 C 
ATOM      2  C   UNL     1       0.722  -5.784  31.196  0.00  0.00    +0.148 C 
ATOM      3  N   UNL     1       0.774  -6.086  32.494  0.00  0.00    -0.198 NA
ATOM      4  C   UNL     1       1.894  -5.909  33.195  0.00  0.00    +0.215 C 
ATOM      5  N   UNL     1       2.990  -5.418  32.588  0.00  0.00    -0.211 NA
ATOM      6  C   UNL     1       3.002  -5.093  31.281  0.00  0.00    +0.120 C 
ATOM      7  N   UNL     1       1.884  -6.249  34.580  0.00  0.00    -0.327 N 
ATOM      8  N   UNL     1      -0.460  -5.991  30.413  0.00  0.00    -0.305 N 
ATOM      9  H   UNL     1       1.065  -6.606  34.993  0.00  0.00    +0.145 HD
ATOM     10  H   UNL     1       2.697  -6.127  35.122  0.00  0.00    +0.145 HD
ATOM     11  H   UNL     1      -0.438  -5.784  29.450  0.00  0.00    +0.150 HD
ENDROOT
BRANCH   1  12
ATOM     12  N   UNL     1       1.795  -4.917  29.166  0.00  0.00    -0.227 N 
ATOM     13  C   UNL     1       2.233  -5.913  28.259  0.00  0.00    +0.091 C 
ATOM     14  C   UNL     1       2.651  -5.736  26.934  0.00  0.00    +0.156 C 
ATOM     15  N   UNL     1       3.043  -6.801  26.230  0.00  0.00    -0.227 NA
ATOM     16  C   UNL     1       3.039  -8.040  26.781  0.00  0.00    +0.100 C 
ATOM     17  C   UNL     1       2.630  -8.251  28.088  0.00  0.00    +0.022 C 
ATOM     18  C   UNL     1       2.222  -7.166  28.832  0.00  0.00    +0.020 C 
ATOM     19  N   UNL     1       2.731  -4.510  26.177  0.00  0.00    -0.214 N 
ATOM     20  C   UNL     1       1.889  -3.397  26.386  0.00  0.00    +0.064 C 
ATOM     21  C   UNL     1       1.274  -2.971  27.562  0.00  0.00    +0.068 C 
ATOM     22  C   UNL     1       0.497  -1.842  27.551  0.00  0.00    +0.006 C 
ATOM     23  C   UNL     1       0.301  -1.110  26.404  0.00  0.00    +0.000 C 
ATOM     24  C   UNL     1       0.909  -1.535  25.240  0.00  0.00    +0.001 C 
ATOM     25  C   UNL     1       1.705  -2.680  25.227  0.00  0.00    +0.015 C 
ATOM     26  C   UNL     1       1.337  -3.602  28.873  0.00  0.00    +0.258 C 
ATOM     27  O   UNL     1       0.952  -2.942  29.859  0.00  0.00    -0.269 OA
ATOM     28  C   UNL     1       3.707  -4.468  25.183  0.00  0.00    +0.312 C 
ATOM     29  O   UNL     1       4.430  -5.485  24.947  0.00  0.00    -0.264 OA
ENDBRANCH   1  12
BRANCH   8  30
ATOM     30  C   UNL     1      -1.715  -6.508  31.010  0.00  0.00    +0.126 C 
ATOM     31  C   UNL     1      -1.514  -7.330  32.205  0.00  0.00    +0.038 C 
ATOM     32  C   UNL     1      -1.117  -8.754  31.714  0.00  0.00    +0.003 C 
ATOM     33  C   UNL     1      -0.898  -8.501  30.224  0.00  0.00    +0.003 C 
ATOM     34  C   UNL     1      -2.129  -7.617  29.999  0.00  0.00    +0.035 C 
ATOM     35  C   UNL     1      -3.190  -8.496  30.648  0.00  0.00    +0.003 C 
ATOM     36  C   UNL     1      -2.476  -9.467  31.566  0.00  0.00    +0.000 C 
BRANCH  30  37
ATOM     37  N   UNL     1      -2.682  -5.452  31.008  0.00  0.00    -0.199 N 
ATOM     38  C   UNL     1      -2.651  -4.662  29.758  0.00  0.00    +0.308 C 
ATOM     39  O   UNL     1      -1.848  -4.937  28.848  0.00  0.00    -0.252 OA
ATOM     40  N   UNL     1      -3.560  -3.591  29.637  0.00  0.00    -0.313 N 
ATOM     41  C   UNL     1      -3.564  -4.991  31.955  0.00  0.00    +0.257 C 
ATOM     42  O   UNL     1      -4.380  -4.047  31.608  0.00  0.00    -0.269 OA
ATOM     43  H   UNL     1      -4.187  -3.392  30.370  0.00  0.00    +0.146 HD
ATOM     44  H   UNL     1      -3.568  -3.043  28.819  0.00  0.00    +0.146 HD
BRANCH  41  45
ATOM     45  C   UNL     1      -3.705  -5.422  33.310  0.00  0.00    +0.058 C 
ATOM     46  C   UNL     1      -4.468  -6.497  33.623  0.00  0.00    +0.005 C 
ENDBRANCH  41  45
ENDBRANCH  30  37
ENDBRANCH   8  30
TORSDOF 4
ENDMDL
