REMARK  Name = =
REMARK  4 active torsions:
REMARK  status: ('A' for Active; 'I' for Inactive)
REMARK    1  A    between atoms: C_1  and  N_9
REMARK    2  A    between atoms: N_8  and  C_27
REMARK    3  A    between atoms: C_27  and  N_34
REMARK    4  A    between atoms: C_38  and  C_40
REMARK                            x       y       z     vdW  Elec       q    Type
REMARK                         _______ _______ _______ _____ _____    ______ ____
ROOT
ATOM      1  C   UNL     1       0.264  -6.152  27.598  0.00  0.00    +0.109 C 
ATOM      2  C   UNL     1      -0.683  -6.182  28.594  0.00  0.00    +0.148 C 
ATOM      3  N   UNL     1      -1.419  -7.280  28.772  0.00  0.00    -0.198 NA
ATOM      4  C   UNL     1      -1.252  -8.351  27.997  0.00  0.00    +0.215 C 
ATOM      5  N   UNL     1      -0.328  -8.329  27.019  0.00  0.00    -0.211 NA
ATOM      6  C   UNL     1       0.447  -7.252  26.788  0.00  0.00    +0.120 C 
ATOM      7  N   UNL     1      -2.069  -9.494  28.240  0.00  0.00    -0.327 N 
ATOM      8  N   UNL     1      -0.861  -5.007  29.395  0.00  0.00    -0.305 N 
ATOM      9  H   UNL     1      -2.736  -9.477  28.964  0.00  0.00    +0.145 HD
ATOM     10  H   UNL     1      -1.966 -10.300  27.684  0.00  0.00    +0.145 HD
ATOM     11  H   UNL     1      -0.316  -4.210  29.202  0.00  0.00    +0.150 HD
ENDROOT
BRANCH   1  12
ATOM     12  N   UNL     1       1.097  -4.981  27.405  0.00  0.00    -0.227 N 
ATOM     13  C   UNL     1       0.424  -3.812  26.972  0.00  0.00    +0.091 C 
ATOM     14  C   UNL     1       0.983  -2.683  26.360  0.00  0.00    +0.156 C 
ATOM     15  N   UNL     1       0.182  -1.673  26.008  0.00  0.00    -0.227 NA
ATOM     16  C   UNL     1      -1.153  -1.731  26.237  0.00  0.00    +0.100 C 
ATOM     17  C   UNL     1      -1.738  -2.832  26.841  0.00  0.00    +0.022 C 
ATOM     18  C   UNL     1      -0.931  -3.884  27.212  0.00  0.00    +0.020 C 
ATOM     19  N   UNL     1       2.366  -2.436  26.030  0.00  0.00    -0.214 N 
ATOM     20  C   UNL     1       3.456  -2.967  26.752  0.00  0.00    +0.064 C 
ATOM     21  C   UNL     1       3.538  -4.162  27.464  0.00  0.00    +0.068 C 
ATOM     22  C   UNL     1       4.709  -4.500  28.091  0.00  0.00    +0.006 C 
ATOM     23  C   UNL     1       5.817  -3.688  28.039  0.00  0.00    +0.000 C 
ATOM     24  C   UNL     1       5.733  -2.504  27.335  0.00  0.00    +0.001 C 
ATOM     25  C   UNL     1       4.552  -2.139  26.689  0.00  0.00    +0.015 C 
ATOM     26  C   UNL     1       2.487  -5.152  27.657  0.00  0.00    +0.258 C 
ATOM     27  O   UNL     1       2.814  -6.275  28.089  0.00  0.00    -0.269 OA
ATOM     28  C   UNL     1       2.594  -1.610  24.931  0.00  0.00    +0.312 C 
ATOM     29  O   UNL     1       1.621  -1.080  24.311  0.00  0.00    -0.264 OA
ENDBRANCH   1  12
BRANCH   8  30
ATOM     30  C   UNL     1      -1.842  -4.957  30.505  0.00  0.00    +0.126 C 
ATOM     31  C   UNL     1      -3.240  -4.983  30.069  0.00  0.00    +0.038 C 
ATOM     32  C   UNL     1      -3.605  -3.533  29.631  0.00  0.00    +0.003 C 
ATOM     33  C   UNL     1      -2.232  -2.866  29.649  0.00  0.00    +0.003 C 
ATOM     34  C   UNL     1      -1.742  -3.474  30.967  0.00  0.00    +0.035 C 
ATOM     35  C   UNL     1      -2.943  -3.157  31.849  0.00  0.00    +0.003 C 
ATOM     36  C   UNL     1      -4.121  -2.891  30.935  0.00  0.00    +0.000 C 
BRANCH  30  37
ATOM     37  N   UNL     1      -1.389  -5.830  31.545  0.00  0.00    -0.199 N 
ATOM     38  C   UNL     1       0.081  -5.803  31.703  0.00  0.00    +0.308 C 
ATOM     39  O   UNL     1       0.788  -5.079  30.978  0.00  0.00    -0.252 OA
ATOM     40  N   UNL     1       0.649  -6.623  32.699  0.00  0.00    -0.313 N 
ATOM     41  C   UNL     1      -2.036  -6.729  32.359  0.00  0.00    +0.257 C 
ATOM     42  O   UNL     1      -1.338  -7.320  33.276  0.00  0.00    -0.269 OA
ATOM     43  H   UNL     1       0.070  -7.188  33.261  0.00  0.00    +0.146 HD
ATOM     44  H   UNL     1       1.624  -6.631  32.833  0.00  0.00    +0.146 HD
BRANCH  41  45
ATOM     45  C   UNL     1      -3.411  -7.113  32.327  0.00  0.00    +0.058 C 
ATOM     46  C   UNL     1      -4.125  -7.242  33.472  0.00  0.00    +0.005 C 
ENDBRANCH  41  45
ENDBRANCH  30  37
ENDBRANCH   8  30
TORSDOF 4
