REMARK  Name = =
REMARK  0 active torsions:
REMARK  status: ('A' for Active; 'I' for Inactive)
REMARK                            x       y       z     vdW  Elec       q    Type
REMARK                         _______ _______ _______ _____ _____    ______ ____
ROOT
ATOM      1  N   UNL     1      52.234 157.178  29.320  0.00  0.00    -0.295 N 
ATOM      2  C   UNL     1      51.688 155.967  29.189  0.00  0.00    +0.164 C 
ATOM      3  N   UNL     1      50.399 156.088  29.555  0.00  0.00    -0.226 NA
ATOM      4  C   UNL     1      50.155 157.368  29.908  0.00  0.00    +0.096 C 
ATOM      5  C   UNL     1      49.065 158.082  30.356  0.00  0.00    +0.020 C 
ATOM      6  C   UNL     1      49.106 159.422  30.648  0.00  0.00    +0.002 C 
ATOM      7  C   UNL     1      50.301 160.105  30.489  0.00  0.00    +0.001 C 
ATOM      8  C   UNL     1      51.424 159.431  30.042  0.00  0.00    +0.016 C 
ATOM      9  C   UNL     1      51.340 158.079  29.758  0.00  0.00    +0.067 C 
ATOM     10  H   UNL     1      53.176 157.385  29.120  0.00  0.00    +0.154 HD
ENDROOT
TORSDOF 0
