REMARK  Name = =
REMARK  1 active torsions:
REMARK  status: ('A' for Active; 'I' for Inactive)
REMARK    1  A    between atoms: N_2  and  O_3
REMARK                            x       y       z     vdW  Elec       q    Type
REMARK                         _______ _______ _______ _____ _____    ______ ____
ROOT
ATOM      1  C   UNL     1      52.063 154.977  28.012  0.00  0.00    +0.164 C 
ATOM      2  N   UNL     1      51.716 153.947  27.312  0.00  0.00    -0.083 NA
ENDROOT
BRANCH   2   3
ATOM      3  O   UNL     1      51.772 153.922  25.944  0.00  0.00    -0.409 OA
ATOM      4  H   UNL     1      51.510 153.152  25.478  0.00  0.00    +0.328 HD
ENDBRANCH   2   3
TORSDOF 1
