REMARK  Name = =
REMARK  0 active torsions:
REMARK  status: ('A' for Active; 'I' for Inactive)
REMARK                            x       y       z     vdW  Elec       q    Type
REMARK                         _______ _______ _______ _____ _____    ______ ____
ROOT
ATOM      1  N   UNL     1      50.766 155.246  28.043  0.00  0.00    -0.313 N 
ATOM      2  C   UNL     1      50.707 156.444  28.830  0.00  0.00    +0.044 C 
ATOM      3  C   UNL     1      51.523 157.559  28.791  0.00  0.00    -0.008 C 
ATOM      4  C   UNL     1      51.311 158.638  29.641  0.00  0.00    -0.003 C 
ATOM      5  C   UNL     1      50.260 158.549  30.518  0.00  0.00    -0.000 C 
ATOM      6  C   UNL     1      49.446 157.436  30.556  0.00  0.00    +0.001 C 
ATOM      7  C   UNL     1      49.664 156.377  29.713  0.00  0.00    +0.014 C 
ATOM      8  C   UNL     1      52.680 157.755  27.886  0.00  0.00    +0.032 C 
ATOM      9  C   UNL     1      53.609 156.585  27.908  0.00  0.00    +0.032 C 
ATOM     10  C   UNL     1      53.101 155.454  27.074  0.00  0.00    -0.008 C 
ATOM     11  C   UNL     1      51.833 154.896  27.171  0.00  0.00    +0.044 C 
ATOM     12  C   UNL     1      51.538 153.855  26.316  0.00  0.00    +0.014 C 
ATOM     13  C   UNL     1      52.444 153.369  25.396  0.00  0.00    +0.001 C 
ATOM     14  C   UNL     1      53.712 153.952  25.321  0.00  0.00    -0.000 C 
ATOM     15  C   UNL     1      54.025 154.986  26.160  0.00  0.00    -0.003 C 
ATOM     16  H   UNL     1      50.010 154.619  28.112  0.00  0.00    +0.152 HD
ENDROOT
TORSDOF 0
