REMARK  Name = =
REMARK  3 active torsions:
REMARK  status: ('A' for Active; 'I' for Inactive)
REMARK    1  A    between atoms: N_1  and  S_10
REMARK    2  A    between atoms: S_10  and  C_11
REMARK    3  A    between atoms: C_11  and  N_13
REMARK                            x       y       z     vdW  Elec       q    Type
REMARK                         _______ _______ _______ _____ _____    ______ ____
ROOT
ATOM      1  N   UNL     1      51.759 157.101  29.082  0.00  0.00    -0.216 N 
ATOM      2  C   UNL     1      51.166 155.952  29.450  0.00  0.00    +0.178 C 
ATOM      3  N   UNL     1      50.103 156.265  30.211  0.00  0.00    -0.226 NA
ATOM      4  C   UNL     1      50.006 157.620  30.335  0.00  0.00    +0.097 C 
ATOM      5  C   UNL     1      49.153 158.473  30.971  0.00  0.00    +0.020 C 
ATOM      6  C   UNL     1      49.325 159.840  30.907  0.00  0.00    +0.002 C 
ATOM      7  C   UNL     1      50.388 160.341  30.182  0.00  0.00    +0.001 C 
ATOM      8  C   UNL     1      51.265 159.507  29.529  0.00  0.00    +0.017 C 
ATOM      9  C   UNL     1      51.062 158.145  29.615  0.00  0.00    +0.081 C 
ENDROOT
BRANCH   1  10
ATOM     10  S   UNL     1      53.194 157.289  28.081  0.00  0.00    +0.008 S 
BRANCH  10  11
ATOM     11  C   UNL     1      53.143 156.202  26.665  0.00  0.00    +0.123 C 
ATOM     12  S   UNL     1      52.201 154.874  26.718  0.00  0.00    -0.027 S 
BRANCH  11  13
ATOM     13  N   UNL     1      53.903 156.471  25.502  0.00  0.00    -0.346 N 
ATOM     14  H   UNL     1      53.860 155.858  24.733  0.00  0.00    +0.143 HD
ATOM     15  H   UNL     1      54.475 157.271  25.462  0.00  0.00    +0.143 HD
ENDBRANCH  11  13
ENDBRANCH  10  11
ENDBRANCH   1  10
TORSDOF 3
