REMARK  Name = =
REMARK  0 active torsions:
REMARK  status: ('A' for Active; 'I' for Inactive)
REMARK                            x       y       z     vdW  Elec       q    Type
REMARK                         _______ _______ _______ _____ _____    ______ ____
ROOT
ATOM      1  N   UNL     1      51.606 155.372  28.604  0.00  0.00    -0.237 N 
ATOM      2  C   UNL     1      51.024 156.547  29.264  0.00  0.00    +0.058 C 
ATOM      3  C   UNL     1      51.630 157.784  29.200  0.00  0.00    +0.014 C 
ATOM      4  C   UNL     1      50.954 158.782  29.915  0.00  0.00    +0.001 C 
ATOM      5  C   UNL     1      49.789 158.505  30.606  0.00  0.00    +0.000 C 
ATOM      6  C   UNL     1      49.238 157.220  30.618  0.00  0.00    +0.001 C 
ATOM      7  C   UNL     1      49.878 156.215  29.923  0.00  0.00    +0.015 C 
ATOM      8  C   UNL     1      52.796 158.375  28.553  0.00  0.00    +0.001 C 
ATOM      9  C   UNL     1      53.740 157.535  27.807  0.00  0.00    +0.001 C 
ATOM     10  C   UNL     1      53.228 156.402  27.025  0.00  0.00    +0.014 C 
ATOM     11  C   UNL     1      52.292 155.436  27.325  0.00  0.00    +0.058 C 
ATOM     12  C   UNL     1      51.876 154.413  26.515  0.00  0.00    +0.015 C 
ATOM     13  C   UNL     1      52.441 154.327  25.276  0.00  0.00    +0.001 C 
ATOM     14  C   UNL     1      53.399 155.277  24.912  0.00  0.00    +0.000 C 
ATOM     15  C   UNL     1      53.802 156.301  25.744  0.00  0.00    +0.001 C 
ATOM     16  C   UNL     1      51.506 154.161  29.247  0.00  0.00    +0.234 C 
ATOM     17  O   UNL     1      50.913 153.911  30.313  0.00  0.00    -0.274 OA
ATOM     18  C   UNL     1      52.122 152.917  28.766  0.00  0.00    +0.096 C 
ENDROOT
TORSDOF 0
