REMARK  Name = =
REMARK  7 active torsions:
REMARK  status: ('A' for Active; 'I' for Inactive)
REMARK    1  A    between atoms: S_1  and  N_2
REMARK    2  A    between atoms: S_1  and  C_11
REMARK    3  A    between atoms: S_1  and  S_14
REMARK    4  A    between atoms: C_11  and  N_13
REMARK    5  A    between atoms: S_14  and  P_15
REMARK    6  A    between atoms: P_15  and  O_17
REMARK    7  A    between atoms: P_15  and  O_18
REMARK                            x       y       z     vdW  Elec       q    Type
REMARK                         _______ _______ _______ _____ _____    ______ ____
ROOT
ATOM      1  S   UNL     1      51.928 156.499  27.141  0.00  0.00    -0.073 S 
ATOM      2  H   UNL     1      51.133 157.108  26.221  0.00  0.00    +0.119 HD
ENDROOT
BRANCH   1   3
ATOM      3  N   UNL     1      51.049 156.521  28.615  0.00  0.00    -0.228 N 
ATOM      4  C   UNL     1      50.685 155.447  29.357  0.00  0.00    +0.177 C 
ATOM      5  N   UNL     1      50.008 155.867  30.443  0.00  0.00    -0.226 NA
ATOM      6  C   UNL     1      49.969 157.201  30.347  0.00  0.00    +0.097 C 
ATOM      7  C   UNL     1      49.406 158.165  31.175  0.00  0.00    +0.020 C 
ATOM      8  C   UNL     1      49.498 159.504  30.858  0.00  0.00    +0.002 C 
ATOM      9  C   UNL     1      50.150 159.918  29.712  0.00  0.00    +0.001 C 
ATOM     10  C   UNL     1      50.702 158.963  28.902  0.00  0.00    +0.017 C 
ATOM     11  C   UNL     1      50.603 157.631  29.229  0.00  0.00    +0.080 C 
ENDBRANCH   1   3
BRANCH   1  12
ATOM     12  C   UNL     1      53.442 157.128  27.693  0.00  0.00    +0.109 C 
ATOM     13  S   UNL     1      53.652 157.338  29.290  0.00  0.00    -0.028 S 
BRANCH  12  14
ATOM     14  N   UNL     1      54.508 157.469  26.832  0.00  0.00    -0.347 N 
ATOM     15  H   UNL     1      54.411 157.353  25.859  0.00  0.00    +0.143 HD
ATOM     16  H   UNL     1      55.348 157.823  27.205  0.00  0.00    +0.143 HD
ENDBRANCH  12  14
ENDBRANCH   1  12
BRANCH   1  17
ATOM     17  S   UNL     1      52.329 155.157  26.406  0.00  0.00    -0.005 S 
BRANCH  17  18
ATOM     18  P   UNL     1      52.994 153.528  27.183  0.00  0.00    +0.234 P 
ATOM     19  S   UNL     1      54.287 152.771  26.271  0.00  0.00    +0.004 S 
BRANCH  18  20
ATOM     20  O   UNL     1      53.637 153.704  28.765  0.00  0.00    -0.339 OA
ATOM     21  H   UNL     1      52.975 154.121  29.339  0.00  0.00    +0.218 HD
ENDBRANCH  18  20
BRANCH  18  22
ATOM     22  O   UNL     1      51.813 152.290  27.346  0.00  0.00    -0.339 OA
ATOM     23  H   UNL     1      51.054 152.631  27.845  0.00  0.00    +0.218 HD
ENDBRANCH  18  22
ENDBRANCH  17  18
ENDBRANCH   1  17
TORSDOF 7
