REMARK  Name = =
REMARK  1 active torsions:
REMARK  status: ('A' for Active; 'I' for Inactive)
REMARK    1  A    between atoms: C_13  and  C_19
REMARK                            x       y       z     vdW  Elec       q    Type
REMARK                         _______ _______ _______ _____ _____    ______ ____
ROOT
ATOM      1  N   UNL     1      52.434 155.244  27.319  0.00  0.00    -0.238 N 
ATOM      2  C   UNL     1      52.922 156.399  28.016  0.00  0.00    +0.054 C 
ATOM      3  C   UNL     1      53.455 157.556  27.432  0.00  0.00    -0.008 C 
ATOM      4  C   UNL     1      53.880 158.589  28.239  0.00  0.00    -0.003 C 
ATOM      5  C   UNL     1      53.762 158.449  29.626  0.00  0.00    -0.000 C 
ATOM      6  C   UNL     1      53.229 157.292  30.194  0.00  0.00    +0.001 C 
ATOM      7  C   UNL     1      52.815 156.276  29.375  0.00  0.00    +0.015 C 
ATOM      8  C   UNL     1      53.619 157.793  25.975  0.00  0.00    +0.032 C 
ATOM      9  C   UNL     1      54.471 156.762  25.312  0.00  0.00    +0.032 C 
ATOM     10  C   UNL     1      53.978 155.375  25.339  0.00  0.00    -0.008 C 
ATOM     11  C   UNL     1      53.147 154.675  26.202  0.00  0.00    +0.054 C 
ATOM     12  C   UNL     1      52.846 153.355  26.099  0.00  0.00    +0.013 C 
ATOM     13  C   UNL     1      53.380 152.613  25.067  0.00  0.00    +0.006 C 
ATOM     14  C   UNL     1      54.209 153.290  24.192  0.00  0.00    -0.002 C 
ATOM     15  C   UNL     1      54.523 154.612  24.284  0.00  0.00    -0.003 C 
ATOM     16  C   UNL     1      51.196 154.748  27.723  0.00  0.00    +0.234 C 
ATOM     17  O   UNL     1      50.645 153.678  27.299  0.00  0.00    -0.274 OA
ATOM     18  C   UNL     1      50.343 155.454  28.724  0.00  0.00    +0.096 C 
ENDROOT
BRANCH  13  19
ATOM     19  C   UNL     1      53.061 151.186  24.940  0.00  0.00    +0.137 C 
ATOM     20  C   UNL     1      54.235 150.380  24.396  0.00  0.00    +0.034 C 
ATOM     21  C   UNL     1      53.715 149.019  24.070  0.00  0.00    +0.005 C 
ATOM     22  C   UNL     1      52.732 148.470  25.031  0.00  0.00    +0.032 C 
ATOM     23  C   UNL     1      52.082 149.438  25.939  0.00  0.00    +0.143 C 
ATOM     24  O   UNL     1      52.766 150.595  26.178  0.00  0.00    -0.352 OA
ENDBRANCH  13  19
TORSDOF 1
