REMARK  Name = =
REMARK  2 active torsions:
REMARK  status: ('A' for Active; 'I' for Inactive)
REMARK    1  A    between atoms: C_8  and  S_19
REMARK    2  A    between atoms: C_13  and  C_24
REMARK                            x       y       z     vdW  Elec       q    Type
REMARK                         _______ _______ _______ _____ _____    ______ ____
ROOT
ATOM      1  N   UNL     1      51.153 156.059  29.228  0.00  0.00    -0.238 N 
ATOM      2  C   UNL     1      50.259 157.181  29.518  0.00  0.00    +0.055 C 
ATOM      3  C   UNL     1      50.627 158.503  29.521  0.00  0.00    +0.001 C 
ATOM      4  C   UNL     1      49.591 159.389  29.838  0.00  0.00    -0.002 C 
ATOM      5  C   UNL     1      48.327 158.976  30.119  0.00  0.00    -0.000 C 
ATOM      6  C   UNL     1      48.006 157.617  30.099  0.00  0.00    +0.001 C 
ATOM      7  C   UNL     1      48.994 156.715  29.792  0.00  0.00    +0.015 C 
ATOM      8  C   UNL     1      51.881 159.183  29.262  0.00  0.00    +0.063 C 
ATOM      9  C   UNL     1      53.043 158.549  28.667  0.00  0.00    +0.042 C 
ATOM     10  C   UNL     1      52.945 157.246  27.984  0.00  0.00    -0.007 C 
ATOM     11  C   UNL     1      52.135 156.141  28.189  0.00  0.00    +0.054 C 
ATOM     12  C   UNL     1      52.171 154.995  27.461  0.00  0.00    +0.013 C 
ATOM     13  C   UNL     1      53.082 154.921  26.447  0.00  0.00    +0.006 C 
ATOM     14  C   UNL     1      53.937 155.985  26.175  0.00  0.00    -0.002 C 
ATOM     15  C   UNL     1      53.872 157.135  26.930  0.00  0.00    -0.003 C 
ATOM     16  C   UNL     1      51.020 154.905  29.992  0.00  0.00    +0.234 C 
ATOM     17  O   UNL     1      50.091 154.756  30.869  0.00  0.00    -0.274 OA
ATOM     18  C   UNL     1      51.944 153.750  29.877  0.00  0.00    +0.096 C 
ENDROOT
BRANCH   8  19
ATOM     19  S   UNL     1      52.358 159.971  30.733  0.00  0.00    -0.184 S 
ATOM     20  C   UNL     1      53.800 161.057  30.717  0.00  0.00    +0.014 C 
ATOM     21  C   UNL     1      53.360 162.191  31.184  0.00  0.00    +0.006 C 
ATOM     22  C   UNL     1      52.000 162.302  31.559  0.00  0.00    +0.006 C 
ATOM     23  C   UNL     1      51.238 161.253  31.416  0.00  0.00    +0.014 C 
ATOM     24  H   UNL     1      52.478 158.795  31.405  0.00  0.00    +0.093 HD
ENDBRANCH   8  19
BRANCH  13  25
ATOM     25  C   UNL     1      53.153 153.688  25.649  0.00  0.00    +0.137 C 
ATOM     26  C   UNL     1      54.495 153.425  25.045  0.00  0.00    +0.034 C 
ATOM     27  C   UNL     1      55.091 152.120  25.522  0.00  0.00    +0.005 C 
ATOM     28  C   UNL     1      54.083 150.988  25.401  0.00  0.00    +0.032 C 
ATOM     29  C   UNL     1      52.691 151.493  25.648  0.00  0.00    +0.143 C 
ATOM     30  O   UNL     1      52.791 152.608  26.486  0.00  0.00    -0.352 OA
ENDBRANCH  13  25
TORSDOF 2
