REMARK  Name = =
REMARK  9 active torsions:
REMARK  status: ('A' for Active; 'I' for Inactive)
REMARK    1  A    between atoms: S_1  and  N_2
REMARK    2  A    between atoms: S_1  and  C_11
REMARK    3  A    between atoms: S_1  and  S_14
REMARK    4  A    between atoms: C_11  and  N_13
REMARK    5  A    between atoms: S_14  and  N_15
REMARK    6  A    between atoms: S_14  and  P_20
REMARK    7  A    between atoms: C_16  and  C_18
REMARK    8  A    between atoms: P_20  and  O_22
REMARK    9  A    between atoms: P_20  and  O_23
REMARK                            x       y       z     vdW  Elec       q    Type
REMARK                         _______ _______ _______ _____ _____    ______ ____
ROOT
ATOM      1  S   UNL     1      52.794 156.130  29.022  0.00  0.00    -0.079 S 
ATOM      2  H   UNL     1      53.411 156.022  30.229  0.00  0.00    +0.119 HD
ENDROOT
BRANCH   1   3
ATOM      3  N   UNL     1      51.248 156.473  29.349  0.00  0.00    -0.228 N 
ATOM      4  C   UNL     1      50.255 155.541  29.211  0.00  0.00    +0.177 C 
ATOM      5  N   UNL     1      49.082 156.073  29.547  0.00  0.00    -0.226 NA
ATOM      6  C   UNL     1      49.299 157.344  29.904  0.00  0.00    +0.097 C 
ATOM      7  C   UNL     1      48.445 158.342  30.339  0.00  0.00    +0.020 C 
ATOM      8  C   UNL     1      48.897 159.604  30.663  0.00  0.00    +0.002 C 
ATOM      9  C   UNL     1      50.234 159.825  30.533  0.00  0.00    +0.001 C 
ATOM     10  C   UNL     1      51.082 158.847  30.104  0.00  0.00    +0.017 C 
ATOM     11  C   UNL     1      50.651 157.564  29.771  0.00  0.00    +0.080 C 
ENDBRANCH   1   3
BRANCH   1  12
ATOM     12  C   UNL     1      53.447 157.264  28.113  0.00  0.00    +0.109 C 
ATOM     13  S   UNL     1      53.848 157.038  26.519  0.00  0.00    -0.028 S 
BRANCH  12  14
ATOM     14  N   UNL     1      53.753 158.572  28.614  0.00  0.00    -0.347 N 
ATOM     15  H   UNL     1      53.551 158.800  29.550  0.00  0.00    +0.143 HD
ATOM     16  H   UNL     1      54.165 159.242  28.022  0.00  0.00    +0.143 HD
ENDBRANCH  12  14
ENDBRANCH   1  12
BRANCH   1  17
ATOM     17  S   UNL     1      52.952 154.587  28.051  0.00  0.00    -0.062 S 
ATOM     18  H   UNL     1      54.197 154.059  28.190  0.00  0.00    +0.120 HD
BRANCH  17  19
ATOM     19  N   UNL     1      52.593 154.921  26.472  0.00  0.00    -0.260 N 
ATOM     20  C   UNL     1      53.307 154.242  25.471  0.00  0.00    +0.254 C 
ATOM     21  O   UNL     1      54.221 153.384  25.780  0.00  0.00    -0.269 OA
ATOM     22  H   UNL     1      51.898 155.578  26.240  0.00  0.00    +0.162 HD
BRANCH  20  23
ATOM     23  C   UNL     1      53.035 154.491  24.078  0.00  0.00    +0.059 C 
ATOM     24  C   UNL     1      52.394 155.549  23.672  0.00  0.00    +0.005 C 
ENDBRANCH  20  23
ENDBRANCH  17  19
BRANCH  17  25
ATOM     25  P   UNL     1      51.695 153.550  28.580  0.00  0.00    +0.228 P 
ATOM     26  S   UNL     1      51.919 151.893  28.135  0.00  0.00    +0.003 S 
BRANCH  25  27
ATOM     27  O   UNL     1      50.156 153.965  28.008  0.00  0.00    -0.339 OA
ATOM     28  H   UNL     1      49.968 154.891  28.228  0.00  0.00    +0.218 HD
ENDBRANCH  25  27
BRANCH  25  29
ATOM     29  O   UNL     1      51.546 153.534  30.297  0.00  0.00    -0.339 OA
ATOM     30  H   UNL     1      52.400 153.301  30.694  0.00  0.00    +0.218 HD
ENDBRANCH  25  29
ENDBRANCH  17  25
ENDBRANCH   1  17
TORSDOF 9
