REMARK  Name = =
REMARK  10 active torsions:
REMARK  status: ('A' for Active; 'I' for Inactive)
REMARK    1  A    between atoms: P_1  and  C_3
REMARK    2  A    between atoms: P_1  and  O_9
REMARK    3  A    between atoms: P_1  and  C_11
REMARK    4  A    between atoms: O_2  and  O_10
REMARK    5  A    between atoms: C_3  and  N_5
REMARK    6  A    between atoms: N_5  and  N_6
REMARK    7  A    between atoms: C_11  and  O_14
REMARK    8  A    between atoms: N_12  and  O_13
REMARK    9  A    between atoms: O_14  and  C_15
REMARK   10  A    between atoms: C_15  and  O_17
REMARK                            x       y       z     vdW  Elec       q    Type
REMARK                         _______ _______ _______ _____ _____    ______ ____
ROOT
ATOM      1  P   UNL     1      49.968 160.067  31.384  0.00  0.00    +0.168 P 
ENDROOT
BRANCH   1   2
ATOM      2  C   UNL     1      48.374 159.901  30.691  0.00  0.00    +0.089 C 
ATOM      3  C   UNL     1      48.111 158.887  29.932  0.00  0.00    +0.020 C 
BRANCH   2   4
ATOM      4  N   UNL     1      47.352 160.853  30.958  0.00  0.00    -0.261 N 
ATOM      5  H   UNL     1      46.452 160.514  31.167  0.00  0.00    +0.170 HD
BRANCH   4   6
ATOM      6  N   UNL     1      47.539 162.234  30.944  0.00  0.00    -0.229 N 
ATOM      7  C   UNL     1      48.008 162.981  32.050  0.00  0.00    +0.316 C 
ATOM      8  O   UNL     1      48.279 162.389  33.122  0.00  0.00    -0.264 OA
ATOM      9  H   UNL     1      47.332 162.720  30.113  0.00  0.00    +0.173 HD
ENDBRANCH   4   6
ENDBRANCH   2   4
ENDBRANCH   1   2
BRANCH   1  10
ATOM     10  O   UNL     1      50.137 160.844  29.893  0.00  0.00    -0.359 OA
ATOM     11  H   UNL     1      49.516 161.587  29.843  0.00  0.00    +0.216 HD
ENDBRANCH   1  10
BRANCH   1  12
ATOM     12  C   UNL     1      51.220 159.194  30.524  0.00  0.00    +0.292 C 
ATOM     13  N   UNL     1      52.431 159.623  30.531  0.00  0.00    -0.045 NA
BRANCH  13  14
ATOM     14  O   UNL     1      52.830 160.757  31.189  0.00  0.00    -0.406 OA
ATOM     15  H   UNL     1      53.728 161.024  31.160  0.00  0.00    +0.328 HD
ENDBRANCH  13  14
BRANCH  12  16
ATOM     16  O   UNL     1      50.917 158.049  29.845  0.00  0.00    -0.370 OA
BRANCH  16  17
ATOM     17  C   UNL     1      51.907 157.289  29.187  0.00  0.00    +0.515 C 
ATOM     18  O   UNL     1      53.048 157.758  28.996  0.00  0.00    -0.203 OA
BRANCH  17  19
ATOM     19  O   UNL     1      51.633 156.005  28.740  0.00  0.00    -0.449 OA
ATOM     20  H   UNL     1      52.298 155.509  28.304  0.00  0.00    +0.299 HD
ENDBRANCH  17  19
ENDBRANCH  16  17
ENDBRANCH  12  16
ENDBRANCH   1  12
TORSDOF 9
REMARK  Name = =
REMARK  10 active torsions:
REMARK  status: ('A' for Active; 'I' for Inactive)
REMARK    1  A    between atoms: P_1  and  C_3
REMARK    2  A    between atoms: P_1  and  O_9
REMARK    3  A    between atoms: P_1  and  C_11
REMARK    4  A    between atoms: O_2  and  O_10
REMARK    5  A    between atoms: C_3  and  N_5
REMARK    6  A    between atoms: N_5  and  N_6
REMARK    7  A    between atoms: C_11  and  O_14
REMARK    8  A    between atoms: N_12  and  O_13
REMARK    9  A    between atoms: O_14  and  C_15
REMARK   10  A    between atoms: C_15  and  O_17
REMARK                            x       y       z     vdW  Elec       q    Type
REMARK                         _______ _______ _______ _____ _____    ______ ____
ROOT
ATOM      1  O   UNL     1      50.329 159.610  32.792  0.00  0.00    -0.253 OA
ATOM      2  H   UNL     1      51.158 159.213  32.483  0.00  0.00    +0.253 HD
ENDROOT
BRANCH   1   3
ATOM      3  O   UNL     1      50.401 161.074  32.645  0.00  0.00    -0.253 OA
ATOM      4  H   UNL     1      49.572 161.471  32.954  0.00  0.00    +0.253 HD
ENDBRANCH   1   3
TORSDOF 1
