REMARK  Name = =
REMARK  12 active torsions:
REMARK  status: ('A' for Active; 'I' for Inactive)
REMARK    1  A    between atoms: S_1  and  N_2
REMARK    2  A    between atoms: S_1  and  C_18
REMARK    3  A    between atoms: S_1  and  S_21
REMARK    4  A    between atoms: C_8  and  N_11
REMARK    5  A    between atoms: N_11  and  O_15
REMARK    6  A    between atoms: O_15  and  C_16
REMARK    7  A    between atoms: C_18  and  N_20
REMARK    8  A    between atoms: S_21  and  N_22
REMARK    9  A    between atoms: S_21  and  P_29
REMARK   10  A    between atoms: C_23  and  C_27
REMARK   11  A    between atoms: P_29  and  O_31
REMARK   12  A    between atoms: P_29  and  O_32
REMARK                            x       y       z     vdW  Elec       q    Type
REMARK                         _______ _______ _______ _____ _____    ______ ____
ROOT
ATOM      1  S   UNL     1      52.008 156.558  27.632  0.00  0.00    -0.079 S 
ATOM      2  H   UNL     1      52.006 157.475  26.628  0.00  0.00    +0.119 HD
ENDROOT
BRANCH   1   3
ATOM      3  N   UNL     1      50.792 156.642  28.694  0.00  0.00    -0.228 N 
ATOM      4  C   UNL     1      49.885 155.622  28.883  0.00  0.00    +0.177 C 
ATOM      5  N   UNL     1      48.995 155.915  29.809  0.00  0.00    -0.226 NA
ATOM      6  C   UNL     1      49.304 157.140  30.249  0.00  0.00    +0.097 C 
ATOM      7  C   UNL     1      48.678 157.888  31.231  0.00  0.00    +0.022 C 
ATOM      8  C   UNL     1      49.179 159.121  31.530  0.00  0.00    +0.020 C 
ATOM      9  C   UNL     1      50.284 159.619  30.878  0.00  0.00    +0.095 C 
ATOM     10  C   UNL     1      50.868 158.833  29.908  0.00  0.00    +0.036 C 
ATOM     11  C   UNL     1      50.424 157.578  29.545  0.00  0.00    +0.082 C 
BRANCH   9  12
ATOM     12  N   UNL     1      50.819 160.912  31.223  0.00  0.00    -0.081 N 
ATOM     13  C   UNL     1      52.246 161.081  31.069  0.00  0.00    +0.337 C 
ATOM     14  O   UNL     1      52.938 160.171  30.600  0.00  0.00    -0.249 OA
ATOM     15  N   UNL     1      52.864 162.307  31.463  0.00  0.00    -0.311 N 
ATOM     16  H   UNL     1      52.318 163.036  31.837  0.00  0.00    +0.147 HD
ATOM     17  H   UNL     1      53.836 162.423  31.360  0.00  0.00    +0.147 HD
BRANCH  12  18
ATOM     18  O   UNL     1      50.087 161.951  31.674  0.00  0.00    -0.329 OA
BRANCH  18  19
ATOM     19  C   UNL     1      48.742 162.123  31.573  0.00  0.00    +0.442 C 
ATOM     20  O   UNL     1      48.106 161.295  30.825  0.00  0.00    -0.235 OA
ENDBRANCH  18  19
ENDBRANCH  12  18
ENDBRANCH   9  12
ENDBRANCH   1   3
BRANCH   1  21
ATOM     21  C   UNL     1      53.380 156.734  28.465  0.00  0.00    +0.109 C 
ATOM     22  S   UNL     1      54.100 158.243  28.588  0.00  0.00    -0.028 S 
BRANCH  21  23
ATOM     23  N   UNL     1      54.158 155.722  29.088  0.00  0.00    -0.347 N 
ATOM     24  H   UNL     1      53.845 154.789  29.086  0.00  0.00    +0.143 HD
ATOM     25  H   UNL     1      55.011 155.954  29.522  0.00  0.00    +0.143 HD
ENDBRANCH  21  23
ENDBRANCH   1  21
BRANCH   1  26
ATOM     26  S   UNL     1      51.827 154.773  27.035  0.00  0.00    -0.053 S 
ATOM     27  H   UNL     1      50.549 154.491  26.666  0.00  0.00    +0.121 HD
BRANCH  26  28
ATOM     28  N   UNL     1      52.918 154.642  25.888  0.00  0.00    -0.195 N 
ATOM     29  C   UNL     1      53.835 155.596  25.408  0.00  0.00    +0.263 C 
ATOM     30  O   UNL     1      53.994 156.740  25.861  0.00  0.00    -0.269 OA
ATOM     31  C   UNL     1      53.022 153.352  25.223  0.00  0.00    +0.171 C 
ATOM     32  N   UNL     1      54.117 152.698  25.274  0.00  0.00    -0.282 NA
ATOM     33  H   UNL     1      54.190 151.825  24.825  0.00  0.00    +0.188 HD
BRANCH  29  34
ATOM     34  C   UNL     1      54.707 155.258  24.252  0.00  0.00    +0.059 C 
ATOM     35  C   UNL     1      55.650 156.107  23.916  0.00  0.00    +0.005 C 
ENDBRANCH  29  34
ENDBRANCH  26  28
BRANCH  26  36
ATOM     36  P   UNL     1      52.361 153.692  28.289  0.00  0.00    +0.229 P 
ATOM     37  S   UNL     1      51.704 152.081  28.070  0.00  0.00    +0.003 S 
BRANCH  36  38
ATOM     38  O   UNL     1      54.034 153.436  28.265  0.00  0.00    -0.339 OA
ATOM     39  H   UNL     1      54.492 154.283  28.381  0.00  0.00    +0.218 HD
ENDBRANCH  36  38
BRANCH  36  40
ATOM     40  O   UNL     1      52.002 154.237  29.850  0.00  0.00    -0.339 OA
ATOM     41  H   UNL     1      51.049 154.402  29.924  0.00  0.00    +0.218 HD
ENDBRANCH  36  40
ENDBRANCH  26  36
ENDBRANCH   1  26
TORSDOF 12
