REMARK  Name = =
REMARK  0 active torsions:
REMARK  status: ('A' for Active; 'I' for Inactive)
REMARK                            x       y       z     vdW  Elec       q    Type
REMARK                         _______ _______ _______ _____ _____    ______ ____
ROOT
ATOM      1  C   UNL     1     -13.284 -42.898  27.462  0.00  0.00    +0.004 C 
ATOM      2  C   UNL     1     -14.721 -43.260  27.484  0.00  0.00    +0.001 C 
ATOM      3  C   UNL     1     -15.517 -42.923  26.306  0.00  0.00    +0.000 C 
ATOM      4  C   UNL     1     -14.833 -43.433  25.071  0.00  0.00    +0.000 C 
ATOM      5  C   UNL     1     -13.407 -43.020  24.941  0.00  0.00    +0.000 C 
ATOM      6  C   UNL     1     -12.599 -42.970  26.161  0.00  0.00    +0.000 C 
ATOM      7  C   UNL     1     -15.678 -42.769  23.980  0.00  0.00    +0.000 C 
ATOM      8  C   UNL     1     -16.115 -41.455  24.556  0.00  0.00    +0.000 C 
ATOM      9  C   UNL     1     -15.715 -41.469  26.028  0.00  0.00    +0.000 C 
ATOM     10  C   UNL     1     -15.337 -42.962  28.812  0.00  0.00    +0.004 C 
ATOM     11  C   UNL     1     -14.788 -44.033  29.766  0.00  0.00    +0.022 C 
ATOM     12  C   UNL     1     -13.294 -43.893  29.742  0.00  0.00    -0.042 C 
ATOM     13  C   UNL     1     -12.683 -44.068  30.899  0.00  0.00    +0.029 C 
ATOM     14  C   UNL     1     -11.236 -43.946  30.947  0.00  0.00    +0.173 C 
ATOM     15  O   UNL     1     -10.548 -44.661  31.716  0.00  0.00    -0.291 OA
ATOM     16  C   UNL     1     -10.631 -42.925  30.034  0.00  0.00    +0.069 C 
ATOM     17  C   UNL     1     -11.103 -43.317  28.650  0.00  0.00    +0.012 C 
ATOM     18  C   UNL     1     -12.537 -43.590  28.544  0.00  0.00    +0.019 C 
ENDROOT
TORSDOF 0
