REMARK  Name = =
REMARK  6 active torsions:
REMARK  status: ('A' for Active; 'I' for Inactive)
REMARK    1  A    between atoms: C_1  and  C_20
REMARK    2  A    between atoms: S_19  and  C_20
REMARK    3  A    between atoms: S_19  and  O_21
REMARK    4  A    between atoms: O_21  and  C_22
REMARK    5  A    between atoms: C_22  and  C_24
REMARK    6  A    between atoms: C_24  and  C_27
REMARK                            x       y       z     vdW  Elec       q    Type
REMARK                         _______ _______ _______ _____ _____    ______ ____
ROOT
ATOM      1  C   UNL     1     -14.274 -42.766  26.260  0.00  0.00    +0.016 C 
ATOM      2  C   UNL     1     -14.263 -44.286  26.140  0.00  0.00    +0.002 C 
ATOM      3  C   UNL     1     -13.429 -44.791  27.256  0.00  0.00    +0.000 C 
ATOM      4  C   UNL     1     -12.633 -43.759  27.989  0.00  0.00    +0.000 C 
ATOM      5  C   UNL     1     -11.920 -42.775  27.083  0.00  0.00    +0.000 C 
ATOM      6  C   UNL     1     -12.859 -42.251  26.025  0.00  0.00    +0.001 C 
ATOM      7  C   UNL     1     -11.595 -44.601  28.700  0.00  0.00    +0.000 C 
ATOM      8  C   UNL     1     -11.261 -45.696  27.684  0.00  0.00    +0.000 C 
ATOM      9  C   UNL     1     -12.633 -46.000  27.074  0.00  0.00    +0.000 C 
ATOM     10  C   UNL     1     -13.797 -44.656  24.780  0.00  0.00    +0.004 C 
ATOM     11  C   UNL     1     -14.604 -44.072  23.677  0.00  0.00    +0.022 C 
ATOM     12  C   UNL     1     -15.552 -43.021  24.174  0.00  0.00    -0.042 C 
ATOM     13  C   UNL     1     -16.711 -42.947  23.559  0.00  0.00    +0.029 C 
ATOM     14  C   UNL     1     -17.670 -41.942  24.004  0.00  0.00    +0.173 C 
ATOM     15  O   UNL     1     -18.402 -41.353  23.180  0.00  0.00    -0.291 OA
ATOM     16  C   UNL     1     -17.694 -41.692  25.480  0.00  0.00    +0.069 C 
ATOM     17  C   UNL     1     -16.268 -41.271  25.830  0.00  0.00    +0.012 C 
ATOM     18  C   UNL     1     -15.217 -42.128  25.269  0.00  0.00    +0.020 C 
ENDROOT
BRANCH   1  19
ATOM     19  C   UNL     1     -14.657 -42.342  27.633  0.00  0.00    +0.084 C 
BRANCH  19  20
ATOM     20  S   UNL     1     -15.604 -43.283  28.494  0.00  0.00    -0.028 S 
ATOM     21  H   UNL     1     -16.778 -43.447  27.828  0.00  0.00    +0.134 HD
BRANCH  20  22
ATOM     22  O   UNL     1     -15.940 -42.633  30.055  0.00  0.00    -0.402 OA
BRANCH  22  23
ATOM     23  C   UNL     1     -15.124 -42.900  31.150  0.00  0.00    +0.361 C 
ATOM     24  O   UNL     1     -14.244 -43.790  30.950  0.00  0.00    -0.243 OA
BRANCH  23  25
ATOM     25  C   UNL     1     -15.220 -42.248  32.441  0.00  0.00    +0.145 C 
ATOM     26  C   UNL     1     -15.783 -41.073  32.580  0.00  0.00    +0.018 C 
BRANCH  25  28
ATOM     27  N   UNL     1     -14.243 -43.455  34.509  0.00  0.00    -0.191 NA
ATOM     28  C   UNL     1     -14.687 -42.908  33.589  0.00  0.00    +0.107 C 
ENDBRANCH  25  28
ENDBRANCH  23  25
ENDBRANCH  22  23
ENDBRANCH  20  22
ENDBRANCH  19  20
ENDBRANCH   1  19
TORSDOF 6
