REMARK  Name = =
REMARK  2 active torsions:
REMARK  status: ('A' for Active; 'I' for Inactive)
REMARK    1  A    between atoms: C_7  and  C_11
REMARK    2  A    between atoms: C_8  and  O_18
REMARK                            x       y       z     vdW  Elec       q    Type
REMARK                         _______ _______ _______ _____ _____    ______ ____
ROOT
ATOM      1  O   UNL     1      -3.190  -4.402  31.091  0.00  0.00    -0.476 OA
ATOM      2  C   UNL     1      -3.920  -4.740  32.280  0.00  0.00    +0.206 C 
ATOM      3  C   UNL     1      -4.258  -6.189  32.365  0.00  0.00    +0.052 C 
ATOM      4  C   UNL     1      -3.612  -7.080  31.375  0.00  0.00    +0.033 C 
ATOM      5  C   UNL     1      -2.349  -6.580  30.783  0.00  0.00    +0.012 C 
ATOM      6  C   UNL     1      -2.188  -5.225  30.631  0.00  0.00    +0.136 C 
ATOM      7  C   UNL     1      -1.029  -4.751  30.024  0.00  0.00    +0.072 C 
ATOM      8  C   UNL     1      -0.048  -5.591  29.580  0.00  0.00    +0.135 C 
ATOM      9  C   UNL     1      -0.252  -6.963  29.755  0.00  0.00    +0.036 C 
ATOM     10  C   UNL     1      -1.375  -7.465  30.343  0.00  0.00    +0.002 C 
ENDROOT
BRANCH   7  11
ATOM     11  C   UNL     1      -0.926  -3.256  29.980  0.00  0.00    +0.143 C 
ATOM     12  O   UNL     1       0.448  -2.928  29.899  0.00  0.00    -0.352 OA
ATOM     13  C   UNL     1       0.905  -2.696  28.616  0.00  0.00    +0.143 C 
ATOM     14  C   UNL     1       0.340  -1.430  27.974  0.00  0.00    +0.032 C 
ATOM     15  C   UNL     1      -1.105  -1.343  28.439  0.00  0.00    +0.005 C 
ATOM     16  C   UNL     1      -1.612  -2.718  28.737  0.00  0.00    +0.032 C 
ATOM     17  C   UNL     1      -1.784  -3.663  27.621  0.00  0.00    +0.003 C 
ENDBRANCH   7  11
BRANCH   8  18
ATOM     18  O   UNL     1       1.108  -5.144  28.992  0.00  0.00    -0.506 OA
ATOM     19  H   UNL     1       1.754  -5.758  28.702  0.00  0.00    +0.292 HD
ENDBRANCH   8  18
TORSDOF 2
