MODEL 1
REMARK VINA RESULT:    -7.811      0.000      0.000
REMARK INTER + INTRA:         -11.405
REMARK INTER:                 -10.779
REMARK INTRA:                  -0.626
REMARK UNBOUND:                -0.626
REMARK  Name = =
REMARK  9 active torsions:
REMARK  status: ('A' for Active; 'I' for Inactive)
REMARK    1  A    between atoms: C_2  and  N_22
REMARK    2  A    between atoms: C_3  and  N_26
REMARK    3  A    between atoms: N_12  and  C_28
REMARK    4  A    between atoms: C_17  and  O_34
REMARK    5  A    between atoms: C_19  and  O_33
REMARK    6  A    between atoms: C_20  and  C_31
REMARK    7  A    between atoms: N_22  and  O_25
REMARK    8  A    between atoms: N_26  and  N_27
REMARK    9  A    between atoms: C_28  and  N_30
REMARK                            x       y       z     vdW  Elec       q    Type
REMARK                         _______ _______ _______ _____ _____    ______ ____
ROOT
ATOM      1  N   UNL     1       1.114  -3.580  28.656  0.00  0.00    -0.225 NA
ATOM      2  C   UNL     1       1.962  -3.291  27.623  0.00  0.00    +0.192 C 
ATOM      3  C   UNL     1       0.932  -3.207  26.578  0.00  0.00    +0.130 C 
ATOM      4  C   UNL     1       0.058  -3.876  27.611  0.00  0.00    +0.120 C 
ATOM      5  C   UNL     1      -0.165  -3.478  28.931  0.00  0.00    +0.160 C 
ATOM      6  O   UNL     1      -0.933  -2.331  29.167  0.00  0.00    -0.343 OA
ATOM      7  C   UNL     1      -2.217  -2.863  29.285  0.00  0.00    +0.144 C 
ATOM      8  C   UNL     1      -2.064  -4.227  29.974  0.00  0.00    +0.039 C 
ATOM      9  C   UNL     1      -0.552  -4.276  30.132  0.00  0.00    +0.076 C 
ATOM     10  S   UNL     1       3.080  -4.792  27.534  0.00  0.00    -0.083 S 
ATOM     11  C   UNL     1       2.403  -5.944  28.732  0.00  0.00    +0.156 C 
ATOM     12  N   UNL     1       1.558  -6.882  28.022  0.00  0.00    -0.142 N 
ATOM     13  O   UNL     1       0.318  -7.297  28.539  0.00  0.00    -0.114 OA
ATOM     14  O   UNL     1      -0.325  -6.386  29.070  0.00  0.00    -0.199 OA
ATOM     15  C   UNL     1      -0.048  -5.699  30.251  0.00  0.00    +0.166 C 
ATOM     16  C   UNL     1      -1.084  -6.377  31.101  0.00  0.00    +0.041 C 
ATOM     17  C   UNL     1      -0.908  -7.119  32.152  0.00  0.00    +0.134 C 
ATOM     18  C   UNL     1       0.429  -7.354  32.664  0.00  0.00    +0.069 C 
ATOM     19  C   UNL     1       1.410  -6.738  32.046  0.00  0.00    +0.123 C 
ATOM     20  C   UNL     1       1.227  -5.813  30.911  0.00  0.00    +0.140 C 
ATOM     21  C   UNL     1       2.480  -5.964  30.032  0.00  0.00    +0.051 C 
ENDROOT
BRANCH   2  22
ATOM     22  N   UNL     1       2.754  -2.084  27.750  0.00  0.00    -0.142 N 
ATOM     23  C   UNL     1       3.826  -1.873  26.855  0.00  0.00    +0.329 C 
ATOM     24  O   UNL     1       4.107  -2.711  25.950  0.00  0.00    -0.263 OA
BRANCH  22  25
ATOM     25  O   UNL     1       2.505  -1.148  28.694  0.00  0.00    -0.290 OA
ATOM     26  H   UNL     1       1.601  -1.257  29.028  0.00  0.00    +0.242 HD
ENDBRANCH  22  25
ENDBRANCH   2  22
BRANCH   3  27
ATOM     27  N   UNL     1       0.450  -1.883  26.267  0.00  0.00    -0.245 NA
ATOM     28  H   UNL     1       1.016  -1.504  25.509  0.00  0.00    +0.141 HD
BRANCH  27  29
ATOM     29  N   UNL     1      -0.873  -1.857  25.881  0.00  0.00    -0.270 NA
ATOM     30  H   UNL     1      -1.425  -1.373  26.588  0.00  0.00    +0.137 HD
ATOM     31  H   UNL     1      -1.216  -2.812  25.778  0.00  0.00    +0.137 HD
ENDBRANCH  27  29
ENDBRANCH   3  27
BRANCH  12  32
ATOM     32  C   UNL     1       1.968  -7.370  26.784  0.00  0.00    +0.158 C 
ATOM     33  S   UNL     1       3.202  -8.427  26.713  0.00  0.00    -0.017 S 
BRANCH  32  34
ATOM     34  N   UNL     1       1.336  -6.973  25.597  0.00  0.00    -0.339 N 
ATOM     35  H   UNL     1       1.020  -7.651  24.956  0.00  0.00    +0.144 HD
ATOM     36  H   UNL     1       1.209  -6.015  25.404  0.00  0.00    +0.144 HD
ENDBRANCH  32  34
ENDBRANCH  12  32
BRANCH  20  37
ATOM     37  C   UNL     1       1.475  -4.454  31.609  0.00  0.00    +0.217 C 
ATOM     38  O   UNL     1       2.542  -4.324  32.154  0.00  0.00    -0.288 OA
ENDBRANCH  20  37
BRANCH  19  39
ATOM     39  O   UNL     1       2.694  -7.028  32.553  0.00  0.00    -0.509 OA
ATOM     40  H   UNL     1       3.135  -7.812  32.290  0.00  0.00    +0.292 HD
ENDBRANCH  19  39
BRANCH  17  41
ATOM     41  O   UNL     1      -2.016  -7.713  32.818  0.00  0.00    -0.506 OA
ATOM     42  H   UNL     1      -2.182  -8.630  32.723  0.00  0.00    +0.292 HD
ENDBRANCH  17  41
TORSDOF 9
ENDMDL
