REMARK  Name = =
REMARK  2 active torsions:
REMARK  status: ('A' for Active; 'I' for Inactive)
REMARK    1  A    between atoms: C_1  and  C_4
REMARK    2  A    between atoms: N_3  and  O_6
REMARK                            x       y       z     vdW  Elec       q    Type
REMARK                         _______ _______ _______ _____ _____    ______ ____
ROOT
ATOM      1  C   UNL     1      52.669 155.211  27.031  0.00  0.00    +0.268 C 
ATOM      2  O   UNL     1      52.781 155.188  28.282  0.00  0.00    -0.268 OA
ATOM      3  N   UNL     1      51.981 154.145  26.404  0.00  0.00    -0.193 N 
ATOM      4  H   UNL     1      51.866 154.117  25.427  0.00  0.00    +0.183 HD
ENDROOT
BRANCH   1   5
ATOM      5  C   UNL     1      53.243 156.311  26.314  0.00  0.00    +0.060 C 
ATOM      6  C   UNL     1      53.430 156.217  25.024  0.00  0.00    +0.005 C 
ENDBRANCH   1   5
BRANCH   3   7
ATOM      7  O   UNL     1      51.478 153.149  27.210  0.00  0.00    -0.295 OA
ATOM      8  H   UNL     1      51.687 153.346  28.136  0.00  0.00    +0.241 HD
ENDBRANCH   3   7
TORSDOF 2
