REMARK  Name = =
REMARK  0 active torsions:
REMARK  status: ('A' for Active; 'I' for Inactive)
REMARK                            x       y       z     vdW  Elec       q    Type
REMARK                         _______ _______ _______ _____ _____    ______ ____
ROOT
ATOM      1  C   UNL     1      -2.863  -3.328  31.541  0.00  0.00    +0.141 C 
ATOM      2  N   UNL     1      -2.652  -4.580  31.085  0.00  0.00    -0.145 NA
ATOM      3  N   UNL     1      -3.639  -5.344  30.633  0.00  0.00    -0.146 NA
ATOM      4  C   UNL     1      -4.920  -4.917  30.603  0.00  0.00    +0.125 C 
ATOM      5  C   UNL     1      -5.154  -3.635  31.068  0.00  0.00    +0.059 C 
ATOM      6  C   UNL     1      -4.150  -2.814  31.544  0.00  0.00    +0.107 C 
ATOM      7  N   UNL     1      -4.425  -1.568  31.987  0.00  0.00    -0.222 NA
ATOM      8  C   UNL     1      -5.675  -1.072  31.988  0.00  0.00    +0.199 C 
ATOM      9  N   UNL     1      -6.662  -1.857  31.529  0.00  0.00    -0.222 NA
ATOM     10  C   UNL     1      -6.429  -3.103  31.077  0.00  0.00    +0.104 C 
ENDROOT
TORSDOF 0
