REMARK  Name = =
REMARK  0 active torsions:
REMARK  status: ('A' for Active; 'I' for Inactive)
REMARK                            x       y       z     vdW  Elec       q    Type
REMARK                         _______ _______ _______ _____ _____    ______ ____
ROOT
ATOM      1 CL   UNL     1      -4.150  -2.054  30.626  0.00  0.00    -0.082 Cl
ATOM      2  C   UNL     1      -5.695  -1.991  31.430  0.00  0.00    +0.059 C 
ATOM      3  C   UNL     1      -6.889  -2.225  30.797  0.00  0.00    +0.027 C 
ATOM      4  C   UNL     1      -8.120  -2.166  31.475  0.00  0.00    +0.055 C 
ATOM      5  C   UNL     1      -8.087  -1.859  32.818  0.00  0.00    +0.043 C 
ATOM      6  C   UNL     1      -6.921  -1.622  33.468  0.00  0.00    +0.009 C 
ATOM      7  C   UNL     1      -5.725  -1.686  32.784  0.00  0.00    +0.012 C 
ATOM      8  S   UNL     1      -9.646  -1.778  33.700  0.00  0.00    -0.084 S 
ATOM      9  C   UNL     1     -10.913  -2.143  32.519  0.00  0.00    +0.043 C 
ATOM     10  C   UNL     1     -10.604  -2.415  31.210  0.00  0.00    +0.054 C 
ATOM     11  C   UNL     1     -11.658  -2.697  30.324  0.00  0.00    +0.015 C 
ATOM     12  C   UNL     1     -12.963  -2.705  30.725  0.00  0.00    +0.001 C 
ATOM     13  C   UNL     1     -13.265  -2.430  32.043  0.00  0.00    +0.001 C 
ATOM     14  C   UNL     1     -12.200  -2.152  32.912  0.00  0.00    +0.008 C 
ATOM     15  N   UNL     1      -9.276  -2.425  30.721  0.00  0.00    -0.312 N 
ATOM     16  H   UNL     1      -9.151  -2.632  29.767  0.00  0.00    +0.152 HD
ENDROOT
TORSDOF 0
