REMARK  Name = =
REMARK  1 active torsions:
REMARK  status: ('A' for Active; 'I' for Inactive)
REMARK    1  A    between atoms: C_1  and  C_32
REMARK                            x       y       z     vdW  Elec       q    Type
REMARK                         _______ _______ _______ _____ _____    ______ ____
ROOT
ATOM      1  C   UNL     1     -12.056  -0.974  28.144  0.00  0.00    +0.044 C 
ATOM      2  C   UNL     1     -11.152  -1.438  29.278  0.00  0.00    +0.009 C 
ATOM      3  C   UNL     1     -11.959  -2.029  30.409  0.00  0.00    +0.005 C 
ATOM      4  C   UNL     1     -13.368  -1.547  30.481  0.00  0.00    +0.026 C 
ATOM      5  C   UNL     1     -13.527  -0.191  29.907  0.00  0.00    -0.026 C 
ATOM      6  C   UNL     1     -12.872   0.127  28.712  0.00  0.00    -0.022 C 
ATOM      7  C   UNL     1     -13.005   1.375  28.154  0.00  0.00    -0.001 C 
ATOM      8  C   UNL     1     -13.790   2.355  28.758  0.00  0.00    +0.042 C 
ATOM      9  C   UNL     1     -14.432   2.035  29.933  0.00  0.00    +0.042 C 
ATOM     10  C   UNL     1     -14.310   0.777  30.514  0.00  0.00    -0.001 C 
ATOM     11  C   UNL     1     -15.261   3.071  30.570  0.00  0.00    +0.196 C 
ATOM     12  O   UNL     1     -15.844   2.783  31.636  0.00  0.00    -0.287 OA
ATOM     13  C   UNL     1     -15.394   4.391  29.968  0.00  0.00    +0.042 C 
ATOM     14  C   UNL     1     -14.749   4.717  28.784  0.00  0.00    +0.042 C 
ATOM     15  C   UNL     1     -14.871   5.965  28.209  0.00  0.00    +0.003 C 
ATOM     16  C   UNL     1     -15.654   6.918  28.828  0.00  0.00    +0.000 C 
ATOM     17  C   UNL     1     -16.313   6.628  30.011  0.00  0.00    +0.000 C 
ATOM     18  C   UNL     1     -16.184   5.360  30.587  0.00  0.00    +0.003 C 
ATOM     19  C   UNL     1     -13.932   3.680  28.165  0.00  0.00    +0.196 C 
ATOM     20  O   UNL     1     -13.335   3.961  27.084  0.00  0.00    -0.287 OA
ENDROOT
BRANCH   1  32
ATOM     21 CL   UNL     1     -12.434   0.756  18.316  0.00  0.00    -0.082 Cl
ATOM     22  C   UNL     1     -11.455   0.699  19.761  0.00  0.00    +0.059 C 
ATOM     23  C   UNL     1     -11.944   0.369  20.988  0.00  0.00    +0.027 C 
ATOM     24  C   UNL     1     -11.172   0.318  22.158  0.00  0.00    +0.055 C 
ATOM     25  C   UNL     1      -9.847   0.633  21.988  0.00  0.00    +0.043 C 
ATOM     26  C   UNL     1      -9.324   0.966  20.789  0.00  0.00    +0.009 C 
ATOM     27  C   UNL     1     -10.113   1.007  19.645  0.00  0.00    +0.012 C 
ATOM     28  S   UNL     1      -8.773   0.601  23.405  0.00  0.00    -0.084 S 
ATOM     29  C   UNL     1      -9.763   0.132  24.805  0.00  0.00    +0.043 C 
ATOM     30  C   UNL     1     -11.098  -0.122  24.634  0.00  0.00    +0.054 C 
ATOM     31  C   UNL     1     -11.819  -0.487  25.780  0.00  0.00    +0.011 C 
ATOM     32  C   UNL     1     -11.216  -0.585  27.010  0.00  0.00    -0.017 C 
ATOM     33  C   UNL     1      -9.862  -0.317  27.123  0.00  0.00    -0.003 C 
ATOM     34  C   UNL     1      -9.139   0.042  26.019  0.00  0.00    +0.007 C 
ATOM     35  N   UNL     1     -11.772  -0.037  23.387  0.00  0.00    -0.312 N 
ATOM     36  H   UNL     1     -12.735  -0.242  23.378  0.00  0.00    +0.152 HD
ENDBRANCH   1  32
TORSDOF 1
