REMARK  Name = =
REMARK  1 active torsions:
REMARK  status: ('A' for Active; 'I' for Inactive)
REMARK    1  A    between atoms: C_1  and  C_16
REMARK                            x       y       z     vdW  Elec       q    Type
REMARK                         _______ _______ _______ _____ _____    ______ ____
ROOT
ATOM      1  C   UNL     1      -2.565  -2.458  21.117  0.00  0.00    +0.121 C 
ATOM      2  N   UNL     1      -3.364  -2.430  22.190  0.00  0.00    -0.146 NA
ATOM      3  N   UNL     1      -3.635  -1.310  22.814  0.00  0.00    -0.146 NA
ATOM      4  C   UNL     1      -3.142  -0.113  22.437  0.00  0.00    +0.125 C 
ATOM      5  C   UNL     1      -2.316  -0.073  21.344  0.00  0.00    +0.059 C 
ATOM      6  C   UNL     1      -2.027  -1.261  20.680  0.00  0.00    +0.107 C 
ATOM      7  N   UNL     1      -1.249  -1.278  19.589  0.00  0.00    -0.209 NA
ATOM      8  C   UNL     1      -0.728  -0.138  19.107  0.00  0.00    +0.262 C 
ATOM      9  N   UNL     1       0.078  -0.098  17.912  0.00  0.00    -0.053 N 
ATOM     10  N   UNL     1       1.319  -0.323  17.655  0.00  0.00    -0.047 NA
ATOM     11  N   UNL     1       1.581  -0.136  16.375  0.00  0.00    -0.106 NA
ATOM     12  C   UNL     1       0.417   0.236  15.750  0.00  0.00    +0.243 C 
ATOM     13  N   UNL     1      -0.498   0.248  16.752  0.00  0.00    -0.128 NA
ATOM     14  N   UNL     1      -1.009   1.019  19.749  0.00  0.00    -0.209 NA
ATOM     15  C   UNL     1      -1.774   1.095  20.837  0.00  0.00    +0.105 C 
ENDROOT
BRANCH   1  16
ATOM     16  C   UNL     1      -2.273  -3.651  20.346  0.00  0.00    +0.024 C 
ATOM     17  C   UNL     1      -1.180  -4.448  20.516  0.00  0.00    +0.002 C 
ATOM     18  C   UNL     1      -0.917  -5.558  19.750  0.00  0.00    +0.003 C 
ATOM     19  C   UNL     1      -1.781  -5.924  18.739  0.00  0.00    +0.037 C 
ATOM     20  C   UNL     1      -2.905  -5.118  18.552  0.00  0.00    +0.139 C 
ATOM     21  C   UNL     1      -3.171  -4.007  19.324  0.00  0.00    +0.035 C 
ATOM     22  C   UNL     1      -4.381  -3.171  19.165  0.00  0.00    +0.003 C 
ATOM     23  C   UNL     1      -5.176  -3.639  18.017  0.00  0.00    +0.022 C 
ATOM     24  C   UNL     1      -4.890  -4.745  17.252  0.00  0.00    +0.210 C 
ATOM     25  O   UNL     1      -3.755  -5.488  17.522  0.00  0.00    -0.470 OA
ATOM     26  C   UNL     1      -5.741  -5.105  16.202  0.00  0.00    +0.021 C 
ATOM     27  C   UNL     1      -6.870  -4.391  15.891  0.00  0.00    -0.001 C 
ATOM     28  C   UNL     1      -7.161  -3.282  16.655  0.00  0.00    -0.000 C 
ATOM     29  C   UNL     1      -6.338  -2.917  17.687  0.00  0.00    -0.000 C 
ENDBRANCH   1  16
TORSDOF 1
