MODEL 1
REMARK VINA RESULT:    -7.027      0.000      0.000
REMARK INTER + INTRA:          -8.070
REMARK INTER:                  -8.259
REMARK INTRA:                   0.189
REMARK UNBOUND:                 0.189
REMARK  Name = =
REMARK  3 active torsions:
REMARK  status: ('A' for Active; 'I' for Inactive)
REMARK    1  A    between atoms: C_1  and  N_11
REMARK    2  A    between atoms: C_1  and  N_20
REMARK    3  A    between atoms: N_22  and  C_23
REMARK                            x       y       z     vdW  Elec       q    Type
REMARK                         _______ _______ _______ _____ _____    ______ ____
ROOT
ATOM      1  C   UNL     1      51.300 164.257  41.628  0.00  0.00    +0.125 C 
ATOM      2  C   UNL     1      50.082 163.754  41.541  0.00  0.00    -0.013 C 
ATOM      3  C   UNL     1      48.893 164.557  41.194  0.00  0.00    +0.021 C 
ATOM      4  C   UNL     1      47.617 164.079  41.731  0.00  0.00    +0.004 C 
ATOM      5  C   UNL     1      46.605 164.181  40.636  0.00  0.00    +0.000 C 
ATOM      6  C   UNL     1      47.450 163.970  39.394  0.00  0.00    +0.000 C 
ATOM      7  C   UNL     1      48.700 164.758  39.728  0.00  0.00    +0.004 C 
ATOM      8  C   UNL     1      47.579 162.856  42.538  0.00  0.00    +0.001 C 
ATOM      9  C   UNL     1      48.903 162.332  43.031  0.00  0.00    +0.004 C 
ATOM     10  C   UNL     1      49.810 162.315  41.792  0.00  0.00    +0.025 C 
ENDROOT
BRANCH   1  11
ATOM     11  N   UNL     1      52.473 163.557  41.954  0.00  0.00    -0.295 N 
ATOM     12  C   UNL     1      52.874 162.267  41.473  0.00  0.00    +0.074 C 
ATOM     13  C   UNL     1      54.327 162.411  41.262  0.00  0.00    +0.020 C 
ATOM     14  C   UNL     1      54.760 163.382  42.311  0.00  0.00    +0.023 C 
ATOM     15  C   UNL     1      53.497 164.016  42.855  0.00  0.00    +0.092 C 
ATOM     16  C   UNL     1      55.127 161.178  41.153  0.00  0.00    +0.002 C 
ATOM     17  C   UNL     1      54.472 159.922  41.612  0.00  0.00    +0.000 C 
ATOM     18  C   UNL     1      53.457 160.149  42.699  0.00  0.00    +0.002 C 
ATOM     19  C   UNL     1      52.422 161.156  42.342  0.00  0.00    +0.020 C 
ENDBRANCH   1  11
BRANCH   1  20
ATOM     20  N   UNL     1      51.462 165.668  41.366  0.00  0.00    -0.214 NA
ATOM     21  C   UNL     1      52.054 166.021  40.273  0.00  0.00    +0.166 C 
ATOM     22  N   UNL     1      52.193 167.422  40.049  0.00  0.00    -0.289 N 
ATOM     23  H   UNL     1      52.670 167.745  39.251  0.00  0.00    +0.154 HD
BRANCH  22  24
ATOM     24  C   UNL     1      51.647 168.356  40.973  0.00  0.00    +0.106 C 
ATOM     25  S   UNL     1      52.399 169.703  41.452  0.00  0.00    -0.033 S 
ENDBRANCH  22  24
ENDBRANCH   1  20
TORSDOF 3
ENDMDL
