MODEL 1
REMARK VINA RESULT:    -2.643      0.000      0.000
REMARK INTER + INTRA:          -3.173
REMARK INTER:                  -3.183
REMARK INTRA:                   0.010
REMARK UNBOUND:                 0.010
REMARK  Name = =
REMARK  4 active torsions:
REMARK  status: ('A' for Active; 'I' for Inactive)
REMARK    1  A    between atoms: C_1  and  N_25
REMARK    2  A    between atoms: C_18  and  C_19
REMARK    3  A    between atoms: N_25  and  C_26
REMARK    4  A    between atoms: C_26  and  S_28
REMARK                            x       y       z     vdW  Elec       q    Type
REMARK                         _______ _______ _______ _____ _____    ______ ____
ROOT
ATOM      1  C   UNL     1      54.358 162.535  42.128  0.00  0.00    +0.052 A 
ATOM      2  C   UNL     1      53.483 161.478  42.378  0.00  0.00    +0.031 A 
ATOM      3  C   UNL     1      52.134 161.605  42.086  0.00  0.00    +0.082 A 
ATOM      4  N   UNL     1      51.644 162.730  41.560  0.00  0.00    -0.245 NA
ATOM      5  C   UNL     1      52.447 163.760  41.304  0.00  0.00    +0.082 A 
ATOM      6  C   UNL     1      53.806 163.671  41.586  0.00  0.00    +0.031 A 
ATOM      7  C   UNL     1      54.626 164.733  41.324  0.00  0.00    +0.003 C 
ATOM      8  C   UNL     1      54.134 165.913  40.776  0.00  0.00    +0.000 C 
ATOM      9  C   UNL     1      52.788 166.017  40.491  0.00  0.00    +0.002 C 
ATOM     10  C   UNL     1      51.963 164.944  40.758  0.00  0.00    +0.019 C 
ATOM     11  C   UNL     1      51.260 160.539  42.269  0.00  0.00    +0.017 C 
ATOM     12  C   UNL     1      51.849 159.376  42.745  0.00  0.00    +0.001 C 
ATOM     13  C   UNL     1      53.185 159.250  43.035  0.00  0.00    +0.000 C 
ATOM     14  C   UNL     1      54.033 160.311  42.856  0.00  0.00    +0.003 C 
ATOM     15  C   UNL     1      51.019 158.259  42.860  0.00  0.00    +0.000 C 
ATOM     16  C   UNL     1      49.691 158.323  42.518  0.00  0.00    -0.000 C 
ATOM     17  C   UNL     1      49.135 159.483  42.058  0.00  0.00    -0.000 C 
ATOM     18  C   UNL     1      49.947 160.635  41.933  0.00  0.00    -0.003 C 
ENDROOT
BRANCH  18  19
ATOM     19  C   UNL     1      49.200 161.856  41.724  0.00  0.00    -0.026 C 
ATOM     20  C   UNL     1      48.676 162.250  40.598  0.00  0.00    -0.030 C 
ATOM     21  C   UNL     1      47.904 163.508  40.414  0.00  0.00    +0.026 C 
ATOM     22  C   UNL     1      47.451 164.154  41.669  0.00  0.00    +0.005 C 
ATOM     23  C   UNL     1      47.568 163.227  42.847  0.00  0.00    +0.005 C 
ATOM     24  C   UNL     1      49.002 162.776  42.917  0.00  0.00    +0.026 C 
ENDBRANCH  18  19
BRANCH   1  25
ATOM     25  N   UNL     1      55.755 162.476  42.406  0.00  0.00    -0.303 N 
ATOM     26  H   UNL     1      56.053 162.673  43.324  0.00  0.00    +0.153 HD
BRANCH  25  27
ATOM     27  C   UNL     1      56.727 162.157  41.454  0.00  0.00    +0.108 C 
ATOM     28  S   UNL     1      56.786 160.696  40.765  0.00  0.00    -0.028 S 
BRANCH  27  29
ATOM     29  S   UNL     1      57.933 163.372  40.982  0.00  0.00    -0.120 S 
ATOM     30  H   UNL     1      57.440 164.617  41.220  0.00  0.00    +0.109 HD
ENDBRANCH  27  29
ENDBRANCH  25  27
ENDBRANCH   1  25
TORSDOF 4
ENDMDL
