REMARK  Name = =
REMARK  4 active torsions:
REMARK  status: ('A' for Active; 'I' for Inactive)
REMARK    1  A    between atoms: C_1  and  N_25
REMARK    2  A    between atoms: C_18  and  C_19
REMARK    3  A    between atoms: N_25  and  C_26
REMARK    4  A    between atoms: C_26  and  S_28
REMARK                            x       y       z     vdW  Elec       q    Type
REMARK                         _______ _______ _______ _____ _____    ______ ____
ROOT
ATOM      1  C   UNL     1      50.246 158.698  30.698  0.00  0.00    +0.052 A 
ATOM      2  C   UNL     1      50.271 159.936  31.339  0.00  0.00    +0.031 A 
ATOM      3  C   UNL     1      51.387 160.752  31.237  0.00  0.00    +0.082 A 
ATOM      4  N   UNL     1      52.454 160.378  30.526  0.00  0.00    -0.245 NA
ATOM      5  C   UNL     1      52.467 159.205  29.898  0.00  0.00    +0.082 A 
ATOM      6  C   UNL     1      51.367 158.358  29.979  0.00  0.00    +0.031 A 
ATOM      7  C   UNL     1      51.387 157.153  29.334  0.00  0.00    +0.003 C 
ATOM      8  C   UNL     1      52.489 156.746  28.589  0.00  0.00    +0.000 C 
ATOM      9  C   UNL     1      53.588 157.574  28.499  0.00  0.00    +0.002 C 
ATOM     10  C   UNL     1      53.565 158.789  29.152  0.00  0.00    +0.019 C 
ATOM     11  C   UNL     1      51.403 162.016  31.816  0.00  0.00    +0.017 C 
ATOM     12  C   UNL     1      50.234 162.373  32.473  0.00  0.00    +0.001 C 
ATOM     13  C   UNL     1      49.128 161.565  32.574  0.00  0.00    +0.000 C 
ATOM     14  C   UNL     1      49.129 160.319  32.004  0.00  0.00    +0.003 C 
ATOM     15  C   UNL     1      50.181 163.668  32.993  0.00  0.00    +0.000 C 
ATOM     16  C   UNL     1      51.239 164.531  32.856  0.00  0.00    -0.000 C 
ATOM     17  C   UNL     1      52.382 164.152  32.210  0.00  0.00    -0.000 C 
ATOM     18  C   UNL     1      52.470 162.846  31.674  0.00  0.00    -0.003 C 
ENDROOT
BRANCH  18  19
ATOM     19  C   UNL     1      53.809 162.465  31.282  0.00  0.00    -0.026 C 
ATOM     20  C   UNL     1      54.558 161.579  31.875  0.00  0.00    -0.030 C 
ATOM     21  C   UNL     1      55.930 161.200  31.443  0.00  0.00    +0.026 C 
ATOM     22  C   UNL     1      56.300 161.637  30.076  0.00  0.00    +0.005 C 
ATOM     23  C   UNL     1      55.096 162.068  29.284  0.00  0.00    +0.005 C 
ATOM     24  C   UNL     1      54.414 163.155  30.070  0.00  0.00    +0.026 C 
ENDBRANCH  18  19
BRANCH   1  25
ATOM     25  N   UNL     1      49.135 157.807  30.761  0.00  0.00    -0.303 N 
ATOM     26  H   UNL     1      49.222 156.998  31.316  0.00  0.00    +0.153 HD
BRANCH  25  27
ATOM     27  C   UNL     1      47.930 158.012  30.083  0.00  0.00    +0.108 C 
ATOM     28  S   UNL     1      47.568 157.191  28.738  0.00  0.00    -0.028 S 
BRANCH  27  29
ATOM     29  S   UNL     1      46.762 159.199  30.698  0.00  0.00    -0.120 S 
ATOM     30  H   UNL     1      47.253 159.775  31.828  0.00  0.00    +0.109 HD
ENDBRANCH  27  29
ENDBRANCH  25  27
ENDBRANCH   1  25
TORSDOF 4
