REMARK  Name = =
REMARK  4 active torsions:
REMARK  status: ('A' for Active; 'I' for Inactive)
REMARK    1  A    between atoms: N_1  and  C_2
REMARK    2  A    between atoms: N_1  and  N_9
REMARK    3  A    between atoms: C_3  and  N_8
REMARK    4  A    between atoms: N_9  and  N_13
REMARK                            x       y       z     vdW  Elec       q    Type
REMARK                         _______ _______ _______ _____ _____    ______ ____
ROOT
ATOM      1  N   UNL     1      -3.567  -4.512  30.469  0.00  0.00    -0.232 N 
ATOM      2  H   UNL     1      -4.045  -5.080  29.823  0.00  0.00    +0.172 HD
ENDROOT
BRANCH   1   3
ATOM      3  C   UNL     1      -4.296  -4.021  31.596  0.00  0.00    +0.122 C 
ATOM      4  C   UNL     1      -4.237  -4.212  32.958  0.00  0.00    +0.102 C 
ATOM      5  C   UNL     1      -5.295  -3.356  33.128  0.00  0.00    +0.250 C 
ATOM      6  O   UNL     1      -5.948  -2.922  34.139  0.00  0.00    -0.282 OA
ATOM      7  C   UNL     1      -5.354  -3.164  31.774  0.00  0.00    +0.251 C 
ATOM      8  O   UNL     1      -6.100  -2.471  31.026  0.00  0.00    -0.282 OA
BRANCH   4   9
ATOM      9  N   UNL     1      -3.388  -4.998  33.795  0.00  0.00    -0.353 N 
ATOM     10  H   UNL     1      -2.674  -5.546  33.396  0.00  0.00    +0.142 HD
ATOM     11  H   UNL     1      -3.516  -4.991  34.771  0.00  0.00    +0.142 HD
ENDBRANCH   4   9
ENDBRANCH   1   3
BRANCH   1  12
ATOM     12  N   UNL     1      -2.225  -4.238  30.227  0.00  0.00    -0.053 N 
ATOM     13  C   UNL     1      -1.369  -5.322  29.929  0.00  0.00    +0.339 C 
ATOM     14  O   UNL     1      -1.793  -6.494  29.872  0.00  0.00    -0.249 OA
ATOM     15  N   UNL     1       0.002  -5.062  29.691  0.00  0.00    -0.311 N 
ATOM     16  H   UNL     1       0.343  -4.139  29.734  0.00  0.00    +0.147 HD
ATOM     17  H   UNL     1       0.615  -5.804  29.482  0.00  0.00    +0.147 HD
BRANCH  12  18
ATOM     18  N   UNL     1      -1.741  -2.925  30.279  0.00  0.00    +0.072 NA
ATOM     19  O   UNL     1      -1.492  -2.230  29.291  0.00  0.00    -0.124 OA
ENDBRANCH  12  18
ENDBRANCH   1  12
TORSDOF 4
