REMARK  Name = =
REMARK  6 active torsions:
REMARK  status: ('A' for Active; 'I' for Inactive)
REMARK    1  A    between atoms: N_1  and  C_2
REMARK    2  A    between atoms: N_1  and  N_9
REMARK    3  A    between atoms: N_1  and  C_15
REMARK    4  A    between atoms: C_3  and  N_8
REMARK    5  A    between atoms: N_9  and  N_13
REMARK    6  A    between atoms: C_15  and  O_17
REMARK                            x       y       z     vdW  Elec       q    Type
REMARK                         _______ _______ _______ _____ _____    ______ ____
ROOT
ATOM      1  N   UNL     1      -1.617  -6.201  30.533  0.00  0.00    -0.150 NA
ENDROOT
BRANCH   1   2
ATOM      2  C   UNL     1      -2.601  -5.541  31.299  0.00  0.00    +0.139 C 
ATOM      3  C   UNL     1      -3.238  -4.318  31.353  0.00  0.00    +0.145 C 
ATOM      4  C   UNL     1      -3.996  -4.705  32.449  0.00  0.00    +0.197 C 
ATOM      5  O   UNL     1      -4.878  -4.201  33.188  0.00  0.00    -0.292 OA
ATOM      6  C   UNL     1      -3.363  -5.920  32.396  0.00  0.00    +0.214 C 
ATOM      7  O   UNL     1      -3.448  -6.982  33.093  0.00  0.00    -0.215 OA
BRANCH   3   8
ATOM      8  N   UNL     1      -3.210  -3.108  30.634  0.00  0.00    -0.314 NA
ATOM      9  H   UNL     1      -2.525  -3.176  29.881  0.00  0.00    +0.119 HD
ATOM     10  H   UNL     1      -2.952  -2.346  31.261  0.00  0.00    +0.119 HD
ENDBRANCH   3   8
ENDBRANCH   1   2
BRANCH   1  11
ATOM     11  N   UNL     1      -0.537  -5.493  30.018  0.00  0.00    -0.063 N 
ATOM     12  C   UNL     1      -0.649  -4.657  28.881  0.00  0.00    +0.337 C 
ATOM     13  O   UNL     1      -1.725  -4.494  28.255  0.00  0.00    -0.250 OA
ATOM     14  N   UNL     1       0.491  -3.943  28.386  0.00  0.00    -0.311 N 
ATOM     15  H   UNL     1       1.362  -4.032  28.837  0.00  0.00    +0.147 HD
ATOM     16  H   UNL     1       0.403  -3.363  27.595  0.00  0.00    +0.147 HD
BRANCH  11  17
ATOM     17  N   UNL     1       0.735  -5.594  30.643  0.00  0.00    +0.069 NA
ATOM     18  O   UNL     1       1.203  -4.655  31.287  0.00  0.00    -0.124 OA
ENDBRANCH  11  17
ENDBRANCH   1  11
BRANCH   1  19
ATOM     19  C   UNL     1      -1.683  -7.619  30.266  0.00  0.00    +0.190 C 
ATOM     20  C   UNL     1      -1.122  -7.986  28.918  0.00  0.00    +0.052 C 
BRANCH  19  21
ATOM     21  O   UNL     1      -2.975  -8.120  30.404  0.00  0.00    -0.369 OA
ATOM     22  H   UNL     1      -2.974  -9.072  30.217  0.00  0.00    +0.212 HD
ENDBRANCH  19  21
ENDBRANCH   1  19
TORSDOF 6
