REMARK  Name = =
REMARK  7 active torsions:
REMARK  status: ('A' for Active; 'I' for Inactive)
REMARK    1  A    between atoms: N_1  and  C_2
REMARK    2  A    between atoms: N_1  and  N_9
REMARK    3  A    between atoms: N_1  and  C_15
REMARK    4  A    between atoms: C_3  and  N_8
REMARK    5  A    between atoms: N_9  and  N_13
REMARK    6  A    between atoms: C_15  and  O_17
REMARK    7  A    between atoms: O_17  and  C_18
REMARK                            x       y       z     vdW  Elec       q    Type
REMARK                         _______ _______ _______ _____ _____    ______ ____
ROOT
ATOM      1  N   UNL     1      -0.546  -7.633  29.168  0.00  0.00    -0.145 NA
ENDROOT
BRANCH   1   2
ATOM      2  C   UNL     1      -0.355  -6.260  29.462  0.00  0.00    +0.140 C 
ATOM      3  C   UNL     1      -1.198  -5.143  29.436  0.00  0.00    +0.145 C 
ATOM      4  C   UNL     1      -0.170  -4.315  29.837  0.00  0.00    +0.197 C 
ATOM      5  O   UNL     1      -0.090  -3.096  30.062  0.00  0.00    -0.292 OA
ATOM      6  C   UNL     1       0.657  -5.418  29.859  0.00  0.00    +0.214 C 
ATOM      7  O   UNL     1       1.873  -5.540  30.147  0.00  0.00    -0.215 OA
BRANCH   3   8
ATOM      8  N   UNL     1      -2.568  -4.959  29.121  0.00  0.00    -0.314 NA
ATOM      9  H   UNL     1      -2.804  -3.970  29.197  0.00  0.00    +0.119 HD
ATOM     10  H   UNL     1      -3.142  -5.496  29.771  0.00  0.00    +0.119 HD
ENDBRANCH   3   8
ENDBRANCH   1   2
BRANCH   1  11
ATOM     11  N   UNL     1       0.004  -8.169  28.011  0.00  0.00    -0.097 N 
ATOM     12  C   UNL     1       0.442  -7.323  26.960  0.00  0.00    +0.331 C 
ATOM     13  O   UNL     1       0.344  -6.057  27.040  0.00  0.00    -0.250 OA
ATOM     14  N   UNL     1       1.010  -7.835  25.767  0.00  0.00    -0.311 N 
ATOM     15  H   UNL     1       1.303  -7.219  25.058  0.00  0.00    +0.147 HD
ATOM     16  H   UNL     1       1.111  -8.807  25.648  0.00  0.00    +0.147 HD
BRANCH  11  17
ATOM     17  N   UNL     1       0.136  -9.552  27.860  0.00  0.00    +0.069 NA
ATOM     18  O   UNL     1       1.280 -10.020  27.694  0.00  0.00    -0.077 OA
ENDBRANCH  11  17
ENDBRANCH   1  11
BRANCH   1  19
ATOM     19  C   UNL     1      -1.313  -8.490  30.073  0.00  0.00    +0.245 C 
ATOM     20  C   UNL     1      -2.585  -7.771  30.480  0.00  0.00    +0.068 C 
BRANCH  19  21
ATOM     21  O   UNL     1      -0.592  -8.872  31.185  0.00  0.00    -0.462 OA
BRANCH  21  22
ATOM     22  C   UNL     1      -0.256  -8.091  32.253  0.00  0.00    +0.140 C 
ATOM     23  C   UNL     1       1.112  -7.884  32.505  0.00  0.00    +0.037 C 
ATOM     24  C   UNL     1       1.546  -7.115  33.552  0.00  0.00    +0.003 C 
ATOM     25  C   UNL     1       0.655  -6.504  34.413  0.00  0.00    +0.000 C 
ATOM     26  C   UNL     1      -0.679  -6.704  34.168  0.00  0.00    +0.003 C 
ATOM     27  C   UNL     1      -1.133  -7.478  33.115  0.00  0.00    +0.037 C 
ENDBRANCH  21  22
ENDBRANCH  19  21
ENDBRANCH   1  19
TORSDOF 7
