REMARK  Name = =
REMARK  9 active torsions:
REMARK  status: ('A' for Active; 'I' for Inactive)
REMARK    1  A    between atoms: N_1  and  C_2
REMARK    2  A    between atoms: N_1  and  N_9
REMARK    3  A    between atoms: N_1  and  C_15
REMARK    4  A    between atoms: C_3  and  N_8
REMARK    5  A    between atoms: N_9  and  N_13
REMARK    6  A    between atoms: C_15  and  O_16
REMARK    7  A    between atoms: C_15  and  C_23
REMARK    8  A    between atoms: O_16  and  C_17
REMARK    9  A    between atoms: C_23  and  C_24
REMARK                            x       y       z     vdW  Elec       q    Type
REMARK                         _______ _______ _______ _____ _____    ______ ____
ROOT
ATOM      1  N   UNL     1      -0.587  -6.211  28.906  0.00  0.00    -0.139 NA
ENDROOT
BRANCH   1   2
ATOM      2  C   UNL     1      -0.794  -4.817  28.756  0.00  0.00    +0.140 C 
ATOM      3  C   UNL     1       0.046  -3.722  28.547  0.00  0.00    +0.145 C 
ATOM      4  C   UNL     1      -1.015  -2.845  28.534  0.00  0.00    +0.197 C 
ATOM      5  O   UNL     1      -1.181  -1.604  28.397  0.00  0.00    -0.292 OA
ATOM      6  C   UNL     1      -1.855  -3.926  28.741  0.00  0.00    +0.214 C 
ATOM      7  O   UNL     1      -3.105  -4.026  28.865  0.00  0.00    -0.215 OA
BRANCH   3   8
ATOM      8  N   UNL     1       1.448  -3.573  28.404  0.00  0.00    -0.314 NA
ATOM      9  H   UNL     1       1.896  -4.486  28.476  0.00  0.00    +0.119 HD
ATOM     10  H   UNL     1       1.802  -2.962  29.140  0.00  0.00    +0.119 HD
ENDBRANCH   3   8
ENDBRANCH   1   2
BRANCH   1  11
ATOM     11  N   UNL     1      -0.030  -7.012  27.913  0.00  0.00    -0.062 N 
ATOM     12  C   UNL     1       1.359  -7.279  27.879  0.00  0.00    +0.337 C 
ATOM     13  O   UNL     1       1.876  -8.013  26.974  0.00  0.00    -0.250 OA
ATOM     14  N   UNL     1       2.244  -6.742  28.851  0.00  0.00    -0.311 N 
ATOM     15  H   UNL     1       1.895  -6.169  29.571  0.00  0.00    +0.147 HD
ATOM     16  H   UNL     1       3.207  -6.943  28.805  0.00  0.00    +0.147 HD
BRANCH  11  17
ATOM     17  N   UNL     1      -0.824  -7.593  26.899  0.00  0.00    +0.069 NA
ATOM     18  O   UNL     1      -1.042  -8.809  26.825  0.00  0.00    -0.124 OA
ENDBRANCH  11  17
ENDBRANCH   1  11
BRANCH   1  19
ATOM     19  C   UNL     1      -0.981  -6.829  30.154  0.00  0.00    +0.252 C 
BRANCH  19  20
ATOM     20  O   UNL     1      -0.561  -6.120  31.270  0.00  0.00    -0.462 OA
BRANCH  20  21
ATOM     21  C   UNL     1       0.186  -6.539  32.331  0.00  0.00    +0.140 C 
ATOM     22  C   UNL     1       0.063  -7.717  33.017  0.00  0.00    +0.037 C 
ATOM     23  C   UNL     1       0.866  -8.068  34.091  0.00  0.00    +0.003 C 
ATOM     24  C   UNL     1       1.842  -7.180  34.492  0.00  0.00    +0.000 C 
ATOM     25  C   UNL     1       1.999  -5.979  33.824  0.00  0.00    +0.003 C 
ATOM     26  C   UNL     1       1.190  -5.664  32.769  0.00  0.00    +0.037 C 
ENDBRANCH  20  21
ENDBRANCH  19  20
BRANCH  19  27
ATOM     27  C   UNL     1      -2.486  -6.998  30.083  0.00  0.00    +0.119 C 
BRANCH  27  28
ATOM     28  C   UNL     1      -3.055  -7.742  31.221  0.00  0.00    +0.123 C 
ATOM     29  C   UNL     1      -3.948  -7.173  31.999  0.00  0.00    +0.027 C 
ATOM     30  F   UNL     1      -2.650  -8.999  31.449  0.00  0.00    -0.209 F 
ENDBRANCH  27  28
ENDBRANCH  19  27
ENDBRANCH   1  19
TORSDOF 9
