REMARK  Name = =
REMARK  10 active torsions:
REMARK  status: ('A' for Active; 'I' for Inactive)
REMARK    1  A    between atoms: N_1  and  C_2
REMARK    2  A    between atoms: N_1  and  N_9
REMARK    3  A    between atoms: N_1  and  C_15
REMARK    4  A    between atoms: C_3  and  N_8
REMARK    5  A    between atoms: N_9  and  N_13
REMARK    6  A    between atoms: C_15  and  N_16
REMARK    7  A    between atoms: C_15  and  O_22
REMARK    8  A    between atoms: C_15  and  C_29
REMARK    9  A    between atoms: O_22  and  C_23
REMARK   10  A    between atoms: C_29  and  C_30
REMARK                            x       y       z     vdW  Elec       q    Type
REMARK                         _______ _______ _______ _____ _____    ______ ____
ROOT
ATOM      1  N   UNL     1       0.156  -5.903  29.193  0.00  0.00    -0.164 N 
ENDROOT
BRANCH   1   2
ATOM      2  C   UNL     1      -0.804  -6.208  30.165  0.00  0.00    +0.130 C 
ATOM      3  C   UNL     1      -0.767  -7.023  31.300  0.00  0.00    +0.103 C 
ATOM      4  C   UNL     1      -2.081  -6.735  31.574  0.00  0.00    +0.250 C 
ATOM      5  O   UNL     1      -2.892  -7.080  32.483  0.00  0.00    -0.282 OA
ATOM      6  C   UNL     1      -2.100  -5.934  30.448  0.00  0.00    +0.252 C 
ATOM      7  O   UNL     1      -3.092  -5.257  30.003  0.00  0.00    -0.282 OA
BRANCH   3   8
ATOM      8  N   UNL     1       0.174  -7.838  31.960  0.00  0.00    -0.353 N 
ATOM      9  H   UNL     1       1.088  -7.921  31.605  0.00  0.00    +0.142 HD
ATOM     10  H   UNL     1      -0.083  -8.324  32.777  0.00  0.00    +0.142 HD
ENDBRANCH   3   8
ENDBRANCH   1   2
BRANCH   1  11
ATOM     11  N   UNL     1       0.585  -6.952  28.343  0.00  0.00    -0.081 N 
ATOM     12  C   UNL     1      -0.277  -7.533  27.422  0.00  0.00    +0.334 C 
ATOM     13  O   UNL     1      -1.456  -7.163  27.285  0.00  0.00    -0.250 OA
ATOM     14  N   UNL     1       0.125  -8.614  26.548  0.00  0.00    -0.311 N 
ATOM     15  H   UNL     1       1.043  -8.967  26.592  0.00  0.00    +0.147 HD
ATOM     16  H   UNL     1      -0.519  -8.996  25.909  0.00  0.00    +0.147 HD
BRANCH  11  17
ATOM     17  N   UNL     1       1.903  -7.375  28.482  0.00  0.00    +0.072 NA
ATOM     18  O   UNL     1       2.247  -8.081  29.482  0.00  0.00    -0.077 OA
ENDBRANCH  11  17
ENDBRANCH   1  11
BRANCH   1  19
ATOM     19  C   UNL     1       0.817  -4.657  29.016  0.00  0.00    +0.299 C 
BRANCH  19  20
ATOM     20  N   UNL     1      -0.188  -3.658  28.595  0.00  0.00    -0.185 N 
ATOM     21  N   UNL     1      -0.849  -3.711  27.395  0.00  0.00    -0.181 NA
ATOM     22  C   UNL     1      -1.754  -2.898  27.007  0.00  0.00    +0.091 C 
ATOM     23  C   UNL     1      -2.159  -1.779  27.906  0.00  0.00    +0.050 C 
ATOM     24  C   UNL     1      -1.929  -2.186  29.366  0.00  0.00    +0.030 C 
ATOM     25  C   UNL     1      -0.477  -2.545  29.488  0.00  0.00    +0.117 C 
ENDBRANCH  19  20
BRANCH  19  26
ATOM     26  O   UNL     1       1.876  -4.814  28.127  0.00  0.00    -0.447 OA
BRANCH  26  27
ATOM     27  C   UNL     1       2.609  -3.909  27.437  0.00  0.00    +0.142 C 
ATOM     28  C   UNL     1       3.557  -3.086  27.980  0.00  0.00    +0.037 C 
ATOM     29  C   UNL     1       4.305  -2.164  27.253  0.00  0.00    +0.003 C 
ATOM     30  C   UNL     1       4.098  -2.055  25.911  0.00  0.00    +0.000 C 
ATOM     31  C   UNL     1       3.161  -2.855  25.311  0.00  0.00    +0.003 C 
ATOM     32  C   UNL     1       2.420  -3.776  26.064  0.00  0.00    +0.037 C 
ENDBRANCH  26  27
ENDBRANCH  19  26
BRANCH  19  33
ATOM     33  C   UNL     1       1.345  -4.029  30.310  0.00  0.00    +0.141 C 
BRANCH  33  34
ATOM     34  C   UNL     1       2.352  -4.778  31.032  0.00  0.00    +0.125 C 
ATOM     35  C   UNL     1       2.213  -4.837  32.377  0.00  0.00    +0.027 C 
ATOM     36  F   UNL     1       3.406  -5.462  30.553  0.00  0.00    -0.209 F 
ENDBRANCH  33  34
ENDBRANCH  19  33
ENDBRANCH   1  19
TORSDOF 10
