REMARK  Name = =
REMARK  0 active torsions:
REMARK  status: ('A' for Active; 'I' for Inactive)
REMARK                            x       y       z     vdW  Elec       q    Type
REMARK                         _______ _______ _______ _____ _____    ______ ____
ROOT
ATOM      1  C   UNL     1     -13.252 -42.986  27.101  0.00  0.00    +0.207 C 
ATOM      2  N   UNL     1     -12.407 -42.445  27.985  0.00  0.00    -0.108 NA
ATOM      3  N   UNL     1     -12.727 -42.890  29.181  0.00  0.00    -0.025 NA
ATOM      4  N   UNL     1     -13.759 -43.701  29.049  0.00  0.00    -0.055 NA
ATOM      5  N   UNL     1     -14.098 -43.774  27.775  0.00  0.00    -0.197 N 
ATOM      6  H   UNL     1     -14.833 -44.307  27.394  0.00  0.00    +0.178 HD
ENDROOT
TORSDOF 0
