REMARK  Name = =
REMARK  0 active torsions:
REMARK  status: ('A' for Active; 'I' for Inactive)
REMARK                            x       y       z     vdW  Elec       q    Type
REMARK                         _______ _______ _______ _____ _____    ______ ____
ROOT
ATOM      1  C   UNL     1      -2.736  -2.049  29.342  0.00  0.00    +0.109 C 
ATOM      2  N   UNL     1      -1.472  -2.167  29.520  0.00  0.00    -0.295 NA
ATOM      3  H   UNL     1      -1.129  -2.692  30.279  0.00  0.00    +0.187 HD
ENDROOT
TORSDOF 0
