REMARK  Name = =
REMARK  5 active torsions:
REMARK  status: ('A' for Active; 'I' for Inactive)
REMARK    1  A    between atoms: C_1  and  C_8
REMARK    2  A    between atoms: C_2  and  O_23
REMARK    3  A    between atoms: C_3  and  O_24
REMARK    4  A    between atoms: N_7  and  C_12
REMARK    5  A    between atoms: O_24  and  N_25
REMARK                            x       y       z     vdW  Elec       q    Type
REMARK                         _______ _______ _______ _____ _____    ______ ____
ROOT
ATOM      1  C   UNL     1       1.625  -6.674  27.621  0.00  0.00    +0.091 C 
ATOM      2  C   UNL     1       0.374  -7.140  28.020  0.00  0.00    +0.175 C 
ATOM      3  C   UNL     1      -0.207  -6.855  29.225  0.00  0.00    +0.199 C 
ATOM      4  C   UNL     1       0.506  -6.051  30.093  0.00  0.00    +0.043 C 
ATOM      5  C   UNL     1       1.744  -5.579  29.724  0.00  0.00    +0.004 C 
ATOM      6  C   UNL     1       2.329  -5.876  28.487  0.00  0.00    +0.008 C 
ENDROOT
BRANCH   1   8
ATOM      7  N   UNL     1       3.046  -7.973  25.940  0.00  0.00    -0.215 N 
ATOM      8  C   UNL     1       2.147  -6.985  26.309  0.00  0.00    +0.261 C 
ATOM      9  O   UNL     1       1.699  -6.226  25.362  0.00  0.00    -0.269 OA
ATOM     10  C   UNL     1       3.386  -9.047  26.791  0.00  0.00    +0.166 C 
ATOM     11  N   UNL     1       2.462  -9.874  27.137  0.00  0.00    -0.282 NA
ATOM     12  H   UNL     1       2.675 -10.631  27.730  0.00  0.00    +0.188 HD
BRANCH   7  13
ATOM     13  C   UNL     1       3.614  -7.973  24.608  0.00  0.00    +0.076 C 
ATOM     14  C   UNL     1       4.748  -7.323  24.213  0.00  0.00    +0.088 C 
ATOM     15  N   UNL     1       4.966  -7.555  22.890  0.00  0.00    -0.228 N 
ATOM     16  C   UNL     1       3.986  -8.350  22.418  0.00  0.00    +0.060 C 
ATOM     17  C   UNL     1       3.141  -8.612  23.492  0.00  0.00    +0.029 C 
ATOM     18  C   UNL     1       2.046  -9.412  23.272  0.00  0.00    +0.003 C 
ATOM     19  C   UNL     1       1.809  -9.931  22.018  0.00  0.00    +0.000 C 
ATOM     20  C   UNL     1       2.640  -9.679  20.947  0.00  0.00    +0.001 C 
ATOM     21  C   UNL     1       3.740  -8.880  21.149  0.00  0.00    +0.015 C 
ATOM     22  C   UNL     1       6.051  -7.045  22.123  0.00  0.00    +0.311 C 
ATOM     23  O   UNL     1       6.190  -7.301  20.905  0.00  0.00    -0.264 OA
ENDBRANCH   7  13
ENDBRANCH   1   8
BRANCH   2  24
ATOM     24  O   UNL     1      -0.335  -7.948  27.139  0.00  0.00    -0.503 OA
ATOM     25  H   UNL     1       0.031  -8.165  26.304  0.00  0.00    +0.292 HD
ENDBRANCH   2  24
BRANCH   3  26
ATOM     26  O   UNL     1      -1.468  -7.370  29.535  0.00  0.00    -0.398 OA
BRANCH  26  27
ATOM     27  N   UNL     1      -1.649  -8.682  29.889  0.00  0.00    -0.112 NA
ATOM     28  C   UNL     1      -1.112  -8.865  31.222  0.00  0.00    +0.140 C 
ATOM     29  C   UNL     1      -2.115  -8.179  32.076  0.00  0.00    -0.005 C 
ATOM     30  C   UNL     1      -3.309  -8.223  31.371  0.00  0.00    -0.005 C 
ATOM     31  C   UNL     1      -3.064  -8.929  30.085  0.00  0.00    +0.140 C 
ATOM     32  C   UNL     1      -4.423  -7.647  31.951  0.00  0.00    -0.003 C 
ATOM     33  C   UNL     1      -4.389  -7.040  33.178  0.00  0.00    -0.000 C 
ATOM     34  C   UNL     1      -3.182  -7.008  33.866  0.00  0.00    -0.000 C 
ATOM     35  C   UNL     1      -2.057  -7.574  33.313  0.00  0.00    -0.003 C 
ENDBRANCH  26  27
ENDBRANCH   3  26
TORSDOF 5
