REMARK  Name = =
REMARK  9 active torsions:
REMARK  status: ('A' for Active; 'I' for Inactive)
REMARK    1  A    between atoms: N_1  and  C_6
REMARK    2  A    between atoms: C_2  and  C_17
REMARK    3  A    between atoms: N_5  and  CA_36
REMARK    4  A    between atoms: C_18  and  O_23
REMARK    5  A    between atoms: C_19  and  O_24
REMARK    6  A    between atoms: O_24  and  N_25
REMARK    7  A    between atoms: C_32  and  C_34
REMARK    8  A    between atoms: CA_36  and  C_38
REMARK    9  A    between atoms: C_38  and  O_40
REMARK                            x       y       z     vdW  Elec       q    Type
REMARK                         _______ _______ _______ _____ _____    ______ ____
ROOT
ATOM      1  N   UNL     1      -0.323  -8.287  29.104  0.00  0.00    -0.215 N 
ATOM      2  C   UNL     1       0.188  -9.193  28.164  0.00  0.00    +0.261 C 
ATOM      3  O   UNL     1      -0.588 -10.215  27.907  0.00  0.00    -0.269 OA
ATOM      4  C   ACE A   0      -1.646  -8.542  29.594  0.00  0.00    +0.174 C 
ATOM      5  N   UNL     1      -2.289  -7.894  30.404  0.00  0.00    -0.221 NA
ENDROOT
BRANCH   1   6
ATOM      6  C   UNL     1       0.318  -7.141  29.619  0.00  0.00    +0.076 C 
ATOM      7  C   UNL     1       1.101  -7.044  30.780  0.00  0.00    +0.088 C 
ATOM      8  N   UNL     1       1.517  -5.780  30.934  0.00  0.00    -0.228 N 
ATOM      9  C   UNL     1       1.049  -5.006  29.925  0.00  0.00    +0.060 C 
ATOM     10  C   UNL     1       0.313  -5.839  29.117  0.00  0.00    +0.029 C 
ATOM     11  C   UNL     1      -0.273  -5.300  28.006  0.00  0.00    +0.003 C 
ATOM     12  C   UNL     1      -0.131  -3.970  27.710  0.00  0.00    +0.000 C 
ATOM     13  C   UNL     1       0.605  -3.124  28.512  0.00  0.00    +0.001 C 
ATOM     14  C   UNL     1       1.199  -3.653  29.633  0.00  0.00    +0.015 C 
ATOM     15  C   UNL     1       2.326  -5.280  31.981  0.00  0.00    +0.311 C 
ATOM     16  O   UNL     1       2.755  -6.026  32.917  0.00  0.00    -0.264 OA
ENDBRANCH   1   6
BRANCH   2  17
ATOM     17  C   UNL     1       1.424  -9.198  27.429  0.00  0.00    +0.091 C 
ATOM     18  C   UNL     1       1.968 -10.427  26.993  0.00  0.00    +0.175 C 
ATOM     19  C   UNL     1       3.132 -10.482  26.268  0.00  0.00    +0.199 C 
ATOM     20  C   UNL     1       3.789  -9.286  25.958  0.00  0.00    +0.043 C 
ATOM     21  C   UNL     1       3.293  -8.079  26.363  0.00  0.00    +0.004 C 
ATOM     22  C   UNL     1       2.112  -8.052  27.095  0.00  0.00    +0.008 C 
BRANCH  18  23
ATOM     23  O   UNL     1       1.256 -11.541  27.346  0.00  0.00    -0.503 OA
ATOM     24  H   UNL     1       0.466 -11.454  27.842  0.00  0.00    +0.292 HD
ENDBRANCH  18  23
BRANCH  19  25
ATOM     25  O   UNL     1       3.690 -11.636  25.827  0.00  0.00    -0.398 OA
BRANCH  25  26
ATOM     26  N   UNL     1       3.322 -12.918  26.012  0.00  0.00    -0.112 NA
ATOM     27  C   UNL     1       2.718 -13.522  24.865  0.00  0.00    +0.140 C 
ATOM     28  C   UNL     1       3.553 -14.671  24.479  0.00  0.00    -0.006 C 
ATOM     29  C   UNL     1       4.531 -14.814  25.412  0.00  0.00    -0.005 C 
ATOM     30  C   UNL     1       4.381 -13.768  26.452  0.00  0.00    +0.140 C 
ATOM     31  C   UNL     1       5.468 -15.833  25.290  0.00  0.00    -0.003 C 
ATOM     32  C   UNL     1       5.379 -16.680  24.213  0.00  0.00    -0.005 C 
ATOM     33  C   UNL     1       4.389 -16.549  23.252  0.00  0.00    -0.022 C 
ATOM     34  C   UNL     1       3.468 -15.535  23.388  0.00  0.00    -0.007 C 
BRANCH  33  35
ATOM     35  C   UNL     1       4.353 -17.502  22.114  0.00  0.00    +0.026 C 
ATOM     36  C   UNL     1       5.126 -16.987  20.913  0.00  0.00    +0.005 C 
ENDBRANCH  33  35
ENDBRANCH  25  26
ENDBRANCH  19  25
ENDBRANCH   2  17
BRANCH   5  37
ATOM     37  CA  UNL     1      -2.215  -6.776  31.194  0.00  0.00    +0.158 C 
ATOM     38  CB  UNL     1      -1.679  -6.881  32.406  0.00  0.00    +0.028 C 
BRANCH  37  39
ATOM     39  C   UNL     1      -2.713  -5.453  30.784  0.00  0.00    +0.356 C 
ATOM     40  OXT UNL     1      -3.255  -5.229  29.678  0.00  0.00    -0.243 OA
BRANCH  39  41
ATOM     41  O   UNL     1      -2.575  -4.401  31.665  0.00  0.00    -0.476 OA
ATOM     42  H   UNL     1      -2.173  -4.539  32.500  0.00  0.00    +0.295 HD
ENDBRANCH  39  41
ENDBRANCH  37  39
ENDBRANCH   5  37
TORSDOF 9
