MODEL 1
REMARK VINA RESULT:   -10.715      0.000      0.000
REMARK INTER + INTRA:         -14.007
REMARK INTER:                 -12.594
REMARK INTRA:                  -1.412
REMARK UNBOUND:                -1.412
REMARK  Name = =
REMARK  3 active torsions:
REMARK  status: ('A' for Active; 'I' for Inactive)
REMARK    1  A    between atoms: N_1  and  N_32
REMARK    2  A    between atoms: C_4  and  C_24
REMARK    3  A    between atoms: C_6  and  C_12
REMARK                            x       y       z     vdW  Elec       q    Type
REMARK                         _______ _______ _______ _____ _____    ______ ____
ROOT
ATOM      1  N   UNL     1       1.359  -5.542  27.153  0.00  0.00    -0.173 N 
ATOM      2  C   UNL     1       0.832  -6.719  27.589  0.00  0.00    +0.074 C 
ATOM      3  C   UNL     1       1.019  -7.896  26.854  0.00  0.00    +0.016 C 
ATOM      4  C   UNL     1       0.474  -9.054  27.326  0.00  0.00    +0.004 C 
ATOM      5  C   UNL     1      -0.255  -9.045  28.526  0.00  0.00    +0.005 C 
ATOM      6  C   UNL     1      -0.463  -7.924  29.277  0.00  0.00    +0.055 C 
ATOM      7  C   UNL     1       0.119  -6.742  28.750  0.00  0.00    +0.021 C 
ATOM      8  C   UNL     1       1.744  -7.845  25.684  0.00  0.00    +0.006 C 
ATOM      9  C   UNL     1       2.249  -6.625  25.299  0.00  0.00    +0.060 C 
ATOM     10  C   UNL     1       2.065  -5.465  26.021  0.00  0.00    +0.269 C 
ATOM     11  O   UNL     1       2.541  -4.354  25.647  0.00  0.00    -0.268 OA
ENDROOT
BRANCH   6  12
ATOM     12  C   UNL     1      -1.160  -7.848  30.536  0.00  0.00    +0.249 C 
ATOM     13  O   UNL     1      -1.157  -8.942  31.278  0.00  0.00    -0.270 OA
ATOM     14  N   UNL     1      -1.850  -6.787  31.096  0.00  0.00    -0.272 N 
ATOM     15  C   UNL     1      -2.409  -7.041  32.454  0.00  0.00    +0.099 C 
ATOM     16  C   UNL     1      -3.838  -6.609  32.573  0.00  0.00    +0.048 C 
ATOM     17  C   UNL     1      -4.006  -5.211  32.070  0.00  0.00    -0.023 C 
ATOM     18  C   UNL     1      -3.174  -4.720  31.092  0.00  0.00    -0.006 C 
ATOM     19  C   UNL     1      -3.321  -3.428  30.635  0.00  0.00    -0.003 C 
ATOM     20  C   UNL     1      -4.324  -2.610  31.172  0.00  0.00    -0.000 C 
ATOM     21  C   UNL     1      -5.157  -3.091  32.146  0.00  0.00    -0.000 C 
ATOM     22  C   UNL     1      -4.967  -4.411  32.576  0.00  0.00    -0.004 C 
ATOM     23  C   UNL     1      -2.077  -5.536  30.454  0.00  0.00    +0.120 C 
ENDBRANCH   6  12
BRANCH   4  24
ATOM     24  C   UNL     1       0.630 -10.303  26.611  0.00  0.00    +0.028 C 
ATOM     25  C   UNL     1      -0.125 -10.637  25.511  0.00  0.00    +0.141 C 
ATOM     26  C   UNL     1       0.050 -11.833  24.856  0.00  0.00    +0.036 C 
ATOM     27  C   UNL     1       1.002 -12.726  25.300  0.00  0.00    +0.037 C 
ATOM     28  C   UNL     1       1.776 -12.428  26.395  0.00  0.00    +0.007 C 
ATOM     29  C   UNL     1       1.588 -11.233  27.036  0.00  0.00    +0.003 C 
ATOM     30 BR   UNL     1       1.279 -14.406  24.413  0.00  0.00    -0.049 Br
ATOM     31  F   UNL     1      -1.077  -9.759  25.057  0.00  0.00    -0.204 F 
ENDBRANCH   4  24
BRANCH   1  32
ATOM     32  N   UNL     1       1.153  -4.373  27.917  0.00  0.00    -0.147 N 
ATOM     33  C   UNL     1       0.021  -3.524  27.796  0.00  0.00    +0.248 C 
ATOM     34  O   UNL     1      -0.846  -3.570  26.896  0.00  0.00    -0.273 OA
ATOM     35  C   UNL     1       0.076  -2.591  28.933  0.00  0.00    +0.097 C 
ATOM     36  C   UNL     1       1.578  -2.470  29.176  0.00  0.00    +0.097 C 
ATOM     37  C   UNL     1       2.031  -3.860  28.917  0.00  0.00    +0.248 C 
ATOM     38  O   UNL     1       2.992  -4.439  29.479  0.00  0.00    -0.273 OA
ENDBRANCH   1  32
TORSDOF 3
ENDMDL
