REMARK  Name = =
REMARK  1 active torsions:
REMARK  status: ('A' for Active; 'I' for Inactive)
REMARK    1  A    between atoms: C_3  and  O_8
REMARK                            x       y       z     vdW  Elec       q    Type
REMARK                         _______ _______ _______ _____ _____    ______ ____
ROOT
ATOM      1 CL   UNL     1      -0.138  -4.641  30.120  0.00  0.00    -0.079 Cl
ATOM      2  C   UNL     1       0.076  -6.119  29.184  0.00  0.00    +0.091 C 
ATOM      3  C   UNL     1       1.301  -6.760  29.166  0.00  0.00    +0.144 C 
ATOM      4  C   UNL     1       1.426  -7.910  28.424  0.00  0.00    +0.037 C 
ATOM      5  C   UNL     1       0.385  -8.445  27.703  0.00  0.00    +0.003 C 
ATOM      6  C   UNL     1      -0.837  -7.804  27.721  0.00  0.00    +0.001 C 
ATOM      7  C   UNL     1      -0.982  -6.646  28.462  0.00  0.00    +0.014 C 
ENDROOT
BRANCH   3   8
ATOM      8  O   UNL     1       2.353  -6.215  29.900  0.00  0.00    -0.505 OA
ATOM      9  H   UNL     1       2.223  -5.428  30.392  0.00  0.00    +0.292 HD
ENDBRANCH   3   8
TORSDOF 1
