REMARK  Name = =
REMARK  5 active torsions:
REMARK  status: ('A' for Active; 'I' for Inactive)
REMARK    1  A    between atoms: O_1  and  C_4
REMARK    2  A    between atoms: O_1  and  N_9
REMARK    3  A    between atoms: N_9  and  O_12
REMARK    4  A    between atoms: O_12  and  C_13
REMARK    5  A    between atoms: C_13  and  O_15
REMARK                            x       y       z     vdW  Elec       q    Type
REMARK                         _______ _______ _______ _____ _____    ______ ____
ROOT
ATOM      1  O   UNL     1     -12.900   1.024  28.931  0.00  0.00    -0.347 OA
ENDROOT
BRANCH   1   4
ATOM      2 CL   UNL     1      -9.999   1.145  28.990  0.00  0.00    -0.079 Cl
ATOM      3  C   UNL     1     -10.940  -0.113  29.744  0.00  0.00    +0.095 C 
ATOM      4  C   UNL     1     -12.335  -0.031  29.624  0.00  0.00    +0.185 C 
ATOM      5  C   UNL     1     -13.131  -0.987  30.191  0.00  0.00    +0.041 C 
ATOM      6  C   UNL     1     -12.569  -2.054  30.895  0.00  0.00    +0.003 C 
ATOM      7  C   UNL     1     -11.187  -2.149  31.021  0.00  0.00    +0.001 C 
ATOM      8  C   UNL     1     -10.412  -1.160  30.432  0.00  0.00    +0.015 C 
ENDBRANCH   1   4
BRANCH   1   9
ATOM      9  N   UNL     1     -13.960   1.763  29.371  0.00  0.00    +0.059 N 
ATOM     10  C   UNL     1     -13.833   2.799  30.324  0.00  0.00    +0.378 C 
ATOM     11  O   UNL     1     -12.695   3.059  30.776  0.00  0.00    -0.258 OA
BRANCH   9  12
ATOM     12  O   UNL     1     -15.191   1.433  28.802  0.00  0.00    -0.275 OA
BRANCH  12  13
ATOM     13  C   UNL     1     -15.235   1.254  27.430  0.00  0.00    +0.533 C 
ATOM     14  O   UNL     1     -16.253   0.639  26.968  0.00  0.00    -0.201 OA
BRANCH  13  15
ATOM     15  O   UNL     1     -14.238   1.709  26.571  0.00  0.00    -0.448 OA
ATOM     16  H   UNL     1     -14.312   1.564  25.648  0.00  0.00    +0.299 HD
ENDBRANCH  13  15
ENDBRANCH  12  13
ENDBRANCH   9  12
ENDBRANCH   1   9
TORSDOF 5
