REMARK  Name = =
REMARK  9 active torsions:
REMARK  status: ('A' for Active; 'I' for Inactive)
REMARK    1  A    between atoms: C_3  and  O_18
REMARK    2  A    between atoms: C_6  and  O_8
REMARK    3  A    between atoms: O_8  and  C_9
REMARK    4  A    between atoms: C_9  and  C_11
REMARK    5  A    between atoms: C_12  and  O_17
REMARK    6  A    between atoms: O_18  and  N_19
REMARK    7  A    between atoms: N_19  and  O_22
REMARK    8  A    between atoms: O_22  and  C_23
REMARK    9  A    between atoms: C_23  and  O_25
REMARK                            x       y       z     vdW  Elec       q    Type
REMARK                         _______ _______ _______ _____ _____    ______ ____
ROOT
ATOM      1 CL   UNL     1     -10.935   0.724  23.600  0.00  0.00    -0.079 Cl
ATOM      2  C   UNL     1     -12.529   1.300  24.023  0.00  0.00    +0.098 C 
ATOM      3  C   UNL     1     -13.609   1.125  23.232  0.00  0.00    +0.185 C 
ATOM      4  C   UNL     1     -14.892   1.553  23.617  0.00  0.00    +0.044 C 
ATOM      5  C   UNL     1     -15.035   2.173  24.835  0.00  0.00    +0.041 C 
ATOM      6  C   UNL     1     -13.964   2.367  25.653  0.00  0.00    +0.150 C 
ATOM      7  C   UNL     1     -12.724   1.943  25.269  0.00  0.00    +0.052 C 
ENDROOT
BRANCH   6   8
ATOM      8  O   UNL     1     -14.114   3.005  26.886  0.00  0.00    -0.421 OA
BRANCH   8   9
ATOM      9  C   UNL     1     -13.722   4.341  26.943  0.00  0.00    +0.349 C 
ATOM     10  O   UNL     1     -12.892   4.603  27.895  0.00  0.00    -0.244 OA
BRANCH   9  11
ATOM     11  C   UNL     1     -14.123   5.419  26.092  0.00  0.00    +0.110 C 
ATOM     12  C   UNL     1     -13.272   6.216  25.392  0.00  0.00    +0.140 C 
ATOM     13  C   UNL     1     -13.749   7.276  24.572  0.00  0.00    +0.037 C 
ATOM     14  C   UNL     1     -15.108   7.478  24.504  0.00  0.00    +0.003 C 
ATOM     15  C   UNL     1     -15.992   6.693  25.198  0.00  0.00    +0.000 C 
ATOM     16  C   UNL     1     -15.497   5.680  25.978  0.00  0.00    +0.010 C 
BRANCH  12  17
ATOM     17  O   UNL     1     -11.914   6.056  25.429  0.00  0.00    -0.505 OA
ATOM     18  H   UNL     1     -11.536   5.375  25.951  0.00  0.00    +0.292 HD
ENDBRANCH  12  17
ENDBRANCH   9  11
ENDBRANCH   8   9
ENDBRANCH   6   8
BRANCH   3  19
ATOM     19  O   UNL     1     -13.488   0.523  21.983  0.00  0.00    -0.347 OA
BRANCH  19  20
ATOM     20  N   UNL     1     -13.302   1.234  20.849  0.00  0.00    +0.059 N 
ATOM     21  C   UNL     1     -14.195   0.916  19.752  0.00  0.00    +0.378 C 
ATOM     22  O   UNL     1     -15.033   0.022  19.895  0.00  0.00    -0.258 OA
BRANCH  20  23
ATOM     23  O   UNL     1     -12.370   2.198  20.604  0.00  0.00    -0.275 OA
BRANCH  23  24
ATOM     24  C   UNL     1     -11.263   1.798  19.852  0.00  0.00    +0.533 C 
ATOM     25  O   UNL     1     -10.714   0.716  20.129  0.00  0.00    -0.201 OA
BRANCH  24  26
ATOM     26  O   UNL     1     -10.758   2.566  18.817  0.00  0.00    -0.448 OA
ATOM     27  H   UNL     1     -11.163   3.383  18.599  0.00  0.00    +0.299 HD
ENDBRANCH  24  26
ENDBRANCH  23  24
ENDBRANCH  20  23
ENDBRANCH  19  20
ENDBRANCH   3  19
TORSDOF 9
