REMARK  Name = =
REMARK  10 active torsions:
REMARK  status: ('A' for Active; 'I' for Inactive)
REMARK    1  A    between atoms: C_3  and  O_24
REMARK    2  A    between atoms: C_6  and  O_14
REMARK    3  A    between atoms: C_7  and  N_8
REMARK    4  A    between atoms: O_14  and  C_15
REMARK    5  A    between atoms: C_15  and  C_17
REMARK    6  A    between atoms: C_18  and  O_23
REMARK    7  A    between atoms: O_24  and  N_25
REMARK    8  A    between atoms: N_25  and  O_28
REMARK    9  A    between atoms: O_28  and  C_29
REMARK   10  A    between atoms: C_29  and  O_31
REMARK                            x       y       z     vdW  Elec       q    Type
REMARK                         _______ _______ _______ _____ _____    ______ ____
ROOT
ATOM      1 CL   UNL     1     -14.658  -1.601  24.669  0.00  0.00    -0.078 Cl
ATOM      2  C   UNL     1     -14.248  -3.297  24.709  0.00  0.00    +0.111 C 
ATOM      3  C   UNL     1     -15.314  -4.225  24.664  0.00  0.00    +0.186 C 
ATOM      4  C   UNL     1     -14.940  -5.542  24.697  0.00  0.00    +0.044 C 
ATOM      5  C   UNL     1     -13.595  -5.928  24.771  0.00  0.00    +0.042 C 
ATOM      6  C   UNL     1     -12.570  -5.011  24.814  0.00  0.00    +0.163 C 
ATOM      7  C   UNL     1     -12.932  -3.689  24.781  0.00  0.00    +0.097 C 
ENDROOT
BRANCH   7   8
ATOM      8  N   UNL     1     -11.909  -2.696  24.845  0.00  0.00    -0.304 N 
ATOM      9  C   UNL     1     -11.449  -2.238  26.160  0.00  0.00    +0.091 C 
ATOM     10  C   UNL     1     -10.017  -1.762  25.959  0.00  0.00    +0.021 C 
ATOM     11  C   UNL     1     -10.091  -0.463  25.175  0.00  0.00    +0.004 C 
ATOM     12  C   UNL     1     -11.058  -0.606  24.018  0.00  0.00    +0.021 C 
ATOM     13  C   UNL     1     -11.283  -2.082  23.702  0.00  0.00    +0.091 C 
ENDBRANCH   7   8
BRANCH   6  14
ATOM     14  O   UNL     1     -11.225  -5.426  24.889  0.00  0.00    -0.420 OA
BRANCH  14  15
ATOM     15  C   UNL     1     -10.476  -5.662  23.767  0.00  0.00    +0.349 C 
ATOM     16  O   UNL     1      -9.219  -5.476  23.944  0.00  0.00    -0.244 OA
BRANCH  15  17
ATOM     17  C   UNL     1     -10.961  -6.083  22.458  0.00  0.00    +0.110 C 
ATOM     18  C   UNL     1     -11.407  -7.323  22.140  0.00  0.00    +0.140 C 
ATOM     19  C   UNL     1     -11.870  -7.548  20.834  0.00  0.00    +0.037 C 
ATOM     20  C   UNL     1     -11.899  -6.588  19.866  0.00  0.00    +0.003 C 
ATOM     21  C   UNL     1     -11.443  -5.318  20.189  0.00  0.00    +0.000 C 
ATOM     22  C   UNL     1     -10.988  -5.093  21.465  0.00  0.00    +0.010 C 
BRANCH  18  23
ATOM     23  O   UNL     1     -11.412  -8.343  23.055  0.00  0.00    -0.505 OA
ATOM     24  H   UNL     1     -11.103  -8.192  23.927  0.00  0.00    +0.292 HD
ENDBRANCH  18  23
ENDBRANCH  15  17
ENDBRANCH  14  15
ENDBRANCH   6  14
BRANCH   3  25
ATOM     25  O   UNL     1     -16.588  -3.812  24.595  0.00  0.00    -0.347 OA
BRANCH  25  26
ATOM     26  N   UNL     1     -17.645  -4.221  25.292  0.00  0.00    +0.059 N 
ATOM     27  C   UNL     1     -18.515  -5.156  24.657  0.00  0.00    +0.378 C 
ATOM     28  O   UNL     1     -18.377  -5.622  23.515  0.00  0.00    -0.258 OA
BRANCH  26  29
ATOM     29  O   UNL     1     -17.910  -3.759  26.560  0.00  0.00    -0.275 OA
BRANCH  29  30
ATOM     30  C   UNL     1     -17.791  -4.621  27.646  0.00  0.00    +0.533 C 
ATOM     31  O   UNL     1     -17.002  -5.573  27.627  0.00  0.00    -0.201 OA
BRANCH  30  32
ATOM     32  O   UNL     1     -18.624  -4.327  28.744  0.00  0.00    -0.448 OA
ATOM     33  H   UNL     1     -18.597  -4.866  29.510  0.00  0.00    +0.299 HD
ENDBRANCH  30  32
ENDBRANCH  29  30
ENDBRANCH  26  29
ENDBRANCH  25  26
ENDBRANCH   3  25
TORSDOF 10
