MODEL 1
REMARK VINA RESULT:    -9.060      0.000      0.000
REMARK INTER + INTRA:         -17.914
REMARK INTER:                 -14.356
REMARK INTRA:                  -3.558
REMARK UNBOUND:                -3.558
REMARK  Name = =
REMARK  11 active torsions:
REMARK  status: ('A' for Active; 'I' for Inactive)
REMARK    1  A    between atoms: C_1  and  N_23
REMARK    2  A    between atoms: C_2  and  S_9
REMARK    3  A    between atoms: S_9  and  P_10
REMARK    4  A    between atoms: P_10  and  O_11
REMARK    5  A    between atoms: P_10  and  O_12
REMARK    6  A    between atoms: P_10  and  O_13
REMARK    7  A    between atoms: O_13  and  O_14
REMARK    8  A    between atoms: O_14  and  C_15
REMARK    9  A    between atoms: C_15  and  C_17
REMARK   10  A    between atoms: N_23  and  C_24
REMARK   11  A    between atoms: C_24  and  C_35
REMARK                            x       y       z     vdW  Elec       q    Type
REMARK                         _______ _______ _______ _____ _____    ______ ____
ROOT
ATOM      1  C   UNL     1     -24.112 -43.652  26.171  0.00  0.00    +0.095 C 
ATOM      2  C   UNL     1     -23.381 -43.294  27.207  0.00  0.00    +0.077 C 
ATOM      3  C   UNL     1     -23.457 -44.034  28.490  0.00  0.00    +0.202 C 
ATOM      4  O   UNL     1     -22.754 -43.696  29.493  0.00  0.00    -0.286 OA
ATOM      5  C   UNL     1     -24.369 -45.160  28.551  0.00  0.00    +0.046 C 
ATOM      6  C   UNL     1     -25.102 -45.515  27.518  0.00  0.00    +0.047 C 
ATOM      7  C   UNL     1     -25.039 -44.802  26.257  0.00  0.00    +0.209 C 
ATOM      8  O   UNL     1     -25.761 -45.171  25.292  0.00  0.00    -0.285 OA
ENDROOT
BRANCH   2   9
ATOM      9  S   UNL     1     -22.289 -41.910  27.206  0.00  0.00    -0.090 S 
ATOM     10  H   UNL     1     -22.478 -41.219  28.362  0.00  0.00    +0.107 HD
BRANCH   9  11
ATOM     11  P   UNL     1     -20.478 -42.359  27.081  0.00  0.00    +0.325 P 
BRANCH  11  12
ATOM     12  O   UNL     1     -19.947 -42.998  28.575  0.00  0.00    -0.326 OA
ATOM     13  H   UNL     1     -20.224 -43.926  28.646  0.00  0.00    +0.220 HD
ENDBRANCH  11  12
BRANCH  11  14
ATOM     14  O   UNL     1     -20.217 -43.620  25.958  0.00  0.00    -0.326 OA
ATOM     15  H   UNL     1     -19.268 -43.813  25.904  0.00  0.00    +0.220 HD
ENDBRANCH  11  14
BRANCH  11  16
ATOM     16  O   UNL     1     -19.559 -41.020  26.708  0.00  0.00    -0.101 OA
BRANCH  16  17
ATOM     17  O   UNL     1     -18.413 -41.304  26.068  0.00  0.00    -0.284 OA
BRANCH  17  18
ATOM     18  C   UNL     1     -17.291 -41.826  26.656  0.00  0.00    +0.375 C 
ATOM     19  O   UNL     1     -17.193 -41.818  27.902  0.00  0.00    -0.242 OA
BRANCH  18  20
ATOM     20  C   UNL     1     -16.244 -42.380  25.794  0.00  0.00    +0.079 C 
ATOM     21  C   UNL     1     -16.442 -42.292  24.430  0.00  0.00    +0.007 C 
ATOM     22  C   UNL     1     -15.492 -42.795  23.570  0.00  0.00    +0.000 C 
ATOM     23  C   UNL     1     -14.359 -43.377  24.102  0.00  0.00    +0.000 C 
ATOM     24  C   UNL     1     -14.141 -43.474  25.459  0.00  0.00    +0.000 C 
ATOM     25  C   UNL     1     -15.106 -42.963  26.304  0.00  0.00    +0.007 C 
ENDBRANCH  18  20
ENDBRANCH  17  18
ENDBRANCH  16  17
ENDBRANCH  11  16
ENDBRANCH   9  11
ENDBRANCH   2   9
BRANCH   1  26
ATOM     26  N   UNL     1     -24.052 -42.964  24.958  0.00  0.00    -0.295 N 
ATOM     27  H   UNL     1     -24.601 -42.147  24.933  0.00  0.00    +0.150 HD
BRANCH  26  28
ATOM     28  C   UNL     1     -23.345 -43.225  23.752  0.00  0.00    +0.265 C 
ATOM     29  O   UNL     1     -22.493 -44.348  24.053  0.00  0.00    -0.454 OA
ATOM     30  C   UNL     1     -22.525 -45.583  23.514  0.00  0.00    +0.174 C 
ATOM     31  C   UNL     1     -23.091 -45.740  22.269  0.00  0.00    +0.173 C 
ATOM     32  C   UNL     1     -23.166 -46.986  21.634  0.00  0.00    +0.040 C 
ATOM     33  C   UNL     1     -22.655 -48.086  22.282  0.00  0.00    +0.003 C 
ATOM     34  C   UNL     1     -22.091 -47.933  23.521  0.00  0.00    +0.003 C 
ATOM     35  C   UNL     1     -22.007 -46.705  24.167  0.00  0.00    +0.040 C 
ATOM     36  O   UNL     1     -23.571 -44.568  21.712  0.00  0.00    -0.466 OA
ATOM     37  C   UNL     1     -24.208 -43.639  22.619  0.00  0.00    +0.271 C 
BRANCH  28  39
ATOM     38  C   UNL     1     -21.032 -42.312  23.126  0.00  0.00    +0.017 C 
ATOM     39  C   UNL     1     -22.381 -42.142  23.358  0.00  0.00    +0.093 C 
ATOM     40  N   UNL     1     -22.629 -40.836  23.130  0.00  0.00    -0.229 N 
ATOM     41  C   UNL     1     -21.450 -40.212  22.764  0.00  0.00    +0.058 C 
ATOM     42  C   UNL     1     -20.430 -41.131  22.757  0.00  0.00    +0.015 C 
ATOM     43  C   UNL     1     -19.130 -40.794  22.429  0.00  0.00    +0.001 C 
ATOM     44  C   UNL     1     -18.797 -39.503  22.089  0.00  0.00    +0.000 C 
ATOM     45  C   UNL     1     -19.819 -38.582  22.096  0.00  0.00    +0.001 C 
ATOM     46  C   UNL     1     -21.125 -38.920  22.427  0.00  0.00    +0.015 C 
ATOM     47  C   UNL     1     -23.837 -40.125  23.259  0.00  0.00    +0.311 C 
ATOM     48  O   UNL     1     -23.893 -38.914  22.971  0.00  0.00    -0.264 OA
ENDBRANCH  28  39
ENDBRANCH  26  28
ENDBRANCH   1  26
TORSDOF 11
ENDMDL
