REMARK  Name = =
REMARK  3 active torsions:
REMARK  status: ('A' for Active; 'I' for Inactive)
REMARK    1  A    between atoms: C_1  and  C_11
REMARK    2  A    between atoms: C_11  and  C_13
REMARK    3  A    between atoms: C_13  and  O_15
REMARK                            x       y       z     vdW  Elec       q    Type
REMARK                         _______ _______ _______ _____ _____    ______ ____
ROOT
ATOM      1  C   UNL     1      -9.606  -9.786  20.180  0.00  0.00    +0.144 C 
ATOM      2  N   UNL     1      -8.902  -9.747  21.324  0.00  0.00    -0.239 NA
ATOM      3  C   UNL     1      -9.287  -8.981  22.351  0.00  0.00    +0.099 C 
ATOM      4  C   UNL     1     -10.430  -8.222  22.230  0.00  0.00    +0.022 C 
ATOM      5  C   UNL     1     -11.189  -8.231  21.069  0.00  0.00    +0.021 C 
ATOM      6  C   UNL     1     -10.749  -9.036  20.043  0.00  0.00    +0.102 C 
ATOM      7  N   UNL     1     -11.477  -9.055  18.907  0.00  0.00    -0.242 NA
ATOM      8  C   UNL     1     -12.599  -8.344  18.717  0.00  0.00    +0.099 C 
ATOM      9  C   UNL     1     -13.045  -7.537  19.740  0.00  0.00    +0.021 C 
ATOM     10  C   UNL     1     -12.332  -7.482  20.928  0.00  0.00    +0.003 C 
ENDROOT
BRANCH   1  11
ATOM     11  C   UNL     1      -9.189 -10.621  19.054  0.00  0.00    +0.289 C 
ATOM     12  O   UNL     1      -8.690 -10.094  18.036  0.00  0.00    -0.278 OA
BRANCH  11  13
ATOM     13  C   UNL     1      -9.334 -12.070  19.070  0.00  0.00    +0.379 C 
ATOM     14  O   UNL     1      -9.113 -12.692  18.011  0.00  0.00    -0.241 OA
BRANCH  13  15
ATOM     15  O   UNL     1      -9.704 -12.757  20.214  0.00  0.00    -0.475 OA
ATOM     16  H   UNL     1      -9.870 -12.289  21.009  0.00  0.00    +0.296 HD
ENDBRANCH  13  15
ENDBRANCH  11  13
ENDBRANCH   1  11
TORSDOF 3
