REMARK  Name = =
REMARK  9 active torsions:
REMARK  status: ('A' for Active; 'I' for Inactive)
REMARK    1  A    between atoms: C_1  and  C_37
REMARK    2  A    between atoms: C_14  and  C_16
REMARK    3  A    between atoms: C_20  and  C_22
REMARK    4  A    between atoms: C_24  and  N_28
REMARK    5  A    between atoms: C_37  and  C_39
REMARK    6  A    between atoms: C_39  and  O_41
REMARK    7  A    between atoms: O_41  and  C_42
REMARK    8  A    between atoms: C_42  and  O_44
REMARK    9  A    between atoms: O_44  and  N_45
REMARK                            x       y       z     vdW  Elec       q    Type
REMARK                         _______ _______ _______ _____ _____    ______ ____
ROOT
ATOM      1  C   UNL     1     -10.364  -5.772  17.156  0.00  0.00    +0.144 C 
ATOM      2  N   UNL     1     -11.356  -5.166  16.469  0.00  0.00    -0.239 NA
ATOM      3  C   UNL     1     -11.483  -3.834  16.385  0.00  0.00    +0.099 C 
ATOM      4  C   UNL     1     -10.557  -3.051  17.031  0.00  0.00    +0.022 C 
ATOM      5  C   UNL     1      -9.521  -3.595  17.748  0.00  0.00    +0.021 C 
ATOM      6  C   UNL     1      -9.436  -4.990  17.803  0.00  0.00    +0.104 C 
ATOM      7  N   UNL     1      -8.458  -5.593  18.493  0.00  0.00    -0.227 NA
ATOM      8  C   UNL     1      -7.501  -4.880  19.172  0.00  0.00    +0.157 C 
ATOM      9  N   UNL     1      -6.513  -5.564  19.930  0.00  0.00    -0.171 N 
ATOM     10  N   UNL     1      -6.448  -5.472  21.254  0.00  0.00    -0.171 NA
ATOM     11  C   UNL     1      -5.443  -6.212  21.740  0.00  0.00    +0.120 C 
ATOM     12  C   UNL     1      -4.817  -6.821  20.667  0.00  0.00    +0.040 C 
ATOM     13  C   UNL     1      -5.534  -6.376  19.549  0.00  0.00    +0.093 C 
ATOM     14  C   UNL     1      -7.550  -3.516  19.139  0.00  0.00    +0.067 C 
ATOM     15  C   UNL     1      -8.571  -2.886  18.419  0.00  0.00    +0.007 C 
ENDROOT
BRANCH  14  16
ATOM     16  C   UNL     1      -6.594  -2.653  19.810  0.00  0.00    +0.153 C 
ATOM     17  N   UNL     1      -5.322  -2.587  19.395  0.00  0.00    -0.228 NA
ATOM     18  C   UNL     1      -4.422  -1.796  20.005  0.00  0.00    +0.253 C 
ATOM     19  N   UNL     1      -4.839  -1.064  21.054  0.00  0.00    -0.225 NA
ATOM     20  C   UNL     1      -6.105  -1.103  21.499  0.00  0.00    +0.187 C 
ATOM     21  N   UNL     1      -6.987  -1.900  20.877  0.00  0.00    -0.173 NA
BRANCH  20  22
ATOM     22  C   UNL     1      -6.543  -0.292  22.657  0.00  0.00    +0.197 C 
ATOM     23  N   UNL     1      -7.518  -0.722  23.454  0.00  0.00    -0.209 NA
ATOM     24  C   UNL     1      -7.963   0.005  24.533  0.00  0.00    +0.139 C 
ATOM     25  C   UNL     1      -7.363   1.202  24.764  0.00  0.00    +0.055 C 
ATOM     26  C   UNL     1      -6.344   1.661  23.938  0.00  0.00    +0.104 C 
ATOM     27  N   UNL     1      -5.963   0.894  22.904  0.00  0.00    -0.223 NA
BRANCH  24  28
ATOM     28  N   UNL     1      -9.018  -0.574  25.309  0.00  0.00    -0.253 N 
ATOM     29  C   UNL     1      -9.292  -0.366  26.669  0.00  0.00    +0.309 C 
ATOM     30  O   UNL     1      -8.570   0.406  27.323  0.00  0.00    -0.252 OA
ATOM     31  N   UNL     1     -10.383  -1.023  27.327  0.00  0.00    -0.259 N 
ATOM     32  C   UNL     1     -10.612  -0.755  28.719  0.00  0.00    +0.127 C 
ATOM     33  C   UNL     1     -11.619  -1.675  29.342  0.00  0.00    +0.164 C 
ATOM     34  O   UNL     1     -11.622  -2.904  28.689  0.00  0.00    -0.350 OA
ATOM     35  C   UNL     1     -12.168  -2.674  27.424  0.00  0.00    +0.164 C 
ATOM     36  C   UNL     1     -11.203  -1.928  26.557  0.00  0.00    +0.127 C 
ATOM     37  H   UNL     1      -9.621  -1.189  24.833  0.00  0.00    +0.158 HD
ENDBRANCH  24  28
ENDBRANCH  20  22
ENDBRANCH  14  16
BRANCH   1  38
ATOM     38  C   UNL     1     -10.264  -7.223  17.205  0.00  0.00    +0.290 C 
ATOM     39  O   UNL     1      -9.523  -7.807  16.383  0.00  0.00    -0.278 OA
BRANCH  38  40
ATOM     40  C   UNL     1     -11.035  -7.935  18.213  0.00  0.00    +0.391 C 
ATOM     41  O   UNL     1     -11.681  -7.275  19.059  0.00  0.00    -0.241 OA
BRANCH  40  42
ATOM     42  O   UNL     1     -11.110  -9.317  18.304  0.00  0.00    -0.354 OA
BRANCH  42  43
ATOM     43  C   UNL     1     -10.252 -10.035  19.159  0.00  0.00    +0.537 C 
ATOM     44  O   UNL     1      -9.099  -9.569  19.333  0.00  0.00    -0.201 OA
BRANCH  43  45
ATOM     45  O   UNL     1     -10.602 -11.193  19.799  0.00  0.00    -0.340 OA
BRANCH  45  46
ATOM     46  N   UNL     1      -9.735 -12.086  20.373  0.00  0.00    -0.162 NA
ATOM     47  H   UNL     1     -10.262 -12.859  20.779  0.00  0.00    +0.163 HD
ATOM     48  H   UNL     1      -9.200 -11.618  21.104  0.00  0.00    +0.163 HD
ENDBRANCH  45  46
ENDBRANCH  43  45
ENDBRANCH  42  43
ENDBRANCH  40  42
ENDBRANCH  38  40
ENDBRANCH   1  38
TORSDOF 9
