MODEL 1
REMARK VINA RESULT:    -8.659      0.000      0.000
REMARK INTER + INTRA:         -14.273
REMARK INTER:                 -13.468
REMARK INTRA:                  -0.805
REMARK UNBOUND:                -0.805
REMARK  Name = =
REMARK  10 active torsions:
REMARK  status: ('A' for Active; 'I' for Inactive)
REMARK    1  A    between atoms: P_1  and  N_3
REMARK    2  A    between atoms: P_1  and  N_4
REMARK    3  A    between atoms: P_1  and  O_25
REMARK    4  A    between atoms: N_4  and  C_5
REMARK    5  A    between atoms: C_10  and  C_11
REMARK    6  A    between atoms: O_25  and  N_26
REMARK    7  A    between atoms: C_30  and  C_45
REMARK    8  A    between atoms: C_31  and  N_42
REMARK    9  A    between atoms: C_32  and  C_33
REMARK   10  A    between atoms: C_45  and  C_47
REMARK                            x       y       z     vdW  Elec       q    Type
REMARK                         _______ _______ _______ _____ _____    ______ ____
ROOT
ATOM      1  P   UNL     1       2.378  -1.896  27.568  0.00  0.00    +0.377 P 
ATOM      2  O   UNL     1       2.304  -0.980  28.749  0.00  0.00    -0.249 OA
ENDROOT
BRANCH   1   3
ATOM      3  N   UNL     1       3.059  -0.933  26.247  0.00  0.00    -0.242 NA
ATOM      4  H   UNL     1       2.303  -0.563  25.671  0.00  0.00    +0.129 HD
ATOM      5  H   UNL     1       3.665  -1.521  25.675  0.00  0.00    +0.129 HD
ENDBRANCH   1   3
BRANCH   1   6
ATOM      6  N   UNL     1       0.753  -2.345  27.105  0.00  0.00    -0.257 N 
ATOM      7  H   UNL     1       0.549  -2.595  26.175  0.00  0.00    +0.157 HD
BRANCH   6   8
ATOM      8  C   UNL     1      -0.264  -2.343  28.091  0.00  0.00    +0.088 C 
ATOM      9  C   UNL     1      -1.152  -1.251  28.046  0.00  0.00    +0.117 C 
ATOM     10  N   UNL     1      -2.167  -1.150  28.904  0.00  0.00    -0.221 NA
ATOM     11  C   UNL     1      -2.370  -2.094  29.838  0.00  0.00    +0.199 C 
ATOM     12  N   UNL     1      -1.534  -3.132  29.888  0.00  0.00    -0.224 NA
ATOM     13  C   UNL     1      -0.473  -3.286  29.031  0.00  0.00    +0.112 C 
BRANCH  13  14
ATOM     14  C   UNL     1       0.371  -4.469  29.225  0.00  0.00    +0.234 C 
ATOM     15  O   UNL     1      -0.380  -5.628  28.954  0.00  0.00    -0.323 OA
ATOM     16  C   UNL     1      -0.431  -6.376  30.086  0.00  0.00    +0.214 C 
ATOM     17  N   UNL     1       0.498  -5.903  31.035  0.00  0.00    -0.245 N 
ATOM     18  C   UNL     1       0.754  -6.633  32.253  0.00  0.00    +0.181 C 
ATOM     19  C   UNL     1      -0.416  -7.523  32.547  0.00  0.00    +0.246 C 
ATOM     20  O   UNL     1      -0.286  -8.468  33.352  0.00  0.00    -0.273 OA
ATOM     21  N   UNL     1      -1.666  -7.310  31.930  0.00  0.00    -0.276 N 
ATOM     22  C   UNL     1      -1.764  -6.733  30.591  0.00  0.00    +0.122 C 
ATOM     23  C   UNL     1      -2.729  -5.626  30.836  0.00  0.00    +0.026 C 
ATOM     24  C   UNL     1      -3.693  -6.235  31.863  0.00  0.00    +0.023 C 
ATOM     25  C   UNL     1      -3.028  -7.532  32.327  0.00  0.00    +0.094 C 
ATOM     26  C   UNL     1       1.042  -4.675  30.477  0.00  0.00    +0.261 C 
ATOM     27  O   UNL     1       1.917  -4.026  31.068  0.00  0.00    -0.272 OA
ENDBRANCH  13  14
ENDBRANCH   6   8
ENDBRANCH   1   6
BRANCH   1  28
ATOM     28  O   UNL     1       3.286  -3.271  27.859  0.00  0.00    -0.189 OA
BRANCH  28  29
ATOM     29  N   UNL     1       3.876  -3.810  26.769  0.00  0.00    -0.156 N 
ATOM     30  C   UNL     1       5.259  -3.688  26.508  0.00  0.00    +0.249 C 
ATOM     31  O   UNL     1       6.069  -3.462  27.468  0.00  0.00    -0.273 OA
ATOM     32  C   UNL     1       5.768  -3.820  25.132  0.00  0.00    +0.096 C 
ATOM     33  C   UNL     1       4.551  -3.576  24.214  0.00  0.00    +0.088 C 
ATOM     34  C   UNL     1       3.645  -4.718  24.483  0.00  0.00    +0.090 C 
ATOM     35  C   UNL     1       3.042  -4.588  25.844  0.00  0.00    +0.141 C 
BRANCH  35  36
ATOM     36  C   UNL     1       2.771  -5.936  26.451  0.00  0.00    +0.003 C 
ATOM     37  C   UNL     1       1.523  -6.471  26.136  0.00  0.00    +0.038 C 
ATOM     38  C   UNL     1       1.207  -7.705  26.656  0.00  0.00    +0.176 C 
ATOM     39  C   UNL     1       2.066  -8.420  27.465  0.00  0.00    +0.176 C 
ATOM     40  C   UNL     1       3.305  -7.836  27.749  0.00  0.00    +0.040 C 
ATOM     41  C   UNL     1       3.648  -6.609  27.247  0.00  0.00    +0.001 C 
ATOM     42  O   UNL     1       1.438  -9.599  27.804  0.00  0.00    -0.435 OA
ATOM     43  C   UNL     1       0.216  -9.722  27.139  0.00  0.00    +0.429 C 
ATOM     44  O   UNL     1       0.046  -8.478  26.512  0.00  0.00    -0.435 OA
ENDBRANCH  35  36
BRANCH  34  45
ATOM     45  N   UNL     1       4.462  -5.932  24.484  0.00  0.00    -0.269 NA
ATOM     46  C   UNL     1       3.893  -7.111  23.855  0.00  0.00    +0.090 C 
ATOM     47  C   UNL     1       5.037  -6.354  23.225  0.00  0.00    +0.090 C 
ENDBRANCH  34  45
BRANCH  33  48
ATOM     48  C   UNL     1       4.990  -3.447  22.815  0.00  0.00    +0.175 C 
ATOM     49  O   UNL     1       4.057  -3.394  21.943  0.00  0.00    -0.291 OA
BRANCH  48  50
ATOM     50  C   UNL     1       6.342  -3.374  22.321  0.00  0.00    +0.037 C 
ATOM     51  C   UNL     1       6.738  -3.732  21.116  0.00  0.00    +0.003 C 
ENDBRANCH  48  50
ENDBRANCH  33  48
ENDBRANCH  28  29
ENDBRANCH   1  28
TORSDOF 10
ENDMDL
