REMARK  Name = =
REMARK  10 active torsions:
REMARK  status: ('A' for Active; 'I' for Inactive)
REMARK    1  A    between atoms: P_1  and  N_3
REMARK    2  A    between atoms: P_1  and  N_4
REMARK    3  A    between atoms: P_1  and  O_25
REMARK    4  A    between atoms: N_4  and  C_5
REMARK    5  A    between atoms: C_10  and  C_11
REMARK    6  A    between atoms: O_25  and  N_26
REMARK    7  A    between atoms: C_30  and  C_45
REMARK    8  A    between atoms: C_31  and  N_42
REMARK    9  A    between atoms: C_32  and  C_33
REMARK   10  A    between atoms: C_45  and  C_47
REMARK                            x       y       z     vdW  Elec       q    Type
REMARK                         _______ _______ _______ _____ _____    ______ ____
ROOT
ATOM      1  P   UNL     1     -13.709  -1.706  23.984  0.00  0.00    +0.377 P 
ATOM      2  O   UNL     1     -14.200  -0.297  24.100  0.00  0.00    -0.249 OA
ENDROOT
BRANCH   1   3
ATOM      3  N   UNL     1     -14.668  -2.451  22.695  0.00  0.00    -0.242 NA
ATOM      4  H   UNL     1     -15.660  -2.372  22.920  0.00  0.00    +0.129 HD
ATOM      5  H   UNL     1     -14.416  -3.436  22.610  0.00  0.00    +0.129 HD
ENDBRANCH   1   3
BRANCH   1   6
ATOM      6  N   UNL     1     -14.080  -2.552  25.468  0.00  0.00    -0.257 N 
ATOM      7  H   UNL     1     -14.894  -3.100  25.542  0.00  0.00    +0.157 HD
BRANCH   6   8
ATOM      8  C   UNL     1     -13.188  -2.435  26.563  0.00  0.00    +0.088 C 
ATOM      9  C   UNL     1     -12.106  -3.336  26.564  0.00  0.00    +0.117 C 
ATOM     10  N   UNL     1     -11.184  -3.307  27.526  0.00  0.00    -0.221 NA
ATOM     11  C   UNL     1     -11.264  -2.411  28.524  0.00  0.00    +0.199 C 
ATOM     12  N   UNL     1     -12.285  -1.554  28.531  0.00  0.00    -0.224 NA
ATOM     13  C   UNL     1     -13.263  -1.539  27.567  0.00  0.00    +0.112 C 
BRANCH  13  14
ATOM     14  C   UNL     1     -14.335  -0.551  27.723  0.00  0.00    +0.234 C 
ATOM     15  O   UNL     1     -14.022   0.313  28.788  0.00  0.00    -0.323 OA
ATOM     16  C   UNL     1     -14.988   0.190  29.735  0.00  0.00    +0.214 C 
ATOM     17  N   UNL     1     -16.095  -0.517  29.223  0.00  0.00    -0.245 N 
ATOM     18  C   UNL     1     -17.318  -0.632  29.980  0.00  0.00    +0.181 C 
ATOM     19  C   UNL     1     -17.019  -0.413  31.432  0.00  0.00    +0.246 C 
ATOM     20  O   UNL     1     -17.949  -0.146  32.221  0.00  0.00    -0.273 OA
ATOM     21  N   UNL     1     -15.701  -0.505  31.926  0.00  0.00    -0.276 N 
ATOM     22  C   UNL     1     -14.551  -0.163  31.092  0.00  0.00    +0.122 C 
ATOM     23  C   UNL     1     -13.718  -1.386  31.254  0.00  0.00    +0.026 C 
ATOM     24  C   UNL     1     -13.959  -1.772  32.720  0.00  0.00    +0.023 C 
ATOM     25  C   UNL     1     -15.130  -0.903  33.182  0.00  0.00    +0.094 C 
ATOM     26  C   UNL     1     -15.691  -0.986  27.907  0.00  0.00    +0.261 C 
ATOM     27  O   UNL     1     -16.465  -1.625  27.180  0.00  0.00    -0.272 OA
ENDBRANCH  13  14
ENDBRANCH   6   8
ENDBRANCH   1   6
BRANCH   1  28
ATOM     28  O   UNL     1     -12.069  -1.806  23.668  0.00  0.00    -0.189 OA
BRANCH  28  29
ATOM     29  N   UNL     1     -11.547  -0.750  23.005  0.00  0.00    -0.156 N 
ATOM     30  C   UNL     1     -10.998   0.372  23.663  0.00  0.00    +0.249 C 
ATOM     31  O   UNL     1     -10.571   0.259  24.861  0.00  0.00    -0.273 OA
ATOM     32  C   UNL     1     -10.917   1.671  22.973  0.00  0.00    +0.096 C 
ATOM     33  C   UNL     1     -11.935   1.589  21.815  0.00  0.00    +0.088 C 
ATOM     34  C   UNL     1     -11.388   0.550  20.910  0.00  0.00    +0.090 C 
ATOM     35  C   UNL     1     -11.519  -0.800  21.538  0.00  0.00    +0.141 C 
BRANCH  35  36
ATOM     36  C   UNL     1     -10.406  -1.712  21.104  0.00  0.00    +0.003 C 
ATOM     37  C   UNL     1      -9.266  -1.655  21.904  0.00  0.00    +0.038 C 
ATOM     38  C   UNL     1      -8.206  -2.465  21.567  0.00  0.00    +0.176 C 
ATOM     39  C   UNL     1      -8.231  -3.318  20.483  0.00  0.00    +0.176 C 
ATOM     40  C   UNL     1      -9.399  -3.335  19.714  0.00  0.00    +0.040 C 
ATOM     41  C   UNL     1     -10.470  -2.540  20.024  0.00  0.00    +0.001 C 
ATOM     42  O   UNL     1      -7.018  -3.972  20.438  0.00  0.00    -0.435 OA
ATOM     43  C   UNL     1      -6.233  -3.642  21.544  0.00  0.00    +0.429 C 
ATOM     44  O   UNL     1      -6.953  -2.618  22.177  0.00  0.00    -0.435 OA
ENDBRANCH  35  36
BRANCH  34  45
ATOM     45  N   UNL     1      -9.959   0.818  20.750  0.00  0.00    -0.269 NA
ATOM     46  C   UNL     1      -9.398   0.638  19.422  0.00  0.00    +0.090 C 
ATOM     47  C   UNL     1      -9.578   2.011  20.024  0.00  0.00    +0.090 C 
ENDBRANCH  34  45
BRANCH  33  48
ATOM     48  C   UNL     1     -12.112   2.916  21.202  0.00  0.00    +0.175 C 
ATOM     49  O   UNL     1     -11.467   3.872  21.752  0.00  0.00    -0.291 OA
BRANCH  48  50
ATOM     50  C   UNL     1     -12.923   3.255  20.060  0.00  0.00    +0.037 C 
ATOM     51  C   UNL     1     -13.887   2.510  19.557  0.00  0.00    +0.003 C 
ENDBRANCH  48  50
ENDBRANCH  33  48
ENDBRANCH  28  29
ENDBRANCH   1  28
TORSDOF 10
