REMARK  Name = =
REMARK  0 active torsions:
REMARK  status: ('A' for Active; 'I' for Inactive)
REMARK                            x       y       z     vdW  Elec       q    Type
REMARK                         _______ _______ _______ _____ _____    ______ ____
ROOT
ATOM      1  C   UNL     1      51.313 154.646  28.423  0.00  0.00    +0.000 C 
ATOM      2  C   UNL     1      51.163 155.553  29.301  0.00  0.00    +0.000 C 
ATOM      3  C   UNL     1      52.312 156.295  28.871  0.00  0.00    +0.000 C 
ATOM      4  C   UNL     1      52.482 155.250  27.863  0.00  0.00    +0.000 C 
ENDROOT
TORSDOF 0
