REMARK  Name = =
REMARK  1 active torsions:
REMARK  status: ('A' for Active; 'I' for Inactive)
REMARK    1  A    between atoms: C_1  and  C_12
REMARK                            x       y       z     vdW  Elec       q    Type
REMARK                         _______ _______ _______ _____ _____    ______ ____
ROOT
ATOM      1  C   UNL     1      51.970 155.488  27.753  0.00  0.00    -0.002 C 
ATOM      2  C   UNL     1      52.662 156.389  26.979  0.00  0.00    +0.019 C 
ATOM      3  C   UNL     1      53.509 155.912  25.992  0.00  0.00    +0.117 C 
ATOM      4  C   UNL     1      53.684 154.568  25.757  0.00  0.00    +0.180 C 
ATOM      5  N   UNL     1      52.991 153.709  26.532  0.00  0.00    -0.224 NA
ATOM      6  C   UNL     1      52.154 154.147  27.506  0.00  0.00    +0.096 C 
ATOM      7  N   UNL     1      54.518 154.119  24.786  0.00  0.00    -0.222 NA
ATOM      8  C   UNL     1      55.194 154.998  24.030  0.00  0.00    +0.121 C 
ATOM      9  C   UNL     1      55.020 156.351  24.265  0.00  0.00    +0.120 C 
ATOM     10  N   UNL     1      54.195 156.792  25.226  0.00  0.00    -0.239 NA
ENDROOT
BRANCH   1  12
ATOM     11  C   UNL     1      50.971 156.978  29.543  0.00  0.00    +0.004 C 
ATOM     12  C   UNL     1      51.040 155.901  28.832  0.00  0.00    +0.024 C 
ATOM     13  C   UNL     1      49.906 155.292  29.482  0.00  0.00    +0.004 C 
ATOM     14  C   UNL     1      49.825 156.518  30.291  0.00  0.00    +0.001 C 
ENDBRANCH   1  12
TORSDOF 1
REMARK  Name = =
REMARK  1 active torsions:
REMARK  status: ('A' for Active; 'I' for Inactive)
REMARK    1  A    between atoms: C_1  and  C_12
REMARK                            x       y       z     vdW  Elec       q    Type
REMARK                         _______ _______ _______ _____ _____    ______ ____
ROOT
ATOM      1  I   UNL     1      52.189 158.729  29.510  0.00  0.00    -0.107 I 
ATOM      2  H   UNL     1      53.750 158.729  29.510  0.00  0.00    +0.107 HD
ENDROOT
TORSDOF 0
REMARK  Name = =
REMARK  1 active torsions:
REMARK  status: ('A' for Active; 'I' for Inactive)
REMARK    1  A    between atoms: C_1  and  C_12
REMARK                            x       y       z     vdW  Elec       q    Type
REMARK                         _______ _______ _______ _____ _____    ______ ____
ROOT
ATOM      1  C   UNL     1      51.197 160.013  30.854  0.00  0.00    +0.000 C 
ATOM      2  C   UNL     1      49.929 160.365  30.688  0.00  0.00    +0.000 C 
ENDROOT
TORSDOF 0
