REMARK  Name = =
REMARK  1 active torsions:
REMARK  status: ('A' for Active; 'I' for Inactive)
REMARK    1  A    between atoms: C_16  and  N_18
REMARK                            x       y       z     vdW  Elec       q    Type
REMARK                         _______ _______ _______ _____ _____    ______ ____
ROOT
ATOM      1  C   UNL     1      50.684 156.849  29.630  0.00  0.00    +0.022 C 
ATOM      2  C   UNL     1      51.081 155.693  29.232  0.00  0.00    -0.046 C 
ATOM      3  C   UNL     1      50.400 154.997  30.319  0.00  0.00    +0.022 C 
ATOM      4  C   UNL     1      49.989 156.325  30.780  0.00  0.00    +0.009 C 
ATOM      5  C   UNL     1      51.896 155.275  28.080  0.00  0.00    -0.004 C 
ATOM      6  C   UNL     1      51.967 153.956  27.742  0.00  0.00    +0.019 C 
ATOM      7  C   UNL     1      52.720 153.603  26.615  0.00  0.00    +0.116 C 
ATOM      8  C   UNL     1      53.382 154.555  25.852  0.00  0.00    +0.176 C 
ATOM      9  N   UNL     1      53.274 155.840  26.239  0.00  0.00    -0.247 NA
ATOM     10  C   UNL     1      52.543 156.217  27.340  0.00  0.00    +0.153 C 
ATOM     11  N   UNL     1      54.107 154.215  24.763  0.00  0.00    -0.222 NA
ATOM     12  C   UNL     1      54.210 152.929  24.380  0.00  0.00    +0.121 C 
ATOM     13  C   UNL     1      53.549 151.975  25.140  0.00  0.00    +0.120 C 
ATOM     14  N   UNL     1      52.829 152.319  26.223  0.00  0.00    -0.239 NA
ENDROOT
TORSDOF 0
REMARK  Name = =
REMARK  1 active torsions:
REMARK  status: ('A' for Active; 'I' for Inactive)
REMARK    1  A    between atoms: C_16  and  N_18
REMARK                            x       y       z     vdW  Elec       q    Type
REMARK                         _______ _______ _______ _____ _____    ______ ____
ROOT
ATOM      1  I   UNL     1      51.005 158.800  28.817  0.00  0.00    -0.107 I 
ATOM      2  H   UNL     1      52.566 158.800  28.817  0.00  0.00    +0.107 HD
ENDROOT
TORSDOF 0
REMARK  Name = =
REMARK  1 active torsions:
REMARK  status: ('A' for Active; 'I' for Inactive)
REMARK    1  A    between atoms: C_16  and  N_18
REMARK                            x       y       z     vdW  Elec       q    Type
REMARK                         _______ _______ _______ _____ _____    ______ ____
ROOT
ATOM      1  N   UNL     1      49.679 160.257  31.235  0.00  0.00    -0.307 N 
ATOM      2  C   UNL     1      48.490 159.455  31.208  0.00  0.00    +0.091 C 
ATOM      3  C   UNL     1      47.559 160.120  32.193  0.00  0.00    +0.023 C 
ATOM      4  C   UNL     1      48.003 161.565  32.130  0.00  0.00    +0.023 C 
ATOM      5  C   UNL     1      49.503 161.426  32.086  0.00  0.00    +0.091 C 
ENDROOT
BRANCH   1   6
ATOM      6  C   UNL     1      50.894 159.997  30.551  0.00  0.00    +0.061 C 
ATOM      7  C   UNL     1      52.029 160.507  30.988  0.00  0.00    +0.017 C 
ENDBRANCH   1   6
TORSDOF 1
