REMARK  Name = =
REMARK  8 active torsions:
REMARK  status: ('A' for Active; 'I' for Inactive)
REMARK    1  A    between atoms: C_1  and  C_12
REMARK    2  A    between atoms: C_1  and  C_41
REMARK    3  A    between atoms: C_9  and  N_29
REMARK    4  A    between atoms: C_15  and  C_24
REMARK    5  A    between atoms: C_31  and  C_38
REMARK    6  A    between atoms: C_33  and  C_35
REMARK    7  A    between atoms: C_35  and  O_37
REMARK    8  A    between atoms: C_38  and  O_40
REMARK                            x       y       z     vdW  Elec       q    Type
REMARK                         _______ _______ _______ _____ _____    ______ ____
ROOT
ATOM      1  C   UNL     1     -11.767 -43.390  28.344  0.00  0.00    +0.137 C 
ATOM      2  C   UNL     1     -13.085 -42.952  27.825  0.00  0.00    +0.020 C 
ATOM      3  C   UNL     1     -14.058 -43.977  27.402  0.00  0.00    +0.021 C 
ATOM      4  C   UNL     1     -13.508 -45.338  27.321  0.00  0.00    +0.004 C 
ATOM      5  C   UNL     1     -12.095 -45.318  26.763  0.00  0.00    +0.001 C 
ATOM      6  C   UNL     1     -11.163 -44.586  27.714  0.00  0.00    +0.017 C 
ATOM      7  C   UNL     1     -14.851 -43.480  26.271  0.00  0.00    -0.027 C 
ATOM      8  C   UNL     1     -14.969 -44.111  25.149  0.00  0.00    -0.008 C 
ATOM      9  C   UNL     1     -15.502 -42.160  26.482  0.00  0.00    +0.092 C 
ATOM     10  C   UNL     1     -14.337 -41.182  26.498  0.00  0.00    +0.024 C 
ATOM     11  C   UNL     1     -13.245 -41.570  27.415  0.00  0.00    +0.003 C 
ENDROOT
BRANCH   1  12
ATOM     12  C   UNL     1     -11.862 -43.598  29.813  0.00  0.00    +0.233 C 
ATOM     13  O   UNL     1     -13.064 -43.613  30.283  0.00  0.00    -0.274 OA
ATOM     14  N   UNL     1     -10.812 -43.771  30.715  0.00  0.00    -0.276 N 
ATOM     15  C   UNL     1      -9.382 -43.819  30.414  0.00  0.00    +0.080 C 
ATOM     16  C   UNL     1      -8.694 -42.634  31.018  0.00  0.00    +0.046 C 
ATOM     17  C   UNL     1      -9.096 -42.472  32.431  0.00  0.00    -0.023 C 
ATOM     18  C   UNL     1     -10.218 -43.043  32.936  0.00  0.00    -0.006 C 
ATOM     19  C   UNL     1     -10.604 -42.889  34.276  0.00  0.00    -0.003 C 
ATOM     20  C   UNL     1      -9.830 -42.133  35.126  0.00  0.00    -0.000 C 
ATOM     21  C   UNL     1      -8.685 -41.550  34.609  0.00  0.00    -0.000 C 
ATOM     22  C   UNL     1      -8.315 -41.706  33.301  0.00  0.00    -0.004 C 
ATOM     23  C   UNL     1     -11.169 -43.874  32.150  0.00  0.00    +0.120 C 
BRANCH  15  24
ATOM     24  C   UNL     1      -8.782 -45.065  31.006  0.00  0.00    +0.019 C 
ATOM     25  C   UNL     1      -7.622 -45.082  31.639  0.00  0.00    +0.002 C 
ATOM     26  C   UNL     1      -7.311 -46.462  32.104  0.00  0.00    +0.000 C 
ATOM     27  C   UNL     1      -8.128 -47.313  31.188  0.00  0.00    +0.000 C 
ATOM     28  C   UNL     1      -9.371 -46.439  30.980  0.00  0.00    +0.002 C 
ENDBRANCH  15  24
ENDBRANCH   1  12
BRANCH   9  29
ATOM     29  N   UNL     1     -16.409 -41.869  25.414  0.00  0.00    -0.300 N 
ATOM     30  C   UNL     1     -17.778 -42.250  25.503  0.00  0.00    +0.124 C 
ATOM     31  C   UNL     1     -18.647 -41.997  24.549  0.00  0.00    +0.073 C 
ATOM     32  C   UNL     1     -18.300 -41.307  23.318  0.00  0.00    +0.012 C 
ATOM     33  C   UNL     1     -16.885 -40.917  23.238  0.00  0.00    +0.090 C 
ATOM     34  C   UNL     1     -16.053 -41.191  24.216  0.00  0.00    +0.068 C 
BRANCH  33  35
ATOM     35  C   UNL     1     -16.403 -40.202  22.022  0.00  0.00    +0.339 C 
ATOM     36  O   UNL     1     -17.156 -39.568  21.272  0.00  0.00    -0.245 OA
BRANCH  35  37
ATOM     37  O   UNL     1     -15.059 -40.266  21.743  0.00  0.00    -0.477 OA
ATOM     38  H   UNL     1     -14.485 -40.745  22.308  0.00  0.00    +0.295 HD
ENDBRANCH  35  37
ENDBRANCH  33  35
BRANCH  31  39
ATOM     39  C   UNL     1     -20.065 -42.424  24.701  0.00  0.00    +0.336 C 
ATOM     40  O   UNL     1     -20.897 -42.184  23.801  0.00  0.00    -0.245 OA
BRANCH  39  41
ATOM     41  O   UNL     1     -20.411 -43.088  25.869  0.00  0.00    -0.477 OA
ATOM     42  H   UNL     1     -19.762 -43.252  26.524  0.00  0.00    +0.295 HD
ENDBRANCH  39  41
ENDBRANCH  31  39
ENDBRANCH   9  29
BRANCH   1  43
ATOM     43  C   UNL     1     -10.846 -42.222  28.149  0.00  0.00    +0.227 C 
ATOM     44  O   UNL     1      -9.963 -42.281  27.255  0.00  0.00    -0.275 OA
ATOM     45  N   UNL     1     -10.937 -41.041  28.938  0.00  0.00    -0.328 N 
ATOM     46  H   UNL     1     -11.620 -40.972  29.644  0.00  0.00    +0.145 HD
ATOM     47  H   UNL     1     -10.317 -40.293  28.778  0.00  0.00    +0.145 HD
ENDBRANCH   1  43
TORSDOF 8
