REMARK  Name = =
REMARK  1 active torsions:
REMARK  status: ('A' for Active; 'I' for Inactive)
REMARK    1  A    between atoms: C_2  and  C_3
REMARK                            x       y       z     vdW  Elec       q    Type
REMARK                         _______ _______ _______ _____ _____    ______ ____
ROOT
ATOM      1  C   UNL     1      51.734 155.449  28.581  0.00  0.00    +0.003 C 
ATOM      2  C   UNL     1      52.692 155.801  27.742  0.00  0.00    +0.045 C 
ENDROOT
BRANCH   2   3
ATOM      3  C   UNL     1      52.792 155.202  26.438  0.00  0.00    +0.234 C 
ATOM      4  O   UNL     1      52.061 154.229  26.165  0.00  0.00    -0.283 OA
ENDBRANCH   2   3
TORSDOF 1
