REMARK  Name = =
REMARK  2 active torsions:
REMARK  status: ('A' for Active; 'I' for Inactive)
REMARK    1  A    between atoms: C_1  and  C_8
REMARK    2  A    between atoms: C_9  and  C_10
REMARK                            x       y       z     vdW  Elec       q    Type
REMARK                         _______ _______ _______ _____ _____    ______ ____
ROOT
ATOM      1  C   UNL     1      51.183 156.230  29.247  0.00  0.00    +0.002 C 
ATOM      2  C   UNL     1      52.047 157.290  29.300  0.00  0.00    +0.030 C 
ATOM      3  C   UNL     1      51.582 158.500  29.836  0.00  0.00    +0.140 C 
ATOM      4  C   UNL     1      50.296 158.639  30.302  0.00  0.00    +0.030 C 
ATOM      5  C   UNL     1      49.443 157.559  30.239  0.00  0.00    +0.002 C 
ATOM      6  C   UNL     1      49.886 156.367  29.716  0.00  0.00    +0.000 C 
ATOM      7  F   UNL     1      52.419 159.553  29.895  0.00  0.00    -0.204 F 
ENDROOT
BRANCH   1   8
ATOM      8  C   UNL     1      51.585 154.960  28.713  0.00  0.00    +0.003 C 
ATOM      9  C   UNL     1      52.698 154.777  28.055  0.00  0.00    +0.045 C 
BRANCH   9  10
ATOM     10  C   UNL     1      53.086 153.462  27.518  0.00  0.00    +0.234 C 
ATOM     11  O   UNL     1      52.316 152.486  27.704  0.00  0.00    -0.283 OA
ENDBRANCH   9  10
ENDBRANCH   1   8
TORSDOF 2
