REMARK  Name = =
REMARK  5 active torsions:
REMARK  status: ('A' for Active; 'I' for Inactive)
REMARK    1  A    between atoms: C_1  and  C_13
REMARK    2  A    between atoms: O_9  and  N_10
REMARK    3  A    between atoms: C_13  and  S_17
REMARK    4  A    between atoms: C_14  and  C_15
REMARK    5  A    between atoms: S_17  and  C_18
REMARK                            x       y       z     vdW  Elec       q    Type
REMARK                         _______ _______ _______ _____ _____    ______ ____
ROOT
ATOM      1  C   UNL     1      51.811 155.530  27.825  0.00  0.00    +0.008 C 
ATOM      2  C   UNL     1      51.910 156.514  28.769  0.00  0.00    +0.030 C 
ATOM      3  C   UNL     1      50.884 156.585  29.692  0.00  0.00    +0.140 C 
ATOM      4  C   UNL     1      49.791 155.726  29.692  0.00  0.00    +0.030 C 
ATOM      5  C   UNL     1      49.721 154.761  28.736  0.00  0.00    +0.002 C 
ATOM      6  C   UNL     1      50.705 154.649  27.807  0.00  0.00    +0.001 C 
ATOM      7  F   UNL     1      50.849 157.510  30.705  0.00  0.00    -0.204 F 
ENDROOT
BRANCH   1   8
ATOM      8  C   UNL     1      52.848 155.117  26.884  0.00  0.00    +0.036 C 
ATOM      9  C   UNL     1      53.368 155.967  26.052  0.00  0.00    +0.052 C 
BRANCH   9  10
ATOM     10  C   UNL     1      54.307 155.495  25.042  0.00  0.00    +0.235 C 
ATOM     11  O   UNL     1      54.879 156.264  24.238  0.00  0.00    -0.283 OA
ENDBRANCH   9  10
BRANCH   8  12
ATOM     12  S   UNL     1      53.322 153.385  26.763  0.00  0.00    -0.042 S 
BRANCH  12  13
ATOM     13  C   UNL     1      52.831 152.485  28.221  0.00  0.00    +0.271 C 
ATOM     14  O   UNL     1      51.792 151.827  28.142  0.00  0.00    -0.275 OA
ENDBRANCH  12  13
ENDBRANCH   8  12
ENDBRANCH   1   8
TORSDOF 4
REMARK  Name = =
REMARK  5 active torsions:
REMARK  status: ('A' for Active; 'I' for Inactive)
REMARK    1  A    between atoms: C_1  and  C_13
REMARK    2  A    between atoms: O_9  and  N_10
REMARK    3  A    between atoms: C_13  and  S_17
REMARK    4  A    between atoms: C_14  and  C_15
REMARK    5  A    between atoms: S_17  and  C_18
REMARK                            x       y       z     vdW  Elec       q    Type
REMARK                         _______ _______ _______ _____ _____    ______ ____
ROOT
ATOM      1  P   UNL     1      53.159 157.714  28.792  0.00  0.00    +0.000 P 
ENDROOT
TORSDOF 0
REMARK  Name = =
REMARK  5 active torsions:
REMARK  status: ('A' for Active; 'I' for Inactive)
REMARK    1  A    between atoms: C_1  and  C_13
REMARK    2  A    between atoms: O_9  and  N_10
REMARK    3  A    between atoms: C_13  and  S_17
REMARK    4  A    between atoms: C_14  and  C_15
REMARK    5  A    between atoms: S_17  and  C_18
REMARK                            x       y       z     vdW  Elec       q    Type
REMARK                         _______ _______ _______ _____ _____    ______ ____
ROOT
ATOM      1  N   UNL     1      52.574 159.194  29.639  0.00  0.00    -0.218 NA
ATOM      2  H   UNL     1      53.447 158.739  29.906  0.00  0.00    +0.150 HD
ATOM      3  H   UNL     1      51.874 159.038  30.364  0.00  0.00    +0.150 HD
ENDROOT
BRANCH   1   4
ATOM      4  O   UNL     1      52.023 158.544  28.172  0.00  0.00    -0.318 OA
ATOM      5  H   UNL     1      51.193 158.976  27.918  0.00  0.00    +0.236 HD
ENDBRANCH   1   4
TORSDOF 1
REMARK  Name = =
REMARK  5 active torsions:
REMARK  status: ('A' for Active; 'I' for Inactive)
REMARK    1  A    between atoms: C_1  and  C_13
REMARK    2  A    between atoms: O_9  and  N_10
REMARK    3  A    between atoms: C_13  and  S_17
REMARK    4  A    between atoms: C_14  and  C_15
REMARK    5  A    between atoms: S_17  and  C_18
REMARK                            x       y       z     vdW  Elec       q    Type
REMARK                         _______ _______ _______ _____ _____    ______ ____
ROOT
ATOM      1  O   HOH     1      54.281 157.054  29.900  0.00  0.00    -0.253 OA
ATOM      2  H   HOH     0      55.251 157.054  29.900  0.00  0.00    +0.253 HD
ENDROOT
TORSDOF 0
REMARK  Name = =
REMARK  5 active torsions:
REMARK  status: ('A' for Active; 'I' for Inactive)
REMARK    1  A    between atoms: C_1  and  C_13
REMARK    2  A    between atoms: O_9  and  N_10
REMARK    3  A    between atoms: C_13  and  S_17
REMARK    4  A    between atoms: C_14  and  C_15
REMARK    5  A    between atoms: S_17  and  C_18
REMARK                            x       y       z     vdW  Elec       q    Type
REMARK                         _______ _______ _______ _____ _____    ______ ____
ROOT
ATOM      1  O   HOH     1      54.156 157.953  27.537  0.00  0.00    -0.253 OA
ATOM      2  H   HOH     0      55.126 157.953  27.537  0.00  0.00    +0.253 HD
ENDROOT
TORSDOF 0
