REMARK  Name = =
REMARK  10 active torsions:
REMARK  status: ('A' for Active; 'I' for Inactive)
REMARK    1  A    between atoms: C_1  and  C_8
REMARK    2  A    between atoms: C_2  and  P_15
REMARK    3  A    between atoms: C_8  and  S_12
REMARK    4  A    between atoms: C_9  and  C_10
REMARK    5  A    between atoms: S_12  and  C_13
REMARK    6  A    between atoms: P_15  and  N_17
REMARK    7  A    between atoms: P_15  and  C_18
REMARK    8  A    between atoms: O_16  and  O_22
REMARK    9  A    between atoms: O_16  and  O_23
REMARK   10  A    between atoms: C_18  and  C_20
REMARK                            x       y       z     vdW  Elec       q    Type
REMARK                         _______ _______ _______ _____ _____    ______ ____
ROOT
ATOM      1  C   UNL     1      54.047 153.887  25.643  0.00  0.00    +0.010 C 
ATOM      2  C   UNL     1      53.443 154.815  26.413  0.00  0.00    +0.043 C 
ATOM      3  C   UNL     1      53.374 156.132  26.047  0.00  0.00    +0.142 C 
ATOM      4  C   UNL     1      53.924 156.523  24.875  0.00  0.00    +0.030 C 
ATOM      5  C   UNL     1      54.557 155.636  24.031  0.00  0.00    +0.002 C 
ATOM      6  C   UNL     1      54.611 154.333  24.425  0.00  0.00    +0.001 C 
ATOM      7  F   UNL     1      52.779 157.115  26.793  0.00  0.00    -0.204 F 
ENDROOT
BRANCH   1   8
ATOM      8  C   UNL     1      54.341 152.523  25.943  0.00  0.00    +0.036 C 
ATOM      9  C   UNL     1      55.610 152.179  26.175  0.00  0.00    +0.052 C 
BRANCH   9  10
ATOM     10  C   UNL     1      56.789 152.944  25.948  0.00  0.00    +0.235 C 
ATOM     11  O   UNL     1      56.904 153.901  25.149  0.00  0.00    -0.283 OA
ENDBRANCH   9  10
BRANCH   8  12
ATOM     12  S   UNL     1      53.160 151.266  26.354  0.00  0.00    -0.042 S 
BRANCH  12  13
ATOM     13  C   UNL     1      51.556 151.676  25.738  0.00  0.00    +0.271 C 
ATOM     14  O   UNL     1      51.371 152.808  25.303  0.00  0.00    -0.275 OA
ENDBRANCH  12  13
ENDBRANCH   8  12
ENDBRANCH   1   8
BRANCH   2  15
ATOM     15  P   UNL     1      52.683 154.446  27.948  0.00  0.00    +0.074 P 
BRANCH  15  16
ATOM     16  N   UNL     1      51.132 154.475  27.184  0.00  0.00    -0.300 NA
ATOM     17  H   UNL     1      51.003 153.620  26.644  0.00  0.00    +0.124 HD
ATOM     18  H   UNL     1      51.074 155.282  26.563  0.00  0.00    +0.124 HD
ENDBRANCH  15  16
BRANCH  15  19
ATOM     19  C   UNL     1      52.612 156.021  28.788  0.00  0.00    +0.246 C 
ATOM     20  O   UNL     1      53.509 156.887  28.911  0.00  0.00    -0.282 OA
BRANCH  19  21
ATOM     21  C   UNL     1      51.374 156.461  29.457  0.00  0.00    +0.277 C 
ATOM     22  O   UNL     1      50.359 155.706  29.579  0.00  0.00    -0.279 OA
ENDBRANCH  19  21
ENDBRANCH  15  19
ENDBRANCH   2  15
TORSDOF 8
REMARK  Name = =
REMARK  10 active torsions:
REMARK  status: ('A' for Active; 'I' for Inactive)
REMARK    1  A    between atoms: C_1  and  C_8
REMARK    2  A    between atoms: C_2  and  P_15
REMARK    3  A    between atoms: C_8  and  S_12
REMARK    4  A    between atoms: C_9  and  C_10
REMARK    5  A    between atoms: S_12  and  C_13
REMARK    6  A    between atoms: P_15  and  N_17
REMARK    7  A    between atoms: P_15  and  C_18
REMARK    8  A    between atoms: O_16  and  O_22
REMARK    9  A    between atoms: O_16  and  O_23
REMARK   10  A    between atoms: C_18  and  C_20
REMARK                            x       y       z     vdW  Elec       q    Type
REMARK                         _______ _______ _______ _____ _____    ______ ____
ROOT
ATOM      1  O   UNL     1      53.188 154.321  29.321  0.00  0.00    -0.072 OA
ENDROOT
BRANCH   1   2
ATOM      2  O   UNL     1      52.356 153.204  28.972  0.00  0.00    -0.220 OA
ATOM      3  H   UNL     1      51.489 153.302  29.395  0.00  0.00    +0.256 HD
ENDBRANCH   1   2
BRANCH   1   4
ATOM      4  O   UNL     1      53.948 153.469  28.472  0.00  0.00    -0.220 OA
ATOM      5  H   UNL     1      54.831 153.848  28.340  0.00  0.00    +0.256 HD
ENDBRANCH   1   4
TORSDOF 2
