REMARK  Name = =
REMARK  15 active torsions:
REMARK  status: ('A' for Active; 'I' for Inactive)
REMARK    1  A    between atoms: C_1  and  C_8
REMARK    2  A    between atoms: C_2  and  P_24
REMARK    3  A    between atoms: C_8  and  S_12
REMARK    4  A    between atoms: C_9  and  C_10
REMARK    5  A    between atoms: S_12  and  C_14
REMARK    6  A    between atoms: S_12  and  N_16
REMARK    7  A    between atoms: N_16  and  C_17
REMARK    8  A    between atoms: C_17  and  S_19
REMARK    9  A    between atoms: S_19  and  S_20
REMARK   10  A    between atoms: S_20  and  C_21
REMARK   11  A    between atoms: C_21  and  N_23
REMARK   12  A    between atoms: P_24  and  N_26
REMARK   13  A    between atoms: P_24  and  C_29
REMARK   14  A    between atoms: O_27  and  O_28
REMARK   15  A    between atoms: C_29  and  C_31
REMARK                            x       y       z     vdW  Elec       q    Type
REMARK                         _______ _______ _______ _____ _____    ______ ____
ROOT
ATOM      1  C   UNL     1      52.454 155.378  28.342  0.00  0.00    +0.043 C 
ATOM      2  C   UNL     1      52.453 154.172  28.826  0.00  0.00    +0.053 C 
ENDROOT
BRANCH   1   3
ATOM      3  C   UNL     1      53.179 155.750  27.137  0.00  0.00    +0.010 C 
ATOM      4  C   UNL     1      53.631 154.907  26.196  0.00  0.00    +0.043 C 
ATOM      5  C   UNL     1      54.404 155.479  25.175  0.00  0.00    +0.141 C 
ATOM      6  C   UNL     1      54.689 156.841  25.128  0.00  0.00    +0.030 C 
ATOM      7  C   UNL     1      54.211 157.672  26.099  0.00  0.00    +0.002 C 
ATOM      8  C   UNL     1      53.460 157.131  27.097  0.00  0.00    +0.001 C 
ATOM      9  F   UNL     1      54.905 154.815  24.122  0.00  0.00    -0.204 F 
BRANCH   4  10
ATOM     10  P   UNL     1      53.178 153.262  25.934  0.00  0.00    +0.103 P 
BRANCH  10  12
ATOM     11  O   UNL     1      54.206 153.278  27.002  0.00  0.00    -0.261 OA
ATOM     12  C   UNL     1      54.421 152.116  25.577  0.00  0.00    +0.432 C 
ATOM     13  O   UNL     1      54.071 150.852  25.504  0.00  0.00    -0.261 OA
BRANCH  12  14
ATOM     14  C   UNL     1      55.830 152.201  25.323  0.00  0.00    +0.303 C 
ATOM     15  O   UNL     1      56.502 153.259  25.432  0.00  0.00    -0.280 OA
ENDBRANCH  12  14
ENDBRANCH  10  12
BRANCH  10  16
ATOM     16  N   UNL     1      52.173 152.375  26.889  0.00  0.00    -0.299 NA
ATOM     17  H   UNL     1      52.078 151.436  26.503  0.00  0.00    +0.123 HD
ATOM     18  H   UNL     1      51.257 152.822  26.925  0.00  0.00    +0.123 HD
ENDBRANCH  10  16
ENDBRANCH   4  10
ENDBRANCH   1   3
BRANCH   2  19
ATOM     19  C   UNL     1      51.557 153.652  29.869  0.00  0.00    +0.235 C 
ATOM     20  O   UNL     1      51.402 152.390  29.962  0.00  0.00    -0.283 OA
ENDBRANCH   2  19
BRANCH   1  21
ATOM     21  S   UNL     1      51.375 156.568  28.911  0.00  0.00    -0.018 S 
BRANCH  21  22
ATOM     22  C   UNL     1      49.929 156.057  29.448  0.00  0.00    +0.278 C 
ATOM     23  O   UNL     1      49.167 155.327  28.793  0.00  0.00    -0.275 OA
ENDBRANCH  21  22
BRANCH  21  24
ATOM     24  N   UNL     1      51.980 157.899  29.517  0.00  0.00    -0.276 N 
ATOM     25  H   UNL     1      52.956 158.030  29.507  0.00  0.00    +0.161 HD
BRANCH  24  26
ATOM     26  C   UNL     1      51.153 158.908  30.074  0.00  0.00    +0.127 C 
ATOM     27  S   UNL     1      51.782 160.308  30.578  0.00  0.00    -0.027 S 
BRANCH  26  28
ATOM     28  S   UNL     1      49.407 158.617  30.213  0.00  0.00    -0.027 S 
BRANCH  28  29
ATOM     29  S   UNL     1      48.640 159.216  32.085  0.00  0.00    -0.028 S 
BRANCH  29  30
ATOM     30  C   UNL     1      48.840 160.969  32.271  0.00  0.00    +0.115 C 
ATOM     31  S   UNL     1      48.858 161.640  33.734  0.00  0.00    -0.028 S 
BRANCH  30  32
ATOM     32  N   UNL     1      48.985 161.778  31.122  0.00  0.00    -0.346 N 
ATOM     33  H   UNL     1      48.974 161.368  30.227  0.00  0.00    +0.143 HD
ATOM     34  H   UNL     1      49.097 162.752  31.216  0.00  0.00    +0.143 HD
ENDBRANCH  30  32
ENDBRANCH  29  30
ENDBRANCH  28  29
ENDBRANCH  26  28
ENDBRANCH  24  26
ENDBRANCH  21  24
ENDBRANCH   1  21
TORSDOF 14
REMARK  Name = =
REMARK  15 active torsions:
REMARK  status: ('A' for Active; 'I' for Inactive)
REMARK    1  A    between atoms: C_1  and  C_8
REMARK    2  A    between atoms: C_2  and  P_24
REMARK    3  A    between atoms: C_8  and  S_12
REMARK    4  A    between atoms: C_9  and  C_10
REMARK    5  A    between atoms: S_12  and  C_14
REMARK    6  A    between atoms: S_12  and  N_16
REMARK    7  A    between atoms: N_16  and  C_17
REMARK    8  A    between atoms: C_17  and  S_19
REMARK    9  A    between atoms: S_19  and  S_20
REMARK   10  A    between atoms: S_20  and  C_21
REMARK   11  A    between atoms: C_21  and  N_23
REMARK   12  A    between atoms: P_24  and  N_26
REMARK   13  A    between atoms: P_24  and  C_29
REMARK   14  A    between atoms: O_27  and  O_28
REMARK   15  A    between atoms: C_29  and  C_31
REMARK                            x       y       z     vdW  Elec       q    Type
REMARK                         _______ _______ _______ _____ _____    ______ ____
ROOT
ATOM      1  H   UNK     1      52.083 155.875  30.920  0.00  0.00    +0.000 HD
ENDROOT
TORSDOF 0
REMARK  Name = =
REMARK  15 active torsions:
REMARK  status: ('A' for Active; 'I' for Inactive)
REMARK    1  A    between atoms: C_1  and  C_8
REMARK    2  A    between atoms: C_2  and  P_24
REMARK    3  A    between atoms: C_8  and  S_12
REMARK    4  A    between atoms: C_9  and  C_10
REMARK    5  A    between atoms: S_12  and  C_14
REMARK    6  A    between atoms: S_12  and  N_16
REMARK    7  A    between atoms: N_16  and  C_17
REMARK    8  A    between atoms: C_17  and  S_19
REMARK    9  A    between atoms: S_19  and  S_20
REMARK   10  A    between atoms: S_20  and  C_21
REMARK   11  A    between atoms: C_21  and  N_23
REMARK   12  A    between atoms: P_24  and  N_26
REMARK   13  A    between atoms: P_24  and  C_29
REMARK   14  A    between atoms: O_27  and  O_28
REMARK   15  A    between atoms: C_29  and  C_31
REMARK                            x       y       z     vdW  Elec       q    Type
REMARK                         _______ _______ _______ _____ _____    ______ ____
ROOT
ATOM      1  O   UNL     1      51.617 153.280  25.228  0.00  0.00    -0.253 OA
ATOM      2  H   UNL     1      51.946 153.693  26.042  0.00  0.00    +0.253 HD
ENDROOT
BRANCH   1   3
ATOM      3  O   UNL     1      52.915 152.896  24.230  0.00  0.00    -0.253 OA
ATOM      4  H   UNL     1      52.586 152.483  23.416  0.00  0.00    +0.253 HD
ENDBRANCH   1   3
TORSDOF 1
