MODEL 1
REMARK VINA RESULT:   -10.552      0.000      0.000
REMARK INTER + INTRA:         -14.175
REMARK INTER:                 -13.945
REMARK INTRA:                  -0.230
REMARK UNBOUND:                -0.230
REMARK  Name = =
REMARK  6 active torsions:
REMARK  status: ('A' for Active; 'I' for Inactive)
REMARK    1  A    between atoms: N_1  and  C_12
REMARK    2  A    between atoms: C_5  and  N_25
REMARK    3  A    between atoms: C_18  and  N_24
REMARK    4  A    between atoms: C_27  and  C_30
REMARK    5  A    between atoms: C_37  and  C_39
REMARK    6  A    between atoms: C_39  and  C_41
REMARK                            x       y       z     vdW  Elec       q    Type
REMARK                         _______ _______ _______ _____ _____    ______ ____
ROOT
ATOM      1  N   UNL     1      -2.507  -5.866  30.008  0.00  0.00    -0.212 NA
ATOM      2  C   UNL     1      -2.023  -7.226  29.942  0.00  0.00    +0.104 C 
ATOM      3  C   UNL     1      -2.319  -7.737  31.312  0.00  0.00    -0.007 C 
ATOM      4  C   UNL     1      -3.353  -6.988  31.819  0.00  0.00    +0.009 C 
ATOM      5  C   UNL     1      -3.702  -5.989  30.775  0.00  0.00    +0.165 C 
ATOM      6  C   UNL     1      -3.876  -7.213  33.074  0.00  0.00    -0.002 C 
ATOM      7  C   UNL     1      -3.326  -8.228  33.824  0.00  0.00    -0.000 C 
ATOM      8  C   UNL     1      -2.283  -8.995  33.331  0.00  0.00    -0.000 C 
ATOM      9  C   UNL     1      -1.772  -8.757  32.075  0.00  0.00    -0.003 C 
ENDROOT
BRANCH   1  12
ATOM     10  C   UNL     1       0.091  -4.069  29.249  0.00  0.00    +0.161 C 
ATOM     11  N   UNL     1      -1.159  -4.022  29.606  0.00  0.00    -0.216 NA
ATOM     12  C   UNL     1      -1.472  -5.060  30.568  0.00  0.00    +0.275 C 
ATOM     13  N   UNL     1      -0.223  -5.735  30.732  0.00  0.00    -0.229 NA
ATOM     14  C   UNL     1       0.671  -5.178  29.987  0.00  0.00    +0.131 C 
ATOM     15  N   UNL     1       0.738  -3.197  28.321  0.00  0.00    -0.188 N 
ATOM     16  C   UNL     1       2.104  -3.315  27.981  0.00  0.00    +0.267 C 
ATOM     17  O   UNL     1       2.703  -4.394  28.174  0.00  0.00    -0.271 OA
ATOM     18  C   UNL     1       2.862  -2.160  27.386  0.00  0.00    +0.207 C 
ATOM     19  N   UNL     1       2.077  -0.944  27.456  0.00  0.00    -0.156 NA
ATOM     20  N   UNL     1       2.026  -0.465  28.763  0.00  0.00    -0.035 NA
ATOM     21  C   UNL     1       0.738  -1.112  26.921  0.00  0.00    +0.179 C 
ATOM     22  C   UNL     1      -0.006  -2.163  27.704  0.00  0.00    +0.254 C 
ATOM     23  O   UNL     1      -1.248  -2.155  27.830  0.00  0.00    -0.273 OA
BRANCH  18  24
ATOM     24  N   UNL     1       3.215  -2.397  26.014  0.00  0.00    -0.301 NA
ATOM     25  H   UNL     1       3.096  -1.537  25.479  0.00  0.00    +0.120 HD
ATOM     26  H   UNL     1       2.612  -3.124  25.629  0.00  0.00    +0.120 HD
ENDBRANCH  18  24
ENDBRANCH   1  12
BRANCH   5  27
ATOM     27  N   UNL     1      -4.165  -4.766  31.390  0.00  0.00    -0.269 N 
ATOM     28  C   UNL     1      -5.175  -3.966  30.932  0.00  0.00    +0.067 C 
ATOM     29  C   UNL     1      -5.338  -2.885  31.775  0.00  0.00    +0.016 C 
ATOM     30  C   UNL     1      -4.393  -3.050  32.766  0.00  0.00    +0.017 C 
ATOM     31  C   UNL     1      -3.677  -4.216  32.513  0.00  0.00    +0.067 C 
BRANCH  29  32
ATOM     32  C   UNL     1      -6.289  -1.785  31.680  0.00  0.00    +0.002 C 
ATOM     33  C   UNL     1      -5.925  -0.475  31.476  0.00  0.00    +0.016 C 
ATOM     34  C   UNL     1      -6.882   0.540  31.391  0.00  0.00    +0.059 C 
ATOM     35  N   UNL     1      -6.781   1.949  31.194  0.00  0.00    -0.315 N 
ATOM     36  C   UNL     1      -8.012   2.570  31.703  0.00  0.00    +0.182 C 
ATOM     37  N   UNL     1      -8.953   1.492  31.375  0.00  0.00    -0.315 N 
ATOM     38  C   UNL     1      -8.221   0.255  31.510  0.00  0.00    +0.058 C 
ATOM     39  C   UNL     1      -8.618  -1.057  31.715  0.00  0.00    +0.030 C 
ATOM     40  C   UNL     1      -7.650  -2.052  31.795  0.00  0.00    -0.000 C 
ATOM     41  H   UNL     1      -6.020   2.423  30.787  0.00  0.00    +0.148 HD
ATOM     42  H   UNL     1      -9.897   1.593  31.116  0.00  0.00    +0.148 HD
BRANCH  39  43
ATOM     43  C   UNL     1     -10.031  -1.349  31.846  0.00  0.00    +0.239 C 
ATOM     44  O   UNL     1     -10.798  -0.857  30.932  0.00  0.00    -0.210 OA
BRANCH  43  45
ATOM     45  C   UNL     1     -10.649  -2.129  32.888  0.00  0.00    +0.245 C 
ATOM     46  O   UNL     1     -11.616  -1.766  33.564  0.00  0.00    -0.285 OA
ENDBRANCH  43  45
ENDBRANCH  39  43
ENDBRANCH  29  32
ENDBRANCH   5  27
TORSDOF 6
ENDMDL
