MODEL 1
REMARK VINA RESULT:   -11.358      0.000      0.000
REMARK INTER + INTRA:         -15.667
REMARK INTER:                 -15.010
REMARK INTRA:                  -0.656
REMARK UNBOUND:                -0.656
REMARK  Name = =
REMARK  6 active torsions:
REMARK  status: ('A' for Active; 'I' for Inactive)
REMARK    1  A    between atoms: N_1  and  O_26
REMARK    2  A    between atoms: C_11  and  N_19
REMARK    3  A    between atoms: C_12  and  O_25
REMARK    4  A    between atoms: O_26  and  C_28
REMARK    5  A    between atoms: N_27  and  N_30
REMARK    6  A    between atoms: N_30  and  C_38
REMARK                            x       y       z     vdW  Elec       q    Type
REMARK                         _______ _______ _______ _____ _____    ______ ____
ROOT
ATOM      1  N   UNL     1      -1.455  -7.484  32.622  0.00  0.00    -0.117 NA
ATOM      2  C   UNL     1      -2.054  -7.265  31.304  0.00  0.00    +0.104 C 
ATOM      3  C   UNL     1      -1.519  -5.961  30.829  0.00  0.00    +0.047 C 
ATOM      4  C   UNL     1      -0.062  -6.093  30.597  0.00  0.00    +0.065 C 
ATOM      5  C   UNL     1       0.630  -4.935  29.960  0.00  0.00    +0.174 C 
ATOM      6  O   UNL     1       1.544  -5.545  29.045  0.00  0.00    -0.476 OA
ATOM      7  C   UNL     1       1.058  -6.785  28.677  0.00  0.00    +0.169 C 
ATOM      8  C   UNL     1       0.076  -7.122  29.537  0.00  0.00    +0.014 C 
ATOM      9  C   UNL     1      -0.662  -8.269  29.509  0.00  0.00    -0.020 C 
ATOM     10  C   UNL     1      -0.384  -9.179  28.516  0.00  0.00    +0.014 C 
ATOM     11  C   UNL     1       0.623  -8.896  27.593  0.00  0.00    +0.099 C 
ATOM     12  C   UNL     1       1.338  -7.716  27.666  0.00  0.00    +0.182 C 
ATOM     13  C   UNL     1      -1.725  -8.474  30.485  0.00  0.00    +0.046 C 
ATOM     14  C   UNL     1      -0.242  -3.985  29.226  0.00  0.00    +0.070 C 
ATOM     15  C   UNL     1      -1.596  -4.513  28.899  0.00  0.00    -0.027 C 
ATOM     16  C   UNL     1      -2.199  -5.431  29.636  0.00  0.00    -0.029 C 
ATOM     17  C   UNL     1       0.688  -6.589  31.821  0.00  0.00    +0.029 C 
ATOM     18  C   UNL     1      -0.060  -7.645  32.569  0.00  0.00    +0.114 C 
ENDROOT
BRANCH  11  19
ATOM     19  N   UNL     1       0.974  -9.817  26.559  0.00  0.00    -0.182 N 
ATOM     20  C   UNL     1       0.095 -10.034  25.485  0.00  0.00    +0.311 C 
ATOM     21  O   UNL     1       0.431 -10.846  24.592  0.00  0.00    -0.252 OA
ATOM     22  N   UNL     1      -1.133  -9.362  25.399  0.00  0.00    -0.313 N 
ATOM     23  C   UNL     1       2.240 -10.507  26.652  0.00  0.00    +0.314 C 
ATOM     24  O   UNL     1       2.978 -10.268  27.634  0.00  0.00    -0.264 OA
ATOM     25  H   UNL     1      -1.396  -8.725  26.101  0.00  0.00    +0.147 HD
ATOM     26  H   UNL     1      -1.733  -9.529  24.636  0.00  0.00    +0.147 HD
ENDBRANCH  11  19
BRANCH  12  27
ATOM     27  O   UNL     1       2.338  -7.439  26.743  0.00  0.00    -0.502 OA
ATOM     28  H   UNL     1       3.237  -7.563  26.976  0.00  0.00    +0.292 HD
ENDBRANCH  12  27
BRANCH   1  29
ATOM     29  O   UNL     1      -2.033  -6.793  33.594  0.00  0.00    -0.349 OA
BRANCH  29  31
ATOM     30  N   UNL     1      -3.455  -4.769  33.634  0.00  0.00    -0.199 N 
ATOM     31  C   UNL     1      -3.251  -6.196  33.672  0.00  0.00    +0.436 C 
ATOM     32  O   UNL     1      -4.281  -6.877  33.783  0.00  0.00    -0.223 OA
ATOM     33  H   UNL     1      -2.691  -4.154  33.555  0.00  0.00    +0.176 HD
BRANCH  30  34
ATOM     34  N   UNL     1      -4.765  -4.278  33.711  0.00  0.00    -0.245 N 
ATOM     35  H   UNL     1      -5.419  -4.718  34.300  0.00  0.00    +0.172 HD
BRANCH  34  43
ATOM     36  N   UNL     1      -4.351  -2.543  32.065  0.00  0.00    -0.293 N 
ATOM     37  C   UNL     1      -4.766  -1.474  31.349  0.00  0.00    +0.328 A 
ATOM     38  O   UNL     1      -4.007  -0.904  30.519  0.00  0.00    -0.247 OA
ATOM     39  N   UNL     1      -6.000  -0.972  31.485  0.00  0.00    -0.273 N 
ATOM     40  C   UNL     1      -6.856  -1.537  32.352  0.00  0.00    +0.291 A 
ATOM     41  O   UNL     1      -8.015  -1.077  32.487  0.00  0.00    -0.265 OA
ATOM     42  C   UNL     1      -6.439  -2.629  33.089  0.00  0.00    +0.226 A 
ATOM     43  C   UNL     1      -5.153  -3.149  32.944  0.00  0.00    +0.158 A 
ATOM     44  F   UNL     1      -7.253  -3.246  33.981  0.00  0.00    -0.196 F 
ATOM     45  H   UNL     1      -3.436  -2.882  31.935  0.00  0.00    +0.172 HD
ATOM     46  H   UNL     1      -6.279  -0.193  30.952  0.00  0.00    +0.174 HD
ENDBRANCH  34  43
ENDBRANCH  30  34
ENDBRANCH  29  31
ENDBRANCH   1  29
TORSDOF 6
ENDMDL
