REMARK  Name = =
REMARK  6 active torsions:
REMARK  status: ('A' for Active; 'I' for Inactive)
REMARK    1  A    between atoms: N_1  and  O_26
REMARK    2  A    between atoms: C_11  and  N_19
REMARK    3  A    between atoms: C_12  and  O_25
REMARK    4  A    between atoms: O_26  and  C_28
REMARK    5  A    between atoms: N_27  and  N_30
REMARK    6  A    between atoms: N_30  and  C_38
REMARK                            x       y       z     vdW  Elec       q    Type
REMARK                         _______ _______ _______ _____ _____    ______ ____
ROOT
ATOM      1  N   UNL     1      -4.828  -3.734  31.884  0.00  0.00    -0.117 NA
ATOM      2  C   UNL     1      -5.468  -3.010  32.984  0.00  0.00    +0.104 C 
ATOM      3  C   UNL     1      -5.418  -1.573  32.605  0.00  0.00    +0.047 C 
ATOM      4  C   UNL     1      -6.279  -1.356  31.419  0.00  0.00    +0.065 C 
ATOM      5  C   UNL     1      -6.490   0.055  30.984  0.00  0.00    +0.174 C 
ATOM      6  O   UNL     1      -7.874   0.099  30.627  0.00  0.00    -0.476 OA
ATOM      7  C   UNL     1      -8.555  -0.876  31.331  0.00  0.00    +0.169 C 
ATOM      8  C   UNL     1      -7.648  -1.725  31.855  0.00  0.00    +0.014 C 
ATOM      9  C   UNL     1      -7.918  -2.819  32.625  0.00  0.00    -0.020 C 
ATOM     10  C   UNL     1      -9.238  -3.094  32.896  0.00  0.00    +0.014 C 
ATOM     11  C   UNL     1     -10.230  -2.258  32.382  0.00  0.00    +0.099 C 
ATOM     12  C   UNL     1      -9.900  -1.161  31.610  0.00  0.00    +0.182 C 
ATOM     13  C   UNL     1      -6.824  -3.620  33.158  0.00  0.00    +0.046 C 
ATOM     14  C   UNL     1      -6.211   1.095  32.006  0.00  0.00    +0.070 C 
ATOM     15  C   UNL     1      -6.143   0.587  33.405  0.00  0.00    -0.027 C 
ATOM     16  C   UNL     1      -5.776  -0.651  33.695  0.00  0.00    -0.029 C 
ATOM     17  C   UNL     1      -5.910  -2.253  30.250  0.00  0.00    +0.029 C 
ATOM     18  C   UNL     1      -5.541  -3.637  30.677  0.00  0.00    +0.114 C 
ENDROOT
BRANCH  11  19
ATOM     19  N   UNL     1     -11.617  -2.514  32.607  0.00  0.00    -0.182 N 
ATOM     20  C   UNL     1     -12.135  -2.472  33.912  0.00  0.00    +0.311 C 
ATOM     21  O   UNL     1     -13.356  -2.698  34.078  0.00  0.00    -0.252 OA
ATOM     22  N   UNL     1     -11.317  -2.183  35.014  0.00  0.00    -0.313 N 
ATOM     23  C   UNL     1     -12.456  -2.811  31.469  0.00  0.00    +0.314 C 
ATOM     24  O   UNL     1     -11.933  -2.832  30.332  0.00  0.00    -0.264 OA
ATOM     25  H   UNL     1     -10.358  -2.006  34.882  0.00  0.00    +0.147 HD
ATOM     26  H   UNL     1     -11.702  -2.158  35.920  0.00  0.00    +0.147 HD
ENDBRANCH  11  19
BRANCH  12  27
ATOM     27  O   UNL     1     -10.892  -0.332  31.103  0.00  0.00    -0.502 OA
ATOM     28  H   UNL     1     -10.660   0.410  30.580  0.00  0.00    +0.292 HD
ENDBRANCH  12  27
BRANCH   1  29
ATOM     29  O   UNL     1      -3.504  -3.683  31.909  0.00  0.00    -0.349 OA
BRANCH  29  31
ATOM     30  N   UNL     1      -1.273  -3.355  30.892  0.00  0.00    -0.199 N 
ATOM     31  C   UNL     1      -2.619  -2.937  31.198  0.00  0.00    +0.436 C 
ATOM     32  O   UNL     1      -2.940  -1.822  30.762  0.00  0.00    -0.223 OA
ATOM     33  H   UNL     1      -0.933  -4.224  31.206  0.00  0.00    +0.176 HD
BRANCH  30  34
ATOM     34  N   UNL     1      -0.460  -2.498  30.138  0.00  0.00    -0.245 N 
ATOM     35  H   UNL     1      -0.131  -1.660  30.536  0.00  0.00    +0.172 HD
BRANCH  34  43
ATOM     36  N   UNL     1       0.790  -3.769  28.491  0.00  0.00    -0.293 N 
ATOM     37  C   UNL     1       1.087  -4.061  27.205  0.00  0.00    +0.328 A 
ATOM     38  O   UNL     1       1.936  -4.946  26.912  0.00  0.00    -0.247 OA
ATOM     39  N   UNL     1       0.495  -3.427  26.185  0.00  0.00    -0.273 N 
ATOM     40  C   UNL     1      -0.419  -2.475  26.433  0.00  0.00    +0.291 A 
ATOM     41  O   UNL     1      -0.981  -1.876  25.486  0.00  0.00    -0.265 OA
ATOM     42  C   UNL     1      -0.727  -2.170  27.745  0.00  0.00    +0.226 A 
ATOM     43  C   UNL     1      -0.109  -2.832  28.805  0.00  0.00    +0.158 A 
ATOM     44  F   UNL     1      -1.641  -1.220  28.065  0.00  0.00    -0.196 F 
ATOM     45  H   UNL     1       1.247  -4.258  29.213  0.00  0.00    +0.172 HD
ATOM     46  H   UNL     1       0.729  -3.658  25.257  0.00  0.00    +0.174 HD
ENDBRANCH  34  43
ENDBRANCH  30  34
ENDBRANCH  29  31
ENDBRANCH   1  29
TORSDOF 6
