REMARK  Name = =
REMARK  9 active torsions:
REMARK  status: ('A' for Active; 'I' for Inactive)
REMARK    1  A    between atoms: P_1  and  C_6
REMARK    2  A    between atoms: P_1  and  O_32
REMARK    3  A    between atoms: P_1  and  O_33
REMARK    4  A    between atoms: C_12  and  C_14
REMARK    5  A    between atoms: N_17  and  C_18
REMARK    6  A    between atoms: N_17  and  O_31
REMARK    7  A    between atoms: N_20  and  N_23
REMARK    8  A    between atoms: N_23  and  N_26
REMARK    9  A    between atoms: N_26  and  O_30
REMARK                            x       y       z     vdW  Elec       q    Type
REMARK                         _______ _______ _______ _____ _____    ______ ____
ROOT
ATOM      1  N   UNL     1     -15.814 -42.829  28.273  0.00  0.00    -0.148 NA
ATOM      2  N   UNL     1     -14.668 -43.362  28.655  0.00  0.00    -0.142 NA
ATOM      3  C   UNL     1     -13.742 -43.627  27.757  0.00  0.00    +0.157 C 
ATOM      4  C   UNL     1     -13.949 -43.356  26.434  0.00  0.00    +0.028 C 
ATOM      5  C   UNL     1     -15.153 -42.790  25.995  0.00  0.00    +0.021 C 
ATOM      6  C   UNL     1     -15.432 -42.494  24.693  0.00  0.00    +0.002 C 
ATOM      7  C   UNL     1     -16.629 -41.936  24.286  0.00  0.00    +0.000 C 
ATOM      8  C   UNL     1     -17.576 -41.673  25.264  0.00  0.00    +0.004 C 
ATOM      9  C   UNL     1     -17.309 -41.971  26.591  0.00  0.00    +0.054 C 
ATOM     10  C   UNL     1     -16.086 -42.535  26.971  0.00  0.00    +0.106 C 
ENDROOT
BRANCH   3  11
ATOM     11  P   UNL     1     -12.253 -44.379  28.306  0.00  0.00    +0.219 P 
ATOM     12  O   UNL     1     -11.692 -43.016  27.990  0.00  0.00    -0.163 OA
ATOM     13  H   UNL     1     -11.744 -45.701  28.345  0.00  0.00    +0.140 HD
BRANCH  11  14
ATOM     14  O   UNL     1     -11.136 -44.766  27.208  0.00  0.00    -0.338 OA
ATOM     15  H   UNL     1     -10.374 -45.170  27.651  0.00  0.00    +0.218 HD
ENDBRANCH  11  14
BRANCH  11  16
ATOM     16  O   UNL     1     -12.883 -45.713  29.202  0.00  0.00    -0.338 OA
ATOM     17  H   UNL     1     -13.544 -45.393  29.836  0.00  0.00    +0.218 HD
ENDBRANCH  11  16
ENDBRANCH   3  11
BRANCH   9  18
ATOM     18  C   UNL     1     -18.262 -41.726  27.654  0.00  0.00    +0.175 C 
ATOM     19  O   UNL     1     -18.039 -42.058  28.827  0.00  0.00    -0.291 OA
ATOM     20  C   UNL     1     -19.552 -41.057  27.336  0.00  0.00    +0.077 C 
ENDBRANCH   9  18
TORSDOF 4
REMARK  Name = =
REMARK  9 active torsions:
REMARK  status: ('A' for Active; 'I' for Inactive)
REMARK    1  A    between atoms: P_1  and  C_6
REMARK    2  A    between atoms: P_1  and  O_32
REMARK    3  A    between atoms: P_1  and  O_33
REMARK    4  A    between atoms: C_12  and  C_14
REMARK    5  A    between atoms: N_17  and  C_18
REMARK    6  A    between atoms: N_17  and  O_31
REMARK    7  A    between atoms: N_20  and  N_23
REMARK    8  A    between atoms: N_23  and  N_26
REMARK    9  A    between atoms: N_26  and  O_30
REMARK                            x       y       z     vdW  Elec       q    Type
REMARK                         _______ _______ _______ _____ _____    ______ ____
ROOT
ATOM      1  N   UNL     1      -8.102 -43.295  31.126  0.00  0.00    -0.084 N 
ATOM      2  C   UNL     1      -7.348 -42.133  30.841  0.00  0.00    +0.341 C 
ATOM      3  O   UNL     1      -6.072 -42.159  30.837  0.00  0.00    -0.262 OA
ENDROOT
BRANCH   1   4
ATOM      4  N   UNL     1      -7.537 -44.512  31.438  0.00  0.00    -0.055 N 
ATOM      5  C   UNL     1      -6.629 -44.612  32.525  0.00  0.00    +0.342 C 
ATOM      6  O   UNL     1      -6.085 -45.690  32.859  0.00  0.00    -0.249 OA
ATOM      7  N   UNL     1      -6.318 -43.439  33.274  0.00  0.00    -0.310 N 
ATOM      8  H   UNL     1      -6.731 -42.578  33.034  0.00  0.00    +0.147 HD
ATOM      9  H   UNL     1      -5.691 -43.490  34.031  0.00  0.00    +0.147 HD
BRANCH   4  10
ATOM     10  O   UNL     1      -7.771 -45.682  30.771  0.00  0.00    -0.272 OA
ATOM     11  H   UNL     1      -8.399 -45.523  30.049  0.00  0.00    +0.244 HD
ENDBRANCH   4  10
ENDBRANCH   1   4
BRANCH   1  14
ATOM     12  C   UNL     1     -10.266 -43.636  30.005  0.00  0.00    +0.372 C 
ATOM     13  O   UNL     1      -9.487 -44.198  29.099  0.00  0.00    -0.246 OA
ATOM     14  N   UNL     1      -9.528 -43.152  31.095  0.00  0.00    -0.105 N 
ATOM     15  C   UNL     1     -10.063 -42.511  32.234  0.00  0.00    +0.329 C 
ATOM     16  O   UNL     1     -11.253 -42.274  32.424  0.00  0.00    -0.263 OA
BRANCH  12  17
ATOM     17  N   UNL     1     -11.643 -43.623  29.731  0.00  0.00    -0.046 NA
BRANCH  17  18
ATOM     18  O   UNL     1     -12.511 -43.054  30.570  0.00  0.00    -0.272 OA
ATOM     19  H   UNL     1     -13.409 -43.143  30.215  0.00  0.00    +0.244 HD
ENDBRANCH  17  18
ENDBRANCH  12  17
ENDBRANCH   1  14
TORSDOF 5
