REMARK  Name = =
REMARK  9 active torsions:
REMARK  status: ('A' for Active; 'I' for Inactive)
REMARK    1  A    between atoms: O_2  and  O_34
REMARK    2  A    between atoms: C_10  and  N_16
REMARK    3  A    between atoms: C_11  and  C_13
REMARK    4  A    between atoms: N_16  and  N_17
REMARK    5  A    between atoms: N_19  and  C_20
REMARK    6  A    between atoms: N_19  and  O_33
REMARK    7  A    between atoms: N_22  and  N_25
REMARK    8  A    between atoms: N_25  and  N_28
REMARK    9  A    between atoms: N_28  and  O_32
REMARK                            x       y       z     vdW  Elec       q    Type
REMARK                         _______ _______ _______ _____ _____    ______ ____
ROOT
ATOM      1  P   UNL     1     -13.016 -44.354  29.129  0.00  0.00    +0.000 P 
ENDROOT
TORSDOF 0
REMARK  Name = =
REMARK  9 active torsions:
REMARK  status: ('A' for Active; 'I' for Inactive)
REMARK    1  A    between atoms: O_2  and  O_34
REMARK    2  A    between atoms: C_10  and  N_16
REMARK    3  A    between atoms: C_11  and  C_13
REMARK    4  A    between atoms: N_16  and  N_17
REMARK    5  A    between atoms: N_19  and  C_20
REMARK    6  A    between atoms: N_19  and  O_33
REMARK    7  A    between atoms: N_22  and  N_25
REMARK    8  A    between atoms: N_25  and  N_28
REMARK    9  A    between atoms: N_28  and  O_32
REMARK                            x       y       z     vdW  Elec       q    Type
REMARK                         _______ _______ _______ _____ _____    ______ ____
ROOT
ATOM      1  O   UNL     1     -13.532 -45.760  28.733  0.00  0.00    -0.253 OA
ATOM      2  H   UNL     1     -12.623 -46.078  28.619  0.00  0.00    +0.253 HD
ENDROOT
BRANCH   1   3
ATOM      3  O   UNL     1     -13.768 -45.435  30.167  0.00  0.00    -0.253 OA
ATOM      4  H   UNL     1     -14.677 -45.117  30.281  0.00  0.00    +0.253 HD
ENDBRANCH   1   3
TORSDOF 1
REMARK  Name = =
REMARK  9 active torsions:
REMARK  status: ('A' for Active; 'I' for Inactive)
REMARK    1  A    between atoms: O_2  and  O_34
REMARK    2  A    between atoms: C_10  and  N_16
REMARK    3  A    between atoms: C_11  and  C_13
REMARK    4  A    between atoms: N_16  and  N_17
REMARK    5  A    between atoms: N_19  and  C_20
REMARK    6  A    between atoms: N_19  and  O_33
REMARK    7  A    between atoms: N_22  and  N_25
REMARK    8  A    between atoms: N_25  and  N_28
REMARK    9  A    between atoms: N_28  and  O_32
REMARK                            x       y       z     vdW  Elec       q    Type
REMARK                         _______ _______ _______ _____ _____    ______ ____
ROOT
ATOM      1  N   UNL     1     -15.153 -43.004  26.013  0.00  0.00    -0.148 NA
ATOM      2  N   UNL     1     -14.156 -43.546  26.732  0.00  0.00    -0.146 NA
ATOM      3  C   UNL     1     -14.234 -43.603  28.042  0.00  0.00    +0.122 C 
ATOM      4  C   UNL     1     -15.361 -43.091  28.644  0.00  0.00    +0.024 C 
ATOM      5  C   UNL     1     -16.384 -42.533  27.896  0.00  0.00    +0.021 C 
ATOM      6  C   UNL     1     -17.506 -42.036  28.501  0.00  0.00    +0.003 C 
ATOM      7  C   UNL     1     -18.528 -41.496  27.772  0.00  0.00    +0.016 C 
ATOM      8  C   UNL     1     -18.433 -41.443  26.349  0.00  0.00    +0.065 C 
ATOM      9  C   UNL     1     -17.306 -41.939  25.753  0.00  0.00    +0.042 C 
ATOM     10  C   UNL     1     -16.270 -42.492  26.532  0.00  0.00    +0.102 C 
ENDROOT
BRANCH   9  11
ATOM     11  C   UNL     1     -17.036 -41.881  24.336  0.00  0.00    +0.177 C 
ATOM     12  O   UNL     1     -17.631 -41.011  23.595  0.00  0.00    -0.218 OA
ATOM     13  C   UNL     1     -16.103 -42.778  23.633  0.00  0.00    +0.041 C 
ENDBRANCH   9  11
BRANCH   8  14
ATOM     14  N   UNL     1     -19.536 -40.889  25.693  0.00  0.00    -0.236 N 
ATOM     15  H   UNL     1     -20.018 -40.195  26.198  0.00  0.00    +0.174 HD
BRANCH  14  16
ATOM     16  N   UNL     1     -20.045 -41.167  24.457  0.00  0.00    -0.178 NA
ATOM     17  C   UNL     1     -21.228 -40.831  24.072  0.00  0.00    +0.140 C 
ENDBRANCH  14  16
ENDBRANCH   8  14
TORSDOF 3
REMARK  Name = =
REMARK  9 active torsions:
REMARK  status: ('A' for Active; 'I' for Inactive)
REMARK    1  A    between atoms: O_2  and  O_34
REMARK    2  A    between atoms: C_10  and  N_16
REMARK    3  A    between atoms: C_11  and  C_13
REMARK    4  A    between atoms: N_16  and  N_17
REMARK    5  A    between atoms: N_19  and  C_20
REMARK    6  A    between atoms: N_19  and  O_33
REMARK    7  A    between atoms: N_22  and  N_25
REMARK    8  A    between atoms: N_25  and  N_28
REMARK    9  A    between atoms: N_28  and  O_32
REMARK                            x       y       z     vdW  Elec       q    Type
REMARK                         _______ _______ _______ _____ _____    ______ ____
ROOT
ATOM      1  N   UNL     1      -8.295 -43.848  30.614  0.00  0.00    -0.084 N 
ATOM      2  C   UNL     1      -7.611 -42.671  30.297  0.00  0.00    +0.341 C 
ATOM      3  O   UNL     1      -8.269 -41.669  29.877  0.00  0.00    -0.262 OA
ENDROOT
BRANCH   1   4
ATOM      4  N   UNL     1      -7.630 -44.954  31.090  0.00  0.00    -0.055 N 
ATOM      5  C   UNL     1      -6.654 -44.810  32.124  0.00  0.00    +0.342 C 
ATOM      6  O   UNL     1      -6.017 -45.794  32.577  0.00  0.00    -0.249 OA
ATOM      7  N   UNL     1      -6.369 -43.530  32.676  0.00  0.00    -0.310 N 
ATOM      8  H   UNL     1      -6.847 -42.735  32.347  0.00  0.00    +0.147 HD
ATOM      9  H   UNL     1      -5.694 -43.440  33.387  0.00  0.00    +0.147 HD
BRANCH   4  10
ATOM     10  O   UNL     1      -7.842 -46.221  30.623  0.00  0.00    -0.272 OA
ATOM     11  H   UNL     1      -8.519 -46.201  29.929  0.00  0.00    +0.244 HD
ENDBRANCH   4  10
ENDBRANCH   1   4
BRANCH   1  14
ATOM     12  C   UNL     1     -10.257 -43.871  29.166  0.00  0.00    +0.372 C 
ATOM     13  O   UNL     1      -9.255 -43.626  28.284  0.00  0.00    -0.246 OA
ATOM     14  N   UNL     1      -9.739 -43.942  30.445  0.00  0.00    -0.105 N 
ATOM     15  C   UNL     1     -10.410 -44.074  31.654  0.00  0.00    +0.329 C 
ATOM     16  O   UNL     1     -11.627 -44.136  31.782  0.00  0.00    -0.263 OA
BRANCH  12  17
ATOM     17  N   UNL     1     -11.466 -43.977  28.551  0.00  0.00    -0.046 NA
BRANCH  17  18
ATOM     18  O   UNL     1     -11.473 -43.745  27.165  0.00  0.00    -0.272 OA
ATOM     19  H   UNL     1     -12.376 -43.844  26.825  0.00  0.00    +0.244 HD
ENDBRANCH  17  18
ENDBRANCH  12  17
ENDBRANCH   1  14
TORSDOF 5
REMARK  Name = =
REMARK  9 active torsions:
REMARK  status: ('A' for Active; 'I' for Inactive)
REMARK    1  A    between atoms: O_2  and  O_34
REMARK    2  A    between atoms: C_10  and  N_16
REMARK    3  A    between atoms: C_11  and  C_13
REMARK    4  A    between atoms: N_16  and  N_17
REMARK    5  A    between atoms: N_19  and  C_20
REMARK    6  A    between atoms: N_19  and  O_33
REMARK    7  A    between atoms: N_22  and  N_25
REMARK    8  A    between atoms: N_25  and  N_28
REMARK    9  A    between atoms: N_28  and  O_32
REMARK                            x       y       z     vdW  Elec       q    Type
REMARK                         _______ _______ _______ _____ _____    ______ ____
ROOT
ATOM      1  O   HOH     1     -12.965 -42.830  29.818  0.00  0.00    -0.253 OA
ATOM      2  H   HOH     0     -11.995 -42.830  29.818  0.00  0.00    +0.253 HD
ENDROOT
TORSDOF 0
