MODEL 1
REMARK VINA RESULT:   -10.541      0.000      0.000
REMARK INTER + INTRA:         -12.547
REMARK INTER:                 -12.390
REMARK INTRA:                  -0.157
REMARK UNBOUND:                -0.157
REMARK  Name = =
REMARK  3 active torsions:
REMARK  status: ('A' for Active; 'I' for Inactive)
REMARK    1  A    between atoms: C_1  and  C_18
REMARK    2  A    between atoms: C_10  and  C_38
REMARK    3  A    between atoms: C_29  and  C_32
REMARK                            x       y       z     vdW  Elec       q    Type
REMARK                         _______ _______ _______ _____ _____    ______ ____
ROOT
ATOM      1  C   UNL     1      -0.463  -6.996  31.285  0.00  0.00    +0.004 C 
ATOM      2  C   UNL     1      -0.324  -8.239  31.922  0.00  0.00    +0.000 C 
ATOM      3  C   UNL     1      -1.313  -8.721  32.747  0.00  0.00    +0.000 C 
ATOM      4  C   UNL     1      -2.452  -7.978  32.949  0.00  0.00    +0.003 C 
ATOM      5  C   UNL     1      -2.609  -6.759  32.332  0.00  0.00    +0.042 C 
ATOM      6  C   UNL     1      -1.608  -6.280  31.501  0.00  0.00    +0.042 C 
ATOM      7  C   UNL     1      -1.776  -4.996  30.800  0.00  0.00    +0.196 C 
ATOM      8  O   UNL     1      -0.863  -4.603  30.062  0.00  0.00    -0.287 OA
ATOM      9  C   UNL     1      -2.975  -4.202  30.959  0.00  0.00    +0.045 C 
ATOM     10  C   UNL     1      -3.126  -3.000  30.327  0.00  0.00    +0.038 C 
ATOM     11  C   UNL     1      -4.318  -2.289  30.574  0.00  0.00    +0.003 C 
ATOM     12  C   UNL     1      -5.295  -2.766  31.403  0.00  0.00    +0.000 C 
ATOM     13  C   UNL     1      -5.099  -3.974  32.007  0.00  0.00    +0.003 C 
ATOM     14  C   UNL     1      -3.957  -4.720  31.811  0.00  0.00    +0.042 C 
ATOM     15  C   UNL     1      -3.817  -5.990  32.515  0.00  0.00    +0.196 C 
ATOM     16  O   UNL     1      -4.758  -6.380  33.264  0.00  0.00    -0.287 OA
ENDROOT
BRANCH   1  18
ATOM     17  C   UNL     1       1.495  -5.496  31.074  0.00  0.00    +0.000 C 
ATOM     18  C   UNL     1       0.656  -6.476  30.535  0.00  0.00    +0.006 C 
ATOM     19  C   UNL     1       1.008  -6.980  29.293  0.00  0.00    +0.025 C 
ATOM     20  C   UNL     1       2.123  -6.538  28.628  0.00  0.00    -0.016 C 
ATOM     21  C   UNL     1       2.923  -5.557  29.213  0.00  0.00    -0.004 C 
ATOM     22  C   UNL     1       2.603  -5.036  30.447  0.00  0.00    -0.000 C 
ATOM     23  C   UNL     1       2.685  -6.915  27.311  0.00  0.00    +0.032 C 
ATOM     24  C   UNL     1       2.799  -8.431  27.236  0.00  0.00    +0.032 C 
ATOM     25  C   UNL     1       1.509  -8.919  26.654  0.00  0.00    -0.016 C 
ATOM     26  C   UNL     1       0.264  -8.862  27.236  0.00  0.00    +0.025 C 
ATOM     27  C   UNL     1      -0.787  -9.368  26.516  0.00  0.00    +0.006 C 
ATOM     28  C   UNL     1      -0.587  -9.915  25.245  0.00  0.00    +0.000 C 
ATOM     29  C   UNL     1       0.660  -9.970  24.663  0.00  0.00    -0.003 C 
ATOM     30  C   UNL     1       1.706  -9.458  25.401  0.00  0.00    -0.004 C 
ATOM     31  S   UNL     1      -0.227  -8.210  28.840  0.00  0.00    -0.088 S 
BRANCH  29  32
ATOM     32  C   UNL     1       0.851 -10.543  23.327  0.00  0.00    -0.009 C 
ATOM     33  C   UNL     1      -0.149 -10.666  22.468  0.00  0.00    -0.028 C 
ATOM     34  C   UNL     1       0.112 -11.261  21.119  0.00  0.00    +0.045 C 
ATOM     35  C   UNL     1       1.117 -12.377  21.172  0.00  0.00    +0.094 C 
ATOM     36  N   UNL     1       1.919 -12.402  22.355  0.00  0.00    -0.213 NA
ATOM     37  C   UNL     1       2.164 -11.029  22.823  0.00  0.00    +0.115 C 
ENDBRANCH  29  32
ENDBRANCH   1  18
BRANCH  10  38
ATOM     38  C   UNL     1      -2.213  -2.472  29.337  0.00  0.00    +0.149 C 
ATOM     39  C   UNL     1      -2.551  -2.682  27.977  0.00  0.00    +0.080 C 
ATOM     40  C   UNL     1      -1.760  -2.226  26.945  0.00  0.00    +0.202 C 
ATOM     41  O   UNL     1      -2.045  -2.407  25.736  0.00  0.00    -0.286 OA
ATOM     42  C   UNL     1      -0.602  -1.540  27.229  0.00  0.00    +0.083 C 
ATOM     43  C   UNL     1      -0.320  -1.361  28.560  0.00  0.00    +0.183 C 
ATOM     44  O   UNL     1      -1.110  -1.819  29.483  0.00  0.00    -0.450 OA
ENDBRANCH  10  38
TORSDOF 3
ENDMDL
