MODEL 1
REMARK VINA RESULT:   -10.224      0.000      0.000
REMARK INTER + INTRA:         -13.439
REMARK INTER:                 -13.511
REMARK INTRA:                   0.073
REMARK UNBOUND:                 0.073
REMARK  Name = =
REMARK  6 active torsions:
REMARK  status: ('A' for Active; 'I' for Inactive)
REMARK    1  A    between atoms: N_1  and  C_31
REMARK    2  A    between atoms: C_18  and  N_19
REMARK    3  A    between atoms: N_22  and  C_23
REMARK    4  A    between atoms: N_29  and  C_38
REMARK    5  A    between atoms: C_33  and  C_40
REMARK    6  A    between atoms: C_36  and  O_47
REMARK                            x       y       z     vdW  Elec       q    Type
REMARK                         _______ _______ _______ _____ _____    ______ ____
ROOT
ATOM      1  N   UNL     1       0.673  -5.762  27.848  0.00  0.00    -0.257 NA
ATOM      2  C   UNL     1       0.505  -5.010  29.024  0.00  0.00    +0.068 C 
ATOM      3  C   UNL     1      -0.991  -5.021  29.293  0.00  0.00    +0.044 C 
ATOM      4  C   UNL     1      -1.322  -6.422  29.730  0.00  0.00    +0.066 C 
ATOM      5  C   UNL     1      -2.719  -6.621  30.251  0.00  0.00    +0.174 C 
ATOM      6  O   UNL     1      -2.520  -7.668  31.221  0.00  0.00    -0.479 OA
ATOM      7  C   UNL     1      -1.290  -7.436  31.812  0.00  0.00    +0.134 C 
ATOM      8  C   UNL     1      -0.549  -6.715  30.939  0.00  0.00    +0.011 C 
ATOM      9  C   UNL     1       0.703  -6.293  31.155  0.00  0.00    -0.022 C 
ATOM     10  C   UNL     1       1.339  -6.580  32.333  0.00  0.00    -0.004 C 
ATOM     11  C   UNL     1       0.627  -7.321  33.272  0.00  0.00    +0.003 C 
ATOM     12  C   UNL     1      -0.670  -7.745  33.021  0.00  0.00    +0.037 C 
ATOM     13  C   UNL     1       1.382  -5.485  30.115  0.00  0.00    +0.042 C 
ATOM     14  C   UNL     1      -3.329  -5.471  30.923  0.00  0.00    +0.070 C 
ATOM     15  C   UNL     1      -2.540  -4.229  30.932  0.00  0.00    -0.027 C 
ATOM     16  C   UNL     1      -1.465  -3.989  30.198  0.00  0.00    -0.029 C 
ATOM     17  C   UNL     1      -1.033  -7.380  28.630  0.00  0.00    +0.045 C 
ATOM     18  C   UNL     1       0.262  -7.129  27.921  0.00  0.00    +0.135 C 
ENDROOT
BRANCH  18  19
ATOM     19  N   UNL     1       0.419  -7.771  26.673  0.00  0.00    -0.277 N 
ATOM     20  C   UNL     1       0.711  -9.151  26.466  0.00  0.00    +0.305 C 
ATOM     21  O   UNL     1       0.885  -9.897  27.456  0.00  0.00    -0.252 OA
ATOM     22  N   UNL     1       0.810  -9.730  25.192  0.00  0.00    -0.268 N 
ATOM     23  H   UNL     1       0.318  -7.212  25.868  0.00  0.00    +0.152 HD
ATOM     24  H   UNL     1       0.669  -9.124  24.429  0.00  0.00    +0.156 HD
BRANCH  22  25
ATOM     25  C   UNL     1       1.084 -11.065  24.874  0.00  0.00    +0.052 C 
ATOM     26  C   UNL     1       2.355 -11.536  24.767  0.00  0.00    +0.015 C 
ATOM     27  C   UNL     1       2.602 -12.885  24.483  0.00  0.00    +0.001 C 
ATOM     28  C   UNL     1       1.527 -13.749  24.312  0.00  0.00    +0.000 C 
ATOM     29  C   UNL     1       0.246 -13.293  24.415  0.00  0.00    +0.001 C 
ATOM     30  C   UNL     1       0.038 -11.950  24.696  0.00  0.00    +0.015 C 
ENDBRANCH  22  25
ENDBRANCH  18  19
BRANCH   1  33
ATOM     31  N   UNL     1       2.700  -3.715  26.278  0.00  0.00    -0.305 N 
ATOM     32  C   UNL     1       2.725  -5.190  26.571  0.00  0.00    +0.108 C 
ATOM     33  C   UNL     1       1.270  -5.255  26.717  0.00  0.00    +0.098 C 
ATOM     34  C   UNL     1       1.426  -3.719  26.830  0.00  0.00    +0.108 C 
BRANCH  31  40
ATOM     35  C   UNL     1       3.840  -2.590  24.393  0.00  0.00    +0.047 C 
ATOM     36  C   UNL     1       4.937  -1.847  23.915  0.00  0.00    +0.143 C 
ATOM     37  C   UNL     1       5.966  -1.486  24.754  0.00  0.00    +0.066 C 
ATOM     38  C   UNL     1       5.914  -1.861  26.067  0.00  0.00    +0.137 C 
ATOM     39  C   UNL     1       4.841  -2.584  26.516  0.00  0.00    +0.051 C 
ATOM     40  C   UNL     1       3.756  -2.986  25.713  0.00  0.00    +0.051 C 
ATOM     41  F   UNL     1       5.050  -1.509  22.605  0.00  0.00    -0.204 F 
BRANCH  35  42
ATOM     42  C   UNL     1       2.789  -2.907  23.432  0.00  0.00    +0.150 C 
ATOM     43  S   UNL     1       3.589  -3.496  21.881  0.00  0.00    -0.115 S 
ATOM     44  C   UNL     1       3.013  -2.160  20.803  0.00  0.00    +0.081 C 
ATOM     45  C   UNL     1       2.467  -1.178  21.790  0.00  0.00    +0.107 C 
ATOM     46  N   UNL     1       1.955  -1.847  22.950  0.00  0.00    -0.260 N 
ATOM     47  C   UNL     1       0.696  -1.418  23.529  0.00  0.00    +0.304 C 
ATOM     48  O   UNL     1       0.060  -0.486  23.093  0.00  0.00    -0.265 OA
ENDBRANCH  35  42
BRANCH  38  49
ATOM     49  O   UNL     1       6.911  -1.536  26.984  0.00  0.00    -0.505 OA
ATOM     50  H   UNL     1       7.377  -0.728  26.903  0.00  0.00    +0.292 HD
ENDBRANCH  38  49
ENDBRANCH  31  40
ENDBRANCH   1  33
TORSDOF 6
ENDMDL
