REMARK  Name = =
REMARK  6 active torsions:
REMARK  status: ('A' for Active; 'I' for Inactive)
REMARK    1  A    between atoms: N_1  and  C_31
REMARK    2  A    between atoms: C_18  and  N_19
REMARK    3  A    between atoms: N_22  and  C_23
REMARK    4  A    between atoms: N_29  and  C_38
REMARK    5  A    between atoms: C_33  and  C_40
REMARK    6  A    between atoms: C_36  and  O_47
REMARK                            x       y       z     vdW  Elec       q    Type
REMARK                         _______ _______ _______ _____ _____    ______ ____
ROOT
ATOM      1  N   UNL     1      -6.139  -3.772  20.491  0.00  0.00    -0.257 NA
ATOM      2  C   UNL     1      -5.550  -5.035  20.304  0.00  0.00    +0.068 C 
ATOM      3  C   UNL     1      -5.758  -5.357  18.833  0.00  0.00    +0.044 C 
ATOM      4  C   UNL     1      -4.843  -4.434  18.074  0.00  0.00    +0.066 C 
ATOM      5  C   UNL     1      -4.725  -4.713  16.600  0.00  0.00    +0.174 C 
ATOM      6  O   UNL     1      -3.372  -4.295  16.335  0.00  0.00    -0.479 OA
ATOM      7  C   UNL     1      -2.623  -4.636  17.448  0.00  0.00    +0.134 C 
ATOM      8  C   UNL     1      -3.469  -4.705  18.501  0.00  0.00    +0.011 C 
ATOM      9  C   UNL     1      -3.116  -5.012  19.756  0.00  0.00    -0.022 C 
ATOM     10  C   UNL     1      -1.810  -5.289  20.061  0.00  0.00    -0.004 C 
ATOM     11  C   UNL     1      -0.891  -5.234  19.017  0.00  0.00    +0.003 C 
ATOM     12  C   UNL     1      -1.286  -4.913  17.726  0.00  0.00    +0.037 C 
ATOM     13  C   UNL     1      -4.160  -5.077  20.805  0.00  0.00    +0.042 C 
ATOM     14  C   UNL     1      -4.871  -6.113  16.193  0.00  0.00    +0.070 C 
ATOM     15  C   UNL     1      -5.205  -7.069  17.260  0.00  0.00    -0.027 C 
ATOM     16  C   UNL     1      -5.615  -6.758  18.479  0.00  0.00    -0.029 C 
ATOM     17  C   UNL     1      -5.239  -3.020  18.308  0.00  0.00    +0.045 C 
ATOM     18  C   UNL     1      -5.569  -2.702  19.734  0.00  0.00    +0.135 C 
ENDROOT
BRANCH  18  19
ATOM     19  N   UNL     1      -6.272  -1.497  19.953  0.00  0.00    -0.277 N 
ATOM     20  C   UNL     1      -5.755  -0.178  19.791  0.00  0.00    +0.305 C 
ATOM     21  O   UNL     1      -4.559  -0.024  19.455  0.00  0.00    -0.252 OA
ATOM     22  N   UNL     1      -6.528   0.976  19.985  0.00  0.00    -0.268 N 
ATOM     23  H   UNL     1      -7.209  -1.575  20.246  0.00  0.00    +0.152 HD
ATOM     24  H   UNL     1      -7.465   0.830  20.249  0.00  0.00    +0.156 HD
BRANCH  22  25
ATOM     25  C   UNL     1      -6.129   2.310  19.849  0.00  0.00    +0.052 C 
ATOM     26  C   UNL     1      -5.229   2.885  20.692  0.00  0.00    +0.015 C 
ATOM     27  C   UNL     1      -4.819   4.212  20.511  0.00  0.00    +0.001 C 
ATOM     28  C   UNL     1      -5.342   4.945  19.453  0.00  0.00    +0.000 C 
ATOM     29  C   UNL     1      -6.246   4.385  18.600  0.00  0.00    +0.001 C 
ATOM     30  C   UNL     1      -6.631   3.068  18.809  0.00  0.00    +0.015 C 
ENDBRANCH  22  25
ENDBRANCH  18  19
BRANCH   1  33
ATOM     31  N   UNL     1      -8.888  -4.600  22.079  0.00  0.00    -0.305 N 
ATOM     32  C   UNL     1      -7.442  -4.491  22.479  0.00  0.00    +0.108 C 
ATOM     33  C   UNL     1      -7.145  -3.546  21.402  0.00  0.00    +0.098 C 
ATOM     34  C   UNL     1      -8.496  -4.069  20.857  0.00  0.00    +0.108 C 
BRANCH  31  40
ATOM     35  C   UNL     1     -10.590  -4.440  23.866  0.00  0.00    +0.047 C 
ATOM     36  C   UNL     1     -11.615  -5.050  24.616  0.00  0.00    +0.143 C 
ATOM     37  C   UNL     1     -11.976  -6.358  24.388  0.00  0.00    +0.066 C 
ATOM     38  C   UNL     1     -11.323  -7.067  23.419  0.00  0.00    +0.137 C 
ATOM     39  C   UNL     1     -10.328  -6.460  22.699  0.00  0.00    +0.051 C 
ATOM     40  C   UNL     1      -9.910  -5.128  22.881  0.00  0.00    +0.051 C 
ATOM     41  F   UNL     1     -12.243  -4.395  25.625  0.00  0.00    -0.204 F 
BRANCH  35  42
ATOM     42  C   UNL     1     -10.294  -3.044  24.167  0.00  0.00    +0.150 C 
ATOM     43  S   UNL     1     -10.738  -2.730  25.927  0.00  0.00    -0.115 S 
ATOM     44  C   UNL     1     -12.045  -1.515  25.622  0.00  0.00    +0.081 C 
ATOM     45  C   UNL     1     -12.251  -1.644  24.146  0.00  0.00    +0.107 C 
ATOM     46  N   UNL     1     -11.034  -2.022  23.489  0.00  0.00    -0.260 N 
ATOM     47  C   UNL     1     -10.662  -1.380  22.243  0.00  0.00    +0.304 C 
ATOM     48  O   UNL     1     -11.355  -0.549  21.703  0.00  0.00    -0.265 OA
ENDBRANCH  35  42
BRANCH  38  49
ATOM     49  O   UNL     1     -11.626  -8.394  23.122  0.00  0.00    -0.505 OA
ATOM     50  H   UNL     1     -12.301  -8.838  23.596  0.00  0.00    +0.292 HD
ENDBRANCH  38  49
ENDBRANCH  31  40
ENDBRANCH   1  33
TORSDOF 6
