REMARK  Name = =
REMARK  5 active torsions:
REMARK  status: ('A' for Active; 'I' for Inactive)
REMARK    1  A    between atoms: C_1  and  C_18
REMARK    2  A    between atoms: C_1  and  N_26
REMARK    3  A    between atoms: C_21  and  O_25
REMARK    4  A    between atoms: N_26  and  C_27
REMARK    5  A    between atoms: C_28  and  N_33
REMARK                            x       y       z     vdW  Elec       q    Type
REMARK                         _______ _______ _______ _____ _____    ______ ____
ROOT
ATOM      1  C   UNL     1      61.759 165.405  38.345  0.00  0.00    +0.073 C 
ATOM      2  C   UNL     1      62.772 165.041  39.384  0.00  0.00    +0.022 C 
ATOM      3  C   UNL     1      62.799 163.610  39.781  0.00  0.00    +0.006 C 
ATOM      4  C   UNL     1      62.617 162.610  38.718  0.00  0.00    +0.022 C 
ATOM      5  C   UNL     1      62.477 163.292  37.385  0.00  0.00    +0.028 C 
ATOM      6  C   UNL     1      62.236 162.354  36.264  0.00  0.00    -0.026 C 
ATOM      7  C   UNL     1      62.961 161.075  36.310  0.00  0.00    -0.009 C 
ATOM      8  C   UNL     1      63.636 160.754  37.582  0.00  0.00    -0.031 C 
ATOM      9  C   UNL     1      63.493 161.451  38.717  0.00  0.00    -0.048 C 
ATOM     10  C   UNL     1      64.256 160.969  39.900  0.00  0.00    +0.022 C 
ATOM     11  C   UNL     1      64.264 159.486  40.050  0.00  0.00    +0.005 C 
ATOM     12  C   UNL     1      64.461 158.727  38.772  0.00  0.00    +0.004 C 
ATOM     13  C   UNL     1      64.526 159.564  37.549  0.00  0.00    +0.022 C 
ATOM     14  C   UNL     1      65.959 159.891  37.275  0.00  0.00    +0.004 C 
ATOM     15  C   UNL     1      66.683 158.686  37.792  0.00  0.00    +0.000 C 
ATOM     16  C   UNL     1      65.786 157.992  38.762  0.00  0.00    +0.000 C 
ATOM     17  C   UNL     1      61.278 164.237  37.557  0.00  0.00    +0.027 C 
ENDROOT
BRANCH   1  18
ATOM     18  C   UNL     1      62.434 166.381  37.434  0.00  0.00    -0.006 C 
ATOM     19  C   UNL     1      62.686 166.159  36.114  0.00  0.00    +0.007 C 
ATOM     20  C   UNL     1      63.312 167.094  35.320  0.00  0.00    +0.068 C 
ATOM     21  C   UNL     1      63.710 168.302  35.846  0.00  0.00    +0.140 C 
ATOM     22  C   UNL     1      63.463 168.541  37.180  0.00  0.00    +0.037 C 
ATOM     23  C   UNL     1      62.833 167.593  37.965  0.00  0.00    +0.000 C 
ATOM     24 BR   UNL     1      63.655 166.769  33.471  0.00  0.00    -0.046 Br
BRANCH  21  25
ATOM     25  O   UNL     1      64.344 169.270  35.084  0.00  0.00    -0.505 OA
ATOM     26  H   UNL     1      64.515 169.114  34.176  0.00  0.00    +0.292 HD
ENDBRANCH  21  25
ENDBRANCH   1  18
BRANCH   1  27
ATOM     27  N   UNL     1      60.601 166.068  38.894  0.00  0.00    -0.331 N 
ATOM     28  H   UNL     1      60.362 166.953  38.534  0.00  0.00    +0.147 HD
BRANCH  27  29
ATOM     29  C   UNL     1      59.794 165.531  39.909  0.00  0.00    +0.086 C 
ATOM     30  C   UNL     1      58.702 164.721  39.965  0.00  0.00    +0.156 C 
ATOM     31  C   UNL     1      58.705 164.816  41.336  0.00  0.00    +0.232 C 
ATOM     32  O   UNL     1      57.954 164.321  42.245  0.00  0.00    -0.286 OA
ATOM     33  C   UNL     1      59.803 165.630  41.276  0.00  0.00    +0.242 C 
ATOM     34  O   UNL     1      60.532 166.233  42.149  0.00  0.00    -0.282 OA
BRANCH  30  35
ATOM     35  N   UNL     1      57.880 164.037  38.985  0.00  0.00    -0.312 NA
ATOM     36  H   UNL     1      58.230 164.237  38.048  0.00  0.00    +0.120 HD
ATOM     37  H   UNL     1      56.916 164.361  39.064  0.00  0.00    +0.120 HD
ENDBRANCH  30  35
ENDBRANCH  27  29
ENDBRANCH   1  27
TORSDOF 5
