REMARK  Name = =
REMARK  0 active torsions:
REMARK  status: ('A' for Active; 'I' for Inactive)
REMARK                            x       y       z     vdW  Elec       q    Type
REMARK                         _______ _______ _______ _____ _____    ______ ____
ROOT
ATOM      1  N   UNL     1      -4.352  -4.229  30.576  0.00  0.00    -0.333 N 
ATOM      2  C   UNL     1      -4.442  -2.980  31.323  0.00  0.00    +0.092 C 
ATOM      3  C   UNL     1      -3.668  -2.047  30.418  0.00  0.00    +0.049 C 
ATOM      4  C   UNL     1      -2.580  -2.927  29.916  0.00  0.00    -0.007 C 
ATOM      5  C   UNL     1      -3.025  -4.228  30.023  0.00  0.00    +0.041 C 
ATOM      6  C   UNL     1      -2.167  -5.237  29.607  0.00  0.00    +0.014 C 
ATOM      7  C   UNL     1      -0.911  -4.988  29.100  0.00  0.00    +0.001 C 
ATOM      8  C   UNL     1      -0.462  -3.690  28.990  0.00  0.00    -0.000 C 
ATOM      9  C   UNL     1      -1.312  -2.688  29.403  0.00  0.00    -0.003 C 
ATOM     10  H   UNL     1      -5.046  -4.920  30.473  0.00  0.00    +0.147 HD
ENDROOT
TORSDOF 0
