REMARK  Name = =
REMARK  1 active torsions:
REMARK  status: ('A' for Active; 'I' for Inactive)
REMARK    1  A    between atoms: C_2  and  C_10
REMARK                            x       y       z     vdW  Elec       q    Type
REMARK                         _______ _______ _______ _____ _____    ______ ____
ROOT
ATOM      1  N   UNL     1      -4.400  -4.432  31.148  0.00  0.00    -0.334 N 
ATOM      2  C   UNL     1      -4.076  -3.252  31.917  0.00  0.00    +0.076 C 
ATOM      3  C   UNL     1      -3.254  -2.464  30.941  0.00  0.00    +0.047 C 
ATOM      4  C   UNL     1      -2.496  -3.543  30.259  0.00  0.00    -0.007 C 
ATOM      5  C   UNL     1      -3.203  -4.716  30.397  0.00  0.00    +0.041 C 
ATOM      6  C   UNL     1      -2.679  -5.871  29.833  0.00  0.00    +0.014 C 
ATOM      7  C   UNL     1      -1.487  -5.900  29.142  0.00  0.00    +0.001 C 
ATOM      8  C   UNL     1      -0.792  -4.714  29.013  0.00  0.00    -0.000 C 
ATOM      9  C   UNL     1      -1.306  -3.558  29.572  0.00  0.00    -0.003 C 
ATOM     10  H   UNL     1      -5.249  -4.931  31.139  0.00  0.00    +0.147 HD
ENDROOT
BRANCH   2  11
ATOM     11  C   UNL     1      -5.242  -2.538  32.476  0.00  0.00    +0.050 C 
ATOM     12  C   UNL     1      -5.831  -1.422  31.707  0.00  0.00    +0.072 C 
ATOM     13  N   UNL     1      -6.767  -2.319  31.090  0.00  0.00    -0.297 NA
ATOM     14  C   UNL     1      -6.552  -3.247  32.174  0.00  0.00    +0.072 C 
ATOM     15  H   UNL     1      -6.476  -2.666  30.176  0.00  0.00    +0.123 HD
ENDBRANCH   2  11
TORSDOF 1
