REMARK  Name = =
REMARK  2 active torsions:
REMARK  status: ('A' for Active; 'I' for Inactive)
REMARK    1  A    between atoms: C_2  and  C_15
REMARK    2  A    between atoms: C_3  and  C_10
REMARK                            x       y       z     vdW  Elec       q    Type
REMARK                         _______ _______ _______ _____ _____    ______ ____
ROOT
ATOM      1  N   UNL     1      -2.759  -6.015  32.553  0.00  0.00    -0.334 N 
ATOM      2  C   UNL     1      -2.645  -6.647  31.224  0.00  0.00    +0.078 C 
ATOM      3  C   UNL     1      -2.884  -5.478  30.285  0.00  0.00    +0.071 C 
ATOM      4  C   UNL     1      -3.787  -4.597  31.064  0.00  0.00    -0.005 C 
ATOM      5  C   UNL     1      -3.687  -4.936  32.404  0.00  0.00    +0.041 C 
ATOM      6  C   UNL     1      -4.410  -4.285  33.374  0.00  0.00    +0.014 C 
ATOM      7  C   UNL     1      -5.283  -3.244  33.042  0.00  0.00    +0.001 C 
ATOM      8  C   UNL     1      -5.387  -2.906  31.727  0.00  0.00    -0.000 C 
ATOM      9  C   UNL     1      -4.643  -3.579  30.751  0.00  0.00    -0.003 C 
ATOM     10  H   UNL     1      -2.291  -6.282  33.377  0.00  0.00    +0.147 HD
ENDROOT
BRANCH   3  11
ATOM     11  C   UNL     1      -1.607  -4.823  29.891  0.00  0.00    +0.118 C 
ATOM     12  N   UNL     1      -1.614  -4.308  28.536  0.00  0.00    -0.285 NA
ATOM     13  C   UNL     1      -0.296  -3.658  28.491  0.00  0.00    +0.087 C 
ATOM     14  C   UNL     1      -0.265  -2.988  29.847  0.00  0.00    +0.087 C 
ATOM     15  N   UNL     1      -1.282  -3.646  30.650  0.00  0.00    -0.285 NA
ATOM     16  H   UNL     1      -2.370  -3.638  28.391  0.00  0.00    +0.124 HD
ATOM     17  H   UNL     1      -0.915  -3.895  31.569  0.00  0.00    +0.124 HD
ENDBRANCH   3  11
BRANCH   2  18
ATOM     18  C   UNL     1      -1.281  -7.229  31.123  0.00  0.00    +0.050 C 
ATOM     19  C   UNL     1      -1.195  -8.286  30.074  0.00  0.00    +0.072 C 
ATOM     20  N   UNL     1      -1.512  -9.280  31.111  0.00  0.00    -0.297 NA
ATOM     21  C   UNL     1      -0.975  -8.359  32.077  0.00  0.00    +0.072 C 
ATOM     22  H   UNL     1      -0.998 -10.157  31.029  0.00  0.00    +0.123 HD
ENDBRANCH   2  18
TORSDOF 2
