REMARK  Name = =
REMARK  3 active torsions:
REMARK  status: ('A' for Active; 'I' for Inactive)
REMARK    1  A    between atoms: N_1  and  C_15
REMARK    2  A    between atoms: C_2  and  C_21
REMARK    3  A    between atoms: C_3  and  C_10
REMARK                            x       y       z     vdW  Elec       q    Type
REMARK                         _______ _______ _______ _____ _____    ______ ____
ROOT
ATOM      1  N   UNL     1      -1.553  -5.881  30.260  0.00  0.00    -0.286 N 
ATOM      2  C   UNL     1      -1.870  -4.468  30.282  0.00  0.00    +0.087 C 
ATOM      3  C   UNL     1      -0.878  -3.805  29.406  0.00  0.00    +0.072 C 
ATOM      4  C   UNL     1      -0.291  -4.898  28.621  0.00  0.00    -0.005 C 
ATOM      5  C   UNL     1      -0.697  -6.094  29.155  0.00  0.00    +0.048 C 
ATOM      6  C   UNL     1      -0.216  -7.269  28.537  0.00  0.00    +0.015 C 
ATOM      7  C   UNL     1       0.623  -7.246  27.450  0.00  0.00    +0.001 C 
ATOM      8  C   UNL     1       1.023  -6.043  26.922  0.00  0.00    -0.000 C 
ATOM      9  C   UNL     1       0.553  -4.902  27.526  0.00  0.00    -0.003 C 
ENDROOT
BRANCH   3  10
ATOM     10  C   UNL     1      -1.364  -2.637  28.604  0.00  0.00    +0.118 C 
ATOM     11  N   UNL     1      -0.299  -1.717  28.285  0.00  0.00    -0.285 NA
ATOM     12  C   UNL     1      -0.747  -1.048  27.113  0.00  0.00    +0.087 C 
ATOM     13  C   UNL     1      -1.566  -2.040  26.367  0.00  0.00    +0.087 C 
ATOM     14  N   UNL     1      -1.837  -3.072  27.320  0.00  0.00    -0.285 NA
ATOM     15  H   UNL     1       0.570  -2.220  28.104  0.00  0.00    +0.124 HD
ATOM     16  H   UNL     1      -1.355  -3.928  27.047  0.00  0.00    +0.124 HD
ENDBRANCH   3  10
BRANCH   1  17
ATOM     17  C   UNL     1      -1.937  -6.922  31.138  0.00  0.00    +0.090 C 
ATOM     18  C   UNL     1      -2.517  -8.074  30.647  0.00  0.00    +0.117 C 
ATOM     19  N   UNL     1      -2.871  -9.088  31.456  0.00  0.00    -0.221 NA
ATOM     20  C   UNL     1      -2.661  -8.992  32.779  0.00  0.00    +0.199 C 
ATOM     21  N   UNL     1      -2.097  -7.874  33.261  0.00  0.00    -0.221 NA
ATOM     22  C   UNL     1      -1.728  -6.840  32.502  0.00  0.00    +0.117 C 
ENDBRANCH   1  17
BRANCH   2  23
ATOM     23  C   UNL     1      -3.300  -4.156  30.060  0.00  0.00    +0.050 C 
ATOM     24  C   UNL     1      -4.327  -4.864  30.874  0.00  0.00    +0.072 C 
ATOM     25  N   UNL     1      -4.860  -3.606  31.418  0.00  0.00    -0.297 NA
ATOM     26  C   UNL     1      -3.762  -2.909  30.779  0.00  0.00    +0.072 C 
ATOM     27  H   UNL     1      -4.858  -3.552  32.437  0.00  0.00    +0.123 HD
ENDBRANCH   2  23
TORSDOF 3
