REMARK  Name = =
REMARK  4 active torsions:
REMARK  status: ('A' for Active; 'I' for Inactive)
REMARK    1  A    between atoms: N_1  and  C_15
REMARK    2  A    between atoms: C_2  and  C_21
REMARK    3  A    between atoms: C_3  and  C_10
REMARK    4  A    between atoms: N_23  and  S_25
REMARK                            x       y       z     vdW  Elec       q    Type
REMARK                         _______ _______ _______ _____ _____    ______ ____
ROOT
ATOM      1  N   UNL     1       0.296  -4.866  30.149  0.00  0.00    -0.286 N 
ATOM      2  C   UNL     1       0.644  -4.437  28.827  0.00  0.00    +0.087 C 
ATOM      3  C   UNL     1      -0.474  -4.907  28.015  0.00  0.00    +0.072 C 
ATOM      4  C   UNL     1      -1.615  -4.607  28.931  0.00  0.00    -0.005 C 
ATOM      5  C   UNL     1      -1.104  -4.624  30.210  0.00  0.00    +0.048 C 
ATOM      6  C   UNL     1      -1.970  -4.399  31.291  0.00  0.00    +0.015 C 
ATOM      7  C   UNL     1      -3.322  -4.160  31.084  0.00  0.00    +0.001 C 
ATOM      8  C   UNL     1      -3.809  -4.146  29.801  0.00  0.00    -0.000 C 
ATOM      9  C   UNL     1      -2.947  -4.370  28.751  0.00  0.00    -0.003 C 
ENDROOT
BRANCH   3  10
ATOM     10  C   UNL     1      -0.634  -6.345  27.685  0.00  0.00    +0.118 C 
ATOM     11  N   UNL     1      -1.242  -7.143  28.709  0.00  0.00    -0.285 NA
ATOM     12  C   UNL     1      -0.848  -8.494  28.366  0.00  0.00    +0.087 C 
ATOM     13  C   UNL     1       0.416  -8.387  27.528  0.00  0.00    +0.087 C 
ATOM     14  N   UNL     1       0.444  -7.025  27.077  0.00  0.00    -0.285 NA
ATOM     15  H   UNL     1      -2.257  -7.044  28.693  0.00  0.00    +0.124 HD
ATOM     16  H   UNL     1       0.346  -6.994  26.062  0.00  0.00    +0.124 HD
ENDBRANCH   3  10
BRANCH   1  17
ATOM     17  C   UNL     1       1.104  -5.398  31.146  0.00  0.00    +0.090 C 
ATOM     18  C   UNL     1       1.943  -4.559  31.902  0.00  0.00    +0.117 C 
ATOM     19  N   UNL     1       2.719  -5.033  32.882  0.00  0.00    -0.221 NA
ATOM     20  C   UNL     1       2.700  -6.336  33.154  0.00  0.00    +0.199 C 
ATOM     21  N   UNL     1       1.925  -7.166  32.469  0.00  0.00    -0.221 NA
ATOM     22  C   UNL     1       1.122  -6.737  31.467  0.00  0.00    +0.117 C 
ENDBRANCH   1  17
BRANCH   2  23
ATOM     23  C   UNL     1       2.025  -4.410  28.419  0.00  0.00    +0.053 C 
ATOM     24  C   UNL     1       2.214  -3.708  27.102  0.00  0.00    +0.085 C 
ATOM     25  N   UNL     1       3.208  -4.684  26.761  0.00  0.00    -0.239 NA
ATOM     26  C   UNL     1       2.874  -5.460  27.934  0.00  0.00    +0.085 C 
BRANCH  25  27
ATOM     27  S   UNL     1       4.786  -4.196  26.605  0.00  0.00    -0.101 S 
ATOM     28  C   UNL     1       5.283  -2.539  26.512  0.00  0.00    +0.143 C 
ATOM     29  C   UNL     1       6.078  -2.433  25.272  0.00  0.00    +0.240 C 
ATOM     30  O   UNL     1       6.920  -1.481  25.121  0.00  0.00    -0.274 OA
ATOM     31  N   UNL     1       5.782  -3.457  24.367  0.00  0.00    -0.246 N 
ATOM     32  C   UNL     1       5.575  -4.713  24.919  0.00  0.00    +0.272 C 
ATOM     33  O   UNL     1       5.737  -5.886  24.654  0.00  0.00    -0.263 OA
ATOM     34  H   UNL     1       5.150  -4.757  27.789  0.00  0.00    +0.107 HD
ATOM     35  H   UNL     1       5.724  -3.297  23.397  0.00  0.00    +0.158 HD
ENDBRANCH  25  27
ENDBRANCH   2  23
TORSDOF 4
