REMARK  Name = =
REMARK  5 active torsions:
REMARK  status: ('A' for Active; 'I' for Inactive)
REMARK    1  A    between atoms: N_1  and  C_33
REMARK    2  A    between atoms: C_2  and  C_39
REMARK    3  A    between atoms: C_3  and  C_28
REMARK    4  A    between atoms: C_6  and  C_10
REMARK    5  A    between atoms: N_41  and  S_43
REMARK                            x       y       z     vdW  Elec       q    Type
REMARK                         _______ _______ _______ _____ _____    ______ ____
ROOT
ATOM      1  N   UNL     1       3.772  -6.141  23.922  0.00  0.00    -0.286 N 
ATOM      2  C   UNL     1       4.264  -7.476  24.245  0.00  0.00    +0.087 C 
ATOM      3  C   UNL     1       4.187  -7.586  25.710  0.00  0.00    +0.072 C 
ATOM      4  C   UNL     1       4.124  -6.151  26.183  0.00  0.00    -0.005 C 
ATOM      5  C   UNL     1       3.946  -5.340  25.078  0.00  0.00    +0.048 C 
ATOM      6  C   UNL     1       3.907  -3.962  25.236  0.00  0.00    +0.013 C 
ATOM      7  C   UNL     1       4.039  -3.399  26.485  0.00  0.00    +0.001 C 
ATOM      8  C   UNL     1       4.214  -4.204  27.597  0.00  0.00    -0.000 C 
ATOM      9  C   UNL     1       4.252  -5.566  27.418  0.00  0.00    -0.003 C 
ENDROOT
BRANCH   6  10
ATOM     10  C   UNL     1       3.795  -3.073  24.117  0.00  0.00    +0.001 C 
ATOM     11  C   UNL     1       2.592  -2.488  23.798  0.00  0.00    -0.005 C 
ATOM     12  C   UNL     1       2.472  -1.597  22.738  0.00  0.00    -0.026 C 
ATOM     13  C   UNL     1       3.551  -1.256  21.953  0.00  0.00    -0.026 C 
ATOM     14  C   UNL     1       4.752  -1.842  22.273  0.00  0.00    -0.005 C 
ATOM     15  C   UNL     1       4.893  -2.727  23.320  0.00  0.00    -0.000 C 
ATOM     16  C   UNL     1       3.394  -0.302  20.831  0.00  0.00    +0.022 C 
ATOM     17  C   UNL     1       2.923  -0.944  19.570  0.00  0.00    +0.005 C 
ATOM     18  C   UNL     1       1.768  -0.272  18.912  0.00  0.00    +0.008 C 
ATOM     19  C   UNL     1       1.806   1.220  18.958  0.00  0.00    +0.058 C 
ATOM     20  C   UNL     1       2.351   1.795  20.210  0.00  0.00    +0.008 C 
ATOM     21  C   UNL     1       1.476   2.953  20.627  0.00  0.00    +0.008 C 
ATOM     22  C   UNL     1       0.195   2.817  19.878  0.00  0.00    +0.065 C 
ATOM     23  C   UNL     1       0.416   1.745  18.872  0.00  0.00    +0.150 C 
ATOM     24  O   UNL     1      -0.469   1.384  18.100  0.00  0.00    -0.296 OA
ATOM     25  C   UNL     1       2.574   0.837  21.325  0.00  0.00    +0.005 C 
ATOM     26  C   UNL     1       1.387   0.483  22.141  0.00  0.00    +0.005 C 
ATOM     27  C   UNL     1       1.171  -0.970  22.397  0.00  0.00    +0.026 C 
ENDBRANCH   6  10
BRANCH   3  28
ATOM     28  C   UNL     1       5.434  -8.096  26.377  0.00  0.00    +0.118 C 
ATOM     29  N   UNL     1       6.028  -9.214  25.673  0.00  0.00    -0.285 NA
ATOM     30  C   UNL     1       7.143  -9.522  26.556  0.00  0.00    +0.087 C 
ATOM     31  C   UNL     1       6.635  -9.151  27.947  0.00  0.00    +0.087 C 
ATOM     32  N   UNL     1       5.311  -8.613  27.687  0.00  0.00    -0.285 NA
ATOM     33  H   UNL     1       6.348  -8.946  24.742  0.00  0.00    +0.124 HD
ATOM     34  H   UNL     1       4.602  -9.346  27.728  0.00  0.00    +0.124 HD
ENDBRANCH   3  28
BRANCH   1  35
ATOM     35  C   UNL     1       3.215  -5.747  22.640  0.00  0.00    +0.090 C 
ATOM     36  C   UNL     1       1.867  -5.560  22.446  0.00  0.00    +0.117 C 
ATOM     37  N   UNL     1       1.362  -5.189  21.270  0.00  0.00    -0.221 NA
ATOM     38  C   UNL     1       2.177  -4.988  20.230  0.00  0.00    +0.199 C 
ATOM     39  N   UNL     1       3.492  -5.160  20.385  0.00  0.00    -0.221 NA
ATOM     40  C   UNL     1       4.046  -5.536  21.562  0.00  0.00    +0.117 C 
ENDBRANCH   1  35
BRANCH   2  41
ATOM     41  C   UNL     1       3.365  -8.411  23.484  0.00  0.00    +0.053 C 
ATOM     42  C   UNL     1       2.535  -9.373  24.280  0.00  0.00    +0.085 C 
ATOM     43  N   UNL     1       2.779 -10.362  23.246  0.00  0.00    -0.239 NA
ATOM     44  C   UNL     1       4.001  -9.629  22.864  0.00  0.00    +0.085 C 
BRANCH  43  45
ATOM     45  S   UNL     1       1.547 -10.226  22.053  0.00  0.00    -0.101 S 
ATOM     46  C   UNL     1       0.043 -11.087  22.393  0.00  0.00    +0.143 C 
ATOM     47  C   UNL     1       0.081 -12.193  21.432  0.00  0.00    +0.240 C 
ATOM     48  O   UNL     1      -0.509 -13.304  21.659  0.00  0.00    -0.274 OA
ATOM     49  N   UNL     1       0.820 -11.898  20.265  0.00  0.00    -0.246 N 
ATOM     50  C   UNL     1       2.012 -11.189  20.509  0.00  0.00    +0.272 C 
ATOM     51  O   UNL     1       3.115 -11.106  19.976  0.00  0.00    -0.263 OA
ATOM     52  H   UNL     1       1.407  -8.876  21.973  0.00  0.00    +0.107 HD
ATOM     53  H   UNL     1       0.528 -12.164  19.363  0.00  0.00    +0.158 HD
ENDBRANCH  43  45
ENDBRANCH   2  41
TORSDOF 5
