REMARK  Name = =
REMARK  3 active torsions:
REMARK  status: ('A' for Active; 'I' for Inactive)
REMARK    1  A    between atoms: C_2  and  C_7
REMARK    2  A    between atoms: C_7  and  C_10
REMARK    3  A    between atoms: C_28  and  C_31
REMARK                            x       y       z     vdW  Elec       q    Type
REMARK                         _______ _______ _______ _____ _____    ______ ____
ROOT
ATOM      1  C   UNL     1      -9.685 -43.734  32.268  0.00  0.00    -0.016 C 
ATOM      2  C   UNL     1      -8.417 -43.512  32.798  0.00  0.00    -0.004 C 
ATOM      3  C   UNL     1      -8.190 -42.596  33.827  0.00  0.00    +0.003 C 
ATOM      4  C   UNL     1      -9.240 -41.887  34.333  0.00  0.00    +0.037 C 
ATOM      5  C   UNL     1     -10.526 -42.103  33.805  0.00  0.00    +0.145 C 
ATOM      6  C   UNL     1     -10.719 -43.017  32.796  0.00  0.00    +0.031 C 
ATOM      7  C   UNL     1     -12.079 -43.372  32.429  0.00  0.00    +0.002 C 
ATOM      8  C   UNL     1     -13.130 -42.431  32.890  0.00  0.00    +0.017 C 
ATOM      9  C   UNL     1     -12.833 -41.522  33.876  0.00  0.00    +0.142 C 
ATOM     10  O   UNL     1     -11.550 -41.360  34.339  0.00  0.00    -0.454 OA
ATOM     11  C   UNL     1     -13.871 -40.752  34.384  0.00  0.00    +0.037 C 
ATOM     12  C   UNL     1     -15.157 -40.898  33.905  0.00  0.00    -0.001 C 
ATOM     13  C   UNL     1     -15.467 -41.804  32.912  0.00  0.00    -0.021 C 
ATOM     14  C   UNL     1     -14.436 -42.570  32.410  0.00  0.00    +0.055 C 
ENDROOT
BRANCH   1  15
ATOM     15  C   UNL     1      -9.744 -44.361  30.889  0.00  0.00    +0.038 C 
ATOM     16  C   UNL     1     -11.186 -45.096  30.864  0.00  0.00    +0.009 C 
ATOM     17  C   UNL     1      -9.861 -45.785  30.859  0.00  0.00    +0.009 C 
BRANCH  15  19
ATOM     18  C   UNL     1     -10.935 -43.280  28.958  0.00  0.00    -0.004 C 
ATOM     19  C   UNL     1      -9.877 -43.373  29.802  0.00  0.00    -0.019 C 
ATOM     20  C   UNL     1      -8.788 -42.583  29.475  0.00  0.00    -0.004 C 
ATOM     21  C   UNL     1      -8.746 -41.737  28.372  0.00  0.00    -0.000 C 
ATOM     22  C   UNL     1      -9.827 -41.662  27.543  0.00  0.00    -0.000 C 
ATOM     23  C   UNL     1     -10.918 -42.428  27.830  0.00  0.00    -0.000 C 
ENDBRANCH  15  19
ENDBRANCH   1  15
TORSDOF 2
REMARK  Name = =
REMARK  3 active torsions:
REMARK  status: ('A' for Active; 'I' for Inactive)
REMARK    1  A    between atoms: C_2  and  C_7
REMARK    2  A    between atoms: C_7  and  C_10
REMARK    3  A    between atoms: C_28  and  C_31
REMARK                            x       y       z     vdW  Elec       q    Type
REMARK                         _______ _______ _______ _____ _____    ______ ____
ROOT
ATOM      1  I   UNL     1     -12.648 -44.423  29.234  0.00  0.00    -0.107 I 
ATOM      2  H   UNL     1     -11.087 -44.423  29.234  0.00  0.00    +0.107 HD
ENDROOT
TORSDOF 0
REMARK  Name = =
REMARK  3 active torsions:
REMARK  status: ('A' for Active; 'I' for Inactive)
REMARK    1  A    between atoms: C_2  and  C_7
REMARK    2  A    between atoms: C_7  and  C_10
REMARK    3  A    between atoms: C_28  and  C_31
REMARK                            x       y       z     vdW  Elec       q    Type
REMARK                         _______ _______ _______ _____ _____    ______ ____
ROOT
ATOM      1  C   UNL     1     -16.934 -41.905  25.276  0.00  0.00    +0.150 C 
ATOM      2  C   UNL     1     -18.274 -41.787  25.562  0.00  0.00    +0.038 C 
ATOM      3  C   UNL     1     -19.165 -41.249  24.644  0.00  0.00    +0.010 C 
ATOM      4  C   UNL     1     -18.658 -40.837  23.435  0.00  0.00    +0.082 C 
ATOM      5  C   UNL     1     -17.314 -40.975  23.196  0.00  0.00    +0.346 C 
ATOM      6  O   UNL     1     -16.883 -40.582  22.069  0.00  0.00    -0.244 OA
ATOM      7  O   UNL     1     -16.523 -41.490  24.101  0.00  0.00    -0.421 OA
ENDROOT
BRANCH   1  11
ATOM      8  C   UNL     1     -14.091 -43.574  27.982  0.00  0.00    +0.099 C 
ATOM      9  C   UNL     1     -13.914 -43.669  26.616  0.00  0.00    +0.021 C 
ATOM     10  C   UNL     1     -14.841 -43.125  25.748  0.00  0.00    +0.006 C 
ATOM     11  C   UNL     1     -15.979 -42.466  26.222  0.00  0.00    +0.054 C 
ATOM     12  C   UNL     1     -16.112 -42.398  27.582  0.00  0.00    +0.102 C 
ATOM     13  N   UNL     1     -15.188 -42.940  28.418  0.00  0.00    -0.242 NA
ENDBRANCH   1  11
TORSDOF 1
