REMARK  Name = =
REMARK  6 active torsions:
REMARK  status: ('A' for Active; 'I' for Inactive)
REMARK    1  A    between atoms: C_2  and  N_13
REMARK    2  A    between atoms: C_9  and  C_10
REMARK    3  A    between atoms: C_10  and  O_12
REMARK    4  A    between atoms: N_13  and  N_14
REMARK    5  A    between atoms: N_13  and  C_18
REMARK    6  A    between atoms: C_15  and  O_17
REMARK                            x       y       z     vdW  Elec       q    Type
REMARK                         _______ _______ _______ _____ _____    ______ ____
ROOT
ATOM      1  N   UNL     1     -11.499 -43.074  30.246  0.00  0.00    -0.234 N 
ATOM      2  C   UNL     1     -10.835 -44.080  31.063  0.00  0.00    +0.176 C 
ATOM      3  C   UNL     1     -11.921 -43.797  32.081  0.00  0.00    +0.132 C 
ATOM      4  C   UNL     1     -11.937 -42.457  31.436  0.00  0.00    +0.235 C 
ATOM      5  O   UNL     1     -12.207 -41.268  31.747  0.00  0.00    -0.274 OA
ATOM      6  S   UNL     1     -11.068 -45.730  30.359  0.00  0.00    -0.101 S 
ATOM      7  C   UNL     1     -11.577 -45.593  28.653  0.00  0.00    +0.088 C 
ATOM      8  C   UNL     1     -11.490 -44.213  28.168  0.00  0.00    +0.007 C 
ATOM      9  C   UNL     1     -11.457 -43.106  28.846  0.00  0.00    +0.128 C 
ENDROOT
BRANCH   9  10
ATOM     10  C   UNL     1     -11.385 -41.808  28.139  0.00  0.00    +0.352 C 
ATOM     11  O   UNL     1     -11.097 -40.733  28.712  0.00  0.00    -0.244 OA
BRANCH  10  12
ATOM     12  O   UNL     1     -11.645 -41.734  26.756  0.00  0.00    -0.476 OA
ATOM     13  H   UNL     1     -11.865 -42.510  26.279  0.00  0.00    +0.295 HD
ENDBRANCH  10  12
ENDBRANCH   9  10
BRANCH   2  14
ATOM     14  N   UNL     1      -9.539 -43.775  31.504  0.00  0.00    -0.180 NA
BRANCH  14  15
ATOM     15  N   UNL     1      -8.480 -44.272  30.820  0.00  0.00    -0.210 N 
ATOM     16  C   UNL     1      -7.986 -45.623  30.959  0.00  0.00    +0.412 C 
ATOM     17  O   UNL     1      -8.564 -46.384  31.756  0.00  0.00    -0.225 OA
ATOM     18  H   UNL     1      -8.018 -43.675  30.188  0.00  0.00    +0.173 HD
BRANCH  16  19
ATOM     19  O   UNL     1      -6.891 -46.072  30.224  0.00  0.00    -0.465 OA
ATOM     20  H   UNL     1      -6.460 -45.494  29.625  0.00  0.00    +0.297 HD
ENDBRANCH  16  19
ENDBRANCH  14  15
BRANCH  14  21
ATOM     21  C   UNL     1      -9.350 -43.112  32.723  0.00  0.00    +0.095 C 
ATOM     22  C   UNL     1      -7.901 -42.722  32.897  0.00  0.00    +0.021 C 
ENDBRANCH  14  21
ENDBRANCH   2  14
TORSDOF 6
