REMARK  Name = =
REMARK  0 active torsions:
REMARK  status: ('A' for Active; 'I' for Inactive)
REMARK                            x       y       z     vdW  Elec       q    Type
REMARK                         _______ _______ _______ _____ _____    ______ ____
ROOT
ATOM      1  C   UNL     1      -3.802  -3.906  31.145  0.00  0.00    +0.000 C 
ATOM      2  C   UNL     1      -4.551  -2.757  30.987  0.00  0.00    +0.000 C 
ATOM      3  C   UNL     1      -5.489  -2.397  31.945  0.00  0.00    +0.000 C 
ATOM      4  C   UNL     1      -5.628  -3.238  33.040  0.00  0.00    +0.000 C 
ATOM      5  C   UNL     1      -4.879  -4.378  33.188  0.00  0.00    +0.000 C 
ATOM      6  C   UNL     1      -3.945  -4.738  32.238  0.00  0.00    +0.000 C 
ENDROOT
TORSDOF 0
