REMARK  Name = =
REMARK  1 active torsions:
REMARK  status: ('A' for Active; 'I' for Inactive)
REMARK    1  A    between atoms: S_1  and  C_6
REMARK                            x       y       z     vdW  Elec       q    Type
REMARK                         _______ _______ _______ _____ _____    ______ ____
ROOT
ATOM      1  S   UNL     1      -1.746  -4.021  29.540  0.00  0.00    -0.175 S 
ATOM      2  C   UNL     1      -1.145  -5.660  28.662  0.00  0.00    +0.150 C 
ATOM      3  N   UNL     1      -0.023  -5.749  29.103  0.00  0.00    -0.139 NA
ATOM      4  N   UNL     1       0.579  -4.917  29.955  0.00  0.00    -0.217 NA
ATOM      5  C   UNL     1      -0.027  -3.600  30.021  0.00  0.00    +0.128 C 
ATOM      6  H   UNL     1      -2.472  -3.074  28.888  0.00  0.00    +0.091 HD
ATOM      7  H   UNL     1       1.551  -4.809  29.665  0.00  0.00    +0.144 HD
ENDROOT
BRANCH   1   8
ATOM      8  C   UNL     1      -2.822  -4.434  30.909  0.00  0.00    +0.009 C 
ATOM      9  C   UNL     1      -3.590  -3.453  31.494  0.00  0.00    +0.005 C 
ATOM     10  C   UNL     1      -4.417  -3.769  32.543  0.00  0.00    +0.000 C 
ATOM     11  C   UNL     1      -4.490  -5.048  33.019  0.00  0.00    +0.000 C 
ATOM     12  C   UNL     1      -3.724  -6.028  32.434  0.00  0.00    +0.000 C 
ATOM     13  C   UNL     1      -2.896  -5.704  31.381  0.00  0.00    +0.005 C 
ENDBRANCH   1   8
TORSDOF 1
