REMARK  Name = =
REMARK  2 active torsions:
REMARK  status: ('A' for Active; 'I' for Inactive)
REMARK    1  A    between atoms: S_1  and  C_13
REMARK    2  A    between atoms: C_2  and  C_6
REMARK                            x       y       z     vdW  Elec       q    Type
REMARK                         _______ _______ _______ _____ _____    ______ ____
ROOT
ATOM      1  S   UNL     1       1.367 -10.881  23.155  0.00  0.00    -0.152 S 
ATOM      2  C   UNL     1       2.382  -9.628  24.012  0.00  0.00    +0.127 C 
ATOM      3  N   UNL     1       1.905  -8.528  23.630  0.00  0.00    -0.181 NA
ATOM      4  N   UNL     1       0.860  -8.534  22.759  0.00  0.00    -0.247 N 
ATOM      5  C   UNL     1      -0.031  -9.629  22.939  0.00  0.00    +0.153 C 
ATOM      6  H   UNL     1       1.943 -11.524  22.104  0.00  0.00    +0.095 HD
ATOM      7  H   UNL     1       0.732  -7.845  22.068  0.00  0.00    +0.170 HD
ENDROOT
BRANCH   2   8
ATOM      8  C   UNL     1       3.489  -9.947  24.929  0.00  0.00    +0.214 C 
ATOM      9  C   UNL     1       2.966 -10.389  26.267  0.00  0.00    +0.051 C 
ATOM     10  C   UNL     1       4.110 -10.214  27.269  0.00  0.00    +0.016 C 
ATOM     11  C   UNL     1       4.344  -8.752  27.578  0.00  0.00    +0.110 C 
ATOM     12  C   UNL     1       4.150  -8.002  26.297  0.00  0.00    +0.317 C 
ATOM     13  O   UNL     1       3.945  -6.741  26.296  0.00  0.00    -0.250 OA
ATOM     14  O   UNL     1       4.207  -8.745  25.130  0.00  0.00    -0.446 OA
ENDBRANCH   2   8
BRANCH   1  15
ATOM     15  C   UNL     1       0.940 -12.350  23.903  0.00  0.00    +0.012 C 
ATOM     16  C   UNL     1       0.235 -12.408  25.087  0.00  0.00    +0.005 C 
ATOM     17  C   UNL     1      -0.106 -13.613  25.684  0.00  0.00    +0.000 C 
ATOM     18  C   UNL     1       0.258 -14.806  25.094  0.00  0.00    +0.000 C 
ATOM     19  C   UNL     1       0.961 -14.774  23.913  0.00  0.00    +0.000 C 
ATOM     20  C   UNL     1       1.293 -13.552  23.331  0.00  0.00    +0.005 C 
ENDBRANCH   1  15
TORSDOF 2
