REMARK  Name = =
REMARK  3 active torsions:
REMARK  status: ('A' for Active; 'I' for Inactive)
REMARK    1  A    between atoms: S_1  and  C_13
REMARK    2  A    between atoms: C_2  and  C_6
REMARK    3  A    between atoms: N_4  and  C_19
REMARK                            x       y       z     vdW  Elec       q    Type
REMARK                         _______ _______ _______ _____ _____    ______ ____
ROOT
ATOM      1  S   UNL     1       3.791  -5.670  19.982  0.00  0.00    -0.152 S 
ATOM      2  C   UNL     1       4.541  -4.034  20.303  0.00  0.00    +0.127 C 
ATOM      3  N   UNL     1       5.589  -3.981  19.612  0.00  0.00    -0.177 NA
ATOM      4  N   UNL     1       5.888  -5.082  18.847  0.00  0.00    -0.221 N 
ATOM      5  C   UNL     1       4.755  -5.738  18.302  0.00  0.00    +0.157 C 
ATOM      6  H   UNL     1       3.893  -6.597  20.972  0.00  0.00    +0.095 HD
ENDROOT
BRANCH   2   7
ATOM      7  C   UNL     1       3.990  -3.022  21.197  0.00  0.00    +0.214 C 
ATOM      8  C   UNL     1       5.108  -2.411  21.983  0.00  0.00    +0.051 C 
ATOM      9  C   UNL     1       5.462  -3.207  23.216  0.00  0.00    +0.016 C 
ATOM     10  C   UNL     1       4.258  -3.513  24.063  0.00  0.00    +0.110 C 
ATOM     11  C   UNL     1       2.971  -3.353  23.348  0.00  0.00    +0.317 C 
ATOM     12  O   UNL     1       1.954  -3.042  24.017  0.00  0.00    -0.250 OA
ATOM     13  O   UNL     1       2.958  -3.555  21.983  0.00  0.00    -0.446 OA
ENDBRANCH   2   7
BRANCH   1  14
ATOM     14  C   UNL     1       2.130  -5.909  19.855  0.00  0.00    +0.012 C 
ATOM     15  C   UNL     1       1.438  -6.800  20.663  0.00  0.00    +0.005 C 
ATOM     16  C   UNL     1       0.080  -7.010  20.577  0.00  0.00    +0.000 C 
ATOM     17  C   UNL     1      -0.664  -6.312  19.649  0.00  0.00    +0.000 C 
ATOM     18  C   UNL     1       0.008  -5.423  18.838  0.00  0.00    +0.000 C 
ATOM     19  C   UNL     1       1.369  -5.222  18.934  0.00  0.00    +0.005 C 
ENDBRANCH   1  14
BRANCH   4  20
ATOM     20  C   UNL     1       7.243  -5.609  18.563  0.00  0.00    +0.124 C 
ATOM     21  C   UNL     1       8.012  -4.820  17.560  0.00  0.00    +0.092 C 
ATOM     22  N   UNL     1       8.219  -6.057  16.803  0.00  0.00    -0.295 NA
ATOM     23  C   UNL     1       7.125  -6.691  17.499  0.00  0.00    +0.092 C 
ATOM     24  H   UNL     1       8.068  -5.957  15.799  0.00  0.00    +0.123 HD
ENDBRANCH   4  20
TORSDOF 3
