REMARK  Name = =
REMARK  5 active torsions:
REMARK  status: ('A' for Active; 'I' for Inactive)
REMARK    1  A    between atoms: S_1  and  C_13
REMARK    2  A    between atoms: C_2  and  C_6
REMARK    3  A    between atoms: N_4  and  C_19
REMARK    4  A    between atoms: C_20  and  C_23
REMARK    5  A    between atoms: C_25  and  O_30
REMARK                            x       y       z     vdW  Elec       q    Type
REMARK                         _______ _______ _______ _____ _____    ______ ____
ROOT
ATOM      1  S   UNL     1       1.401  -8.947  21.652  0.00  0.00    -0.152 S 
ATOM      2  C   UNL     1      -0.231  -9.733  21.975  0.00  0.00    +0.127 C 
ATOM      3  N   UNL     1      -1.061  -8.889  21.584  0.00  0.00    -0.177 NA
ATOM      4  N   UNL     1      -0.665  -7.710  21.064  0.00  0.00    -0.221 N 
ATOM      5  C   UNL     1       0.720  -7.353  21.257  0.00  0.00    +0.157 C 
ATOM      6  H   UNL     1       2.335  -8.983  22.640  0.00  0.00    +0.095 HD
ENDROOT
BRANCH   2   7
ATOM      7  C   UNL     1      -0.399 -11.074  22.572  0.00  0.00    +0.214 C 
ATOM      8  C   UNL     1       0.299 -11.174  23.906  0.00  0.00    +0.051 C 
ATOM      9  C   UNL     1       0.115 -12.562  24.462  0.00  0.00    +0.016 C 
ATOM     10  C   UNL     1       0.740 -13.620  23.587  0.00  0.00    +0.110 C 
ATOM     11  C   UNL     1       0.620 -13.277  22.154  0.00  0.00    +0.317 C 
ATOM     12  O   UNL     1       1.009 -14.119  21.313  0.00  0.00    -0.250 OA
ATOM     13  O   UNL     1       0.105 -12.093  21.735  0.00  0.00    -0.446 OA
ENDBRANCH   2   7
BRANCH   1  14
ATOM     14  C   UNL     1       2.413  -9.722  20.452  0.00  0.00    +0.012 C 
ATOM     15  C   UNL     1       1.836 -10.204  19.320  0.00  0.00    +0.005 C 
ATOM     16  C   UNL     1       2.562 -10.837  18.313  0.00  0.00    +0.000 C 
ATOM     17  C   UNL     1       3.925 -10.996  18.441  0.00  0.00    +0.000 C 
ATOM     18  C   UNL     1       4.502 -10.503  19.592  0.00  0.00    +0.000 C 
ATOM     19  C   UNL     1       3.775  -9.879  20.583  0.00  0.00    +0.005 C 
ENDBRANCH   1  14
BRANCH   4  20
ATOM     20  C   UNL     1      -1.564  -6.795  20.330  0.00  0.00    +0.124 C 
ATOM     21  C   UNL     1      -2.966  -6.742  20.893  0.00  0.00    +0.094 C 
ATOM     22  N   UNL     1      -3.301  -7.784  19.906  0.00  0.00    -0.294 NA
ATOM     23  C   UNL     1      -2.105  -7.478  19.104  0.00  0.00    +0.092 C 
ATOM     24  H   UNL     1      -4.178  -7.615  19.414  0.00  0.00    +0.123 HD
BRANCH  21  25
ATOM     25  C   UNL     1      -3.733  -5.502  20.595  0.00  0.00    +0.095 C 
ATOM     26  N   UNL     1      -4.907  -5.319  21.421  0.00  0.00    -0.246 N 
ATOM     27  C   UNL     1      -5.526  -6.256  22.260  0.00  0.00    +0.402 C 
ATOM     28  O   UNL     1      -5.102  -7.436  22.397  0.00  0.00    -0.226 OA
ATOM     29  C   UNL     1      -5.347  -3.943  21.221  0.00  0.00    +0.097 C 
ATOM     30  C   UNL     1      -4.121  -3.193  20.731  0.00  0.00    +0.023 C 
ATOM     31  C   UNL     1      -2.989  -4.224  20.827  0.00  0.00    +0.023 C 
BRANCH  27  32
ATOM     32  O   UNL     1      -6.653  -5.890  22.977  0.00  0.00    -0.466 OA
ATOM     33  H   UNL     1      -6.996  -5.021  22.900  0.00  0.00    +0.297 HD
ENDBRANCH  27  32
ENDBRANCH  21  25
ENDBRANCH   4  20
TORSDOF 5
