REMARK  Name = =
REMARK  6 active torsions:
REMARK  status: ('A' for Active; 'I' for Inactive)
REMARK    1  A    between atoms: S_1  and  C_13
REMARK    2  A    between atoms: C_2  and  C_6
REMARK    3  A    between atoms: N_4  and  C_25
REMARK    4  A    between atoms: C_17  and  N_19
REMARK    5  A    between atoms: C_26  and  C_29
REMARK    6  A    between atoms: C_31  and  O_36
REMARK                            x       y       z     vdW  Elec       q    Type
REMARK                         _______ _______ _______ _____ _____    ______ ____
ROOT
ATOM      1  S   UNL     1       0.257  -8.855  22.118  0.00  0.00    -0.152 S 
ATOM      2  C   UNL     1      -0.475  -9.995  20.844  0.00  0.00    +0.127 C 
ATOM      3  N   UNL     1      -0.959  -9.230  20.002  0.00  0.00    -0.177 NA
ATOM      4  N   UNL     1      -0.868  -7.871  20.165  0.00  0.00    -0.221 N 
ATOM      5  C   UNL     1       0.264  -7.448  20.990  0.00  0.00    +0.157 C 
ATOM      6  H   UNL     1      -0.366  -8.681  23.314  0.00  0.00    +0.095 HD
ENDROOT
BRANCH   2   7
ATOM      7  C   UNL     1      -0.385 -11.466  20.996  0.00  0.00    +0.214 C 
ATOM      8  C   UNL     1      -1.216 -12.201  20.004  0.00  0.00    +0.051 C 
ATOM      9  C   UNL     1      -0.782 -13.640  19.919  0.00  0.00    +0.016 C 
ATOM     10  C   UNL     1       0.635 -13.773  19.402  0.00  0.00    +0.110 C 
ATOM     11  C   UNL     1       1.436 -12.552  19.769  0.00  0.00    +0.317 C 
ATOM     12  O   UNL     1       2.473 -12.264  19.125  0.00  0.00    -0.250 OA
ATOM     13  O   UNL     1       0.972 -11.807  20.814  0.00  0.00    -0.446 OA
ENDBRANCH   2   7
BRANCH   1  14
ATOM     14  C   UNL     1       1.800  -9.389  22.791  0.00  0.00    +0.013 C 
ATOM     15  C   UNL     1       2.974  -8.748  22.499  0.00  0.00    +0.005 C 
ATOM     16  C   UNL     1       4.181  -9.165  23.019  0.00  0.00    +0.002 C 
ATOM     17  C   UNL     1       4.160 -10.261  23.852  0.00  0.00    +0.015 C 
ATOM     18  C   UNL     1       2.996 -10.924  24.166  0.00  0.00    +0.050 C 
ATOM     19  C   UNL     1       1.818 -10.463  23.615  0.00  0.00    +0.019 C 
BRANCH  18  20
ATOM     20  N   UNL     1       3.021 -12.061  25.034  0.00  0.00    -0.287 N 
ATOM     21  C   UNL     1       1.807 -12.723  25.437  0.00  0.00    +0.185 C 
ATOM     22  N   UNL     1       1.990 -13.338  26.754  0.00  0.00    -0.315 N 
ATOM     23  C   UNL     1       3.161 -14.133  26.895  0.00  0.00    +0.056 C 
ATOM     24  C   UNL     1       4.258 -13.753  26.294  0.00  0.00    +0.011 C 
ATOM     25  C   UNL     1       4.293 -12.525  25.485  0.00  0.00    +0.120 C 
ATOM     26  H   UNL     1       1.348 -13.210  27.489  0.00  0.00    +0.148 HD
ENDBRANCH  18  20
ENDBRANCH   1  14
BRANCH   4  27
ATOM     27  C   UNL     1      -1.785  -6.862  19.588  0.00  0.00    +0.124 C 
ATOM     28  C   UNL     1      -2.331  -5.863  20.524  0.00  0.00    +0.094 C 
ATOM     29  N   UNL     1      -1.653  -4.810  19.878  0.00  0.00    -0.294 NA
ATOM     30  C   UNL     1      -0.976  -5.729  19.021  0.00  0.00    +0.092 C 
ATOM     31  H   UNL     1      -1.031  -4.284  20.491  0.00  0.00    +0.123 HD
BRANCH  28  32
ATOM     32  C   UNL     1      -3.748  -5.779  20.848  0.00  0.00    +0.095 C 
ATOM     33  N   UNL     1      -4.778  -5.627  19.918  0.00  0.00    -0.246 N 
ATOM     34  C   UNL     1      -4.875  -5.309  18.583  0.00  0.00    +0.402 C 
ATOM     35  O   UNL     1      -6.024  -5.233  18.022  0.00  0.00    -0.226 OA
ATOM     36  C   UNL     1      -6.031  -5.936  20.699  0.00  0.00    +0.097 C 
ATOM     37  C   UNL     1      -5.604  -6.791  21.844  0.00  0.00    +0.023 C 
ATOM     38  C   UNL     1      -4.157  -7.076  21.600  0.00  0.00    +0.023 C 
BRANCH  34  39
ATOM     39  O   UNL     1      -3.815  -5.057  17.759  0.00  0.00    -0.466 OA
ATOM     40  H   UNL     1      -2.941  -5.093  18.095  0.00  0.00    +0.297 HD
ENDBRANCH  34  39
ENDBRANCH  28  32
ENDBRANCH   4  27
TORSDOF 6
