REMARK  Name = =
REMARK  0 active torsions:
REMARK  status: ('A' for Active; 'I' for Inactive)
REMARK                            x       y       z     vdW  Elec       q    Type
REMARK                         _______ _______ _______ _____ _____    ______ ____
ROOT
ATOM      1  C   UNL     1      -4.358  -4.123  30.761  0.00  0.00    +0.168 C 
ATOM      2  O   UNL     1      -3.568  -4.069  29.645  0.00  0.00    -0.473 OA
ATOM      3  C   UNL     1      -2.229  -4.187  29.998  0.00  0.00    +0.206 C 
ATOM      4  C   UNL     1      -2.028  -5.674  30.309  0.00  0.00    +0.052 C 
ATOM      5  C   UNL     1      -2.820  -5.962  31.543  0.00  0.00    +0.033 C 
ATOM      6  C   UNL     1      -3.890  -4.992  31.856  0.00  0.00    +0.014 C 
ENDROOT
TORSDOF 0
