REMARK  Name = =
REMARK  1 active torsions:
REMARK  status: ('A' for Active; 'I' for Inactive)
REMARK    1  A    between atoms: C_1  and  C_6
REMARK                            x       y       z     vdW  Elec       q    Type
REMARK                         _______ _______ _______ _____ _____    ______ ____
ROOT
ATOM      1  C   UNL     1      -4.679  -2.479  31.319  0.00  0.00    +0.140 C 
ATOM      2  N   UNL     1      -4.439  -2.702  32.720  0.00  0.00    -0.283 NA
ATOM      3  C   UNL     1      -5.721  -2.966  33.337  0.00  0.00    +0.087 C 
ATOM      4  C   UNL     1      -6.666  -2.310  32.354  0.00  0.00    +0.087 C 
ATOM      5  N   UNL     1      -6.085  -2.782  31.087  0.00  0.00    -0.283 NA
ATOM      6  H   UNL     1      -4.014  -1.874  33.138  0.00  0.00    +0.125 HD
ATOM      7  H   UNL     1      -6.238  -3.781  30.950  0.00  0.00    +0.125 HD
ENDROOT
BRANCH   1   8
ATOM      8  C   UNL     1      -3.776  -3.269  30.421  0.00  0.00    +0.149 C 
ATOM      9  O   UNL     1      -2.502  -2.707  30.508  0.00  0.00    -0.348 OA
ATOM     10  C   UNL     1      -1.747  -3.322  29.513  0.00  0.00    +0.168 C 
ATOM     11  C   UNL     1      -1.475  -4.736  29.867  0.00  0.00    +0.001 C 
ATOM     12  C   UNL     1      -2.512  -5.425  30.660  0.00  0.00    -0.026 C 
ATOM     13  C   UNL     1      -3.809  -4.706  30.807  0.00  0.00    +0.058 C 
ENDBRANCH   1   8
TORSDOF 1
