REMARK  Name = =
REMARK  3 active torsions:
REMARK  status: ('A' for Active; 'I' for Inactive)
REMARK    1  A    between atoms: C_1  and  C_7
REMARK    2  A    between atoms: C_1  and  C_12
REMARK    3  A    between atoms: C_12  and  C_14
REMARK                            x       y       z     vdW  Elec       q    Type
REMARK                         _______ _______ _______ _____ _____    ______ ____
ROOT
ATOM      1  C   UNL     1      -3.156  -3.701  30.626  0.00  0.00    +0.177 C 
ATOM      2  O   UNL     1      -2.142  -4.217  31.427  0.00  0.00    -0.348 OA
ATOM      3  C   UNL     1      -2.408  -5.489  31.899  0.00  0.00    +0.143 C 
ATOM      4  C   UNL     1      -2.662  -6.492  30.804  0.00  0.00    +0.032 C 
ATOM      5  C   UNL     1      -2.475  -5.745  29.480  0.00  0.00    +0.006 C 
ATOM      6  C   UNL     1      -3.508  -4.630  29.486  0.00  0.00    +0.038 C 
ENDROOT
BRANCH   1   7
ATOM      7  C   UNL     1      -4.398  -3.462  31.431  0.00  0.00    +0.145 C 
ATOM      8  N   UNL     1      -4.264  -2.415  32.415  0.00  0.00    -0.283 NA
ATOM      9  C   UNL     1      -5.593  -1.871  32.631  0.00  0.00    +0.087 C 
ATOM     10  C   UNL     1      -6.479  -2.790  31.783  0.00  0.00    +0.087 C 
ATOM     11  N   UNL     1      -5.543  -3.024  30.660  0.00  0.00    -0.283 NA
ATOM     12  H   UNL     1      -3.638  -1.687  32.070  0.00  0.00    +0.125 HD
ATOM     13  H   UNL     1      -5.878  -3.747  30.023  0.00  0.00    +0.125 HD
ENDBRANCH   1   7
BRANCH   1  14
ATOM     14  C   UNL     1      -2.618  -2.456  30.019  0.00  0.00    +0.242 C 
ATOM     15  O   UNL     1      -3.325  -1.397  29.902  0.00  0.00    -0.285 OA
BRANCH  14  16
ATOM     16  C   UNL     1      -1.252  -2.367  29.519  0.00  0.00    +0.274 C 
ATOM     17  O   UNL     1      -0.521  -3.389  29.622  0.00  0.00    -0.280 OA
ENDBRANCH  14  16
ENDBRANCH   1  14
TORSDOF 3
