REMARK  Name = =
REMARK  0 active torsions:
REMARK  status: ('A' for Active; 'I' for Inactive)
REMARK                            x       y       z     vdW  Elec       q    Type
REMARK                         _______ _______ _______ _____ _____    ______ ____
ROOT
ATOM      1  C   UNL     1      51.569 153.955  28.957  0.00  0.00    +0.027 C 
ATOM      2  C   UNL     1      51.538 155.096  27.977  0.00  0.00    +0.013 C 
ATOM      3  C   UNL     1      51.833 154.643  26.562  0.00  0.00    +0.069 C 
ATOM      4  C   UNL     1      52.930 153.619  26.554  0.00  0.00    +0.173 C 
ATOM      5  O   UNL     1      53.263 153.100  25.470  0.00  0.00    -0.291 OA
ATOM      6  C   UNL     1      53.561 153.276  27.821  0.00  0.00    +0.033 C 
ATOM      7  C   UNL     1      52.951 153.420  28.984  0.00  0.00    -0.023 C 
ENDROOT
TORSDOF 0
