REMARK  Name = =
REMARK  3 active torsions:
REMARK  status: ('A' for Active; 'I' for Inactive)
REMARK    1  A    between atoms: P_1  and  N_3
REMARK    2  A    between atoms: P_1  and  N_4
REMARK    3  A    between atoms: P_1  and  N_5
REMARK                            x       y       z     vdW  Elec       q    Type
REMARK                         _______ _______ _______ _____ _____    ______ ____
ROOT
ATOM      1  P   UNL     1      52.658 154.755  27.813  0.00  0.00    +0.273 P 
ATOM      2  O   UNL     1      53.188 155.245  26.494  0.00  0.00    -0.270 OA
ENDROOT
BRANCH   1   3
ATOM      3  N   UNL     1      50.961 154.293  27.692  0.00  0.00    -0.257 NA
ATOM      4  H   UNL     1      50.632 153.966  28.600  0.00  0.00    +0.128 HD
ATOM      5  H   UNL     1      50.860 153.546  27.005  0.00  0.00    +0.128 HD
ENDBRANCH   1   3
BRANCH   1   6
ATOM      6  N   UNL     1      52.785 156.062  28.959  0.00  0.00    -0.257 NA
ATOM      7  H   UNL     1      53.761 156.346  29.045  0.00  0.00    +0.128 HD
ATOM      8  H   UNL     1      52.440 155.752  29.868  0.00  0.00    +0.128 HD
ENDBRANCH   1   6
BRANCH   1   9
ATOM      9  N   UNL     1      53.528 153.373  28.416  0.00  0.00    -0.257 NA
ATOM     10  H   UNL     1      54.518 153.604  28.499  0.00  0.00    +0.128 HD
ATOM     11  H   UNL     1      53.415 152.592  27.770  0.00  0.00    +0.128 HD
ENDBRANCH   1   9
TORSDOF 3
