REMARK  Name = =
REMARK  1 active torsions:
REMARK  status: ('A' for Active; 'I' for Inactive)
REMARK    1  A    between atoms: C_1  and  C_8
REMARK                            x       y       z     vdW  Elec       q    Type
REMARK                         _______ _______ _______ _____ _____    ______ ____
ROOT
ATOM      1  C   UNL     1      52.690 154.617  26.523  0.00  0.00    +0.027 C 
ATOM      2  C   UNL     1      52.798 153.232  27.057  0.00  0.00    +0.013 C 
ATOM      3  C   UNL     1      52.827 153.349  28.590  0.00  0.00    +0.069 C 
ATOM      4  C   UNL     1      51.806 154.331  29.046  0.00  0.00    +0.173 C 
ATOM      5  O   UNL     1      51.646 154.478  30.280  0.00  0.00    -0.291 OA
ATOM      6  C   UNL     1      50.996 155.115  28.145  0.00  0.00    +0.033 C 
ATOM      7  C   UNL     1      51.416 155.265  26.904  0.00  0.00    -0.023 C 
ENDROOT
BRANCH   1   8
ATOM      8  C   UNL     1      52.960 154.733  25.038  0.00  0.00    +0.029 C 
ATOM      9  C   UNL     1      53.816 155.908  24.740  0.00  0.00    -0.009 C 
ATOM     10  C   UNL     1      55.214 155.628  24.356  0.00  0.00    +0.075 C 
ATOM     11  N   UNL     1      55.614 154.247  24.469  0.00  0.00    -0.237 NA
ATOM     12  C   UNL     1      54.649 153.517  23.628  0.00  0.00    +0.113 C 
ATOM     13  C   UNL     1      53.376 153.447  24.416  0.00  0.00    +0.028 C 
ENDBRANCH   1   8
TORSDOF 1
