REMARK  Name = =
REMARK  4 active torsions:
REMARK  status: ('A' for Active; 'I' for Inactive)
REMARK    1  A    between atoms: N_1  and  C_3
REMARK    2  A    between atoms: N_1  and  P_9
REMARK    3  A    between atoms: P_9  and  N_11
REMARK    4  A    between atoms: P_9  and  N_12
REMARK                            x       y       z     vdW  Elec       q    Type
REMARK                         _______ _______ _______ _____ _____    ______ ____
ROOT
ATOM      1  N   UNL     1      52.904 153.309  25.546  0.00  0.00    -0.223 NA
ATOM      2  H   UNL     1      52.524 153.863  24.778  0.00  0.00    +0.134 HD
ENDROOT
BRANCH   1   4
ATOM      3  N   UNL     1      54.160 152.333  23.823  0.00  0.00    -0.263 NA
ATOM      4  C   UNL     1      54.224 152.907  25.188  0.00  0.00    +0.098 C 
ATOM      5  C   UNL     1      54.727 151.611  25.741  0.00  0.00    +0.048 C 
ATOM      6  C   UNL     1      54.226 151.016  24.416  0.00  0.00    +0.076 C 
ATOM      7  C   UNL     1      55.220 153.987  24.903  0.00  0.00    +0.032 C 
ATOM      8  C   UNL     1      54.703 154.513  23.618  0.00  0.00    +0.020 C 
ATOM      9  C   UNL     1      54.087 153.503  23.018  0.00  0.00    +0.073 C 
ENDBRANCH   1   4
BRANCH   1  10
ATOM     10  P   UNL     1      52.786 154.243  26.984  0.00  0.00    +0.277 P 
ATOM     11  O   UNL     1      51.318 154.232  27.424  0.00  0.00    -0.270 OA
BRANCH  10  12
ATOM     12  N   UNL     1      53.691 153.462  28.257  0.00  0.00    -0.257 NA
ATOM     13  H   UNL     1      53.389 152.492  28.343  0.00  0.00    +0.128 HD
ATOM     14  H   UNL     1      53.527 153.949  29.138  0.00  0.00    +0.128 HD
ENDBRANCH  10  12
BRANCH  10  15
ATOM     15  N   UNL     1      53.241 155.901  26.772  0.00  0.00    -0.257 NA
ATOM     16  H   UNL     1      52.687 156.312  26.021  0.00  0.00    +0.128 HD
ATOM     17  H   UNL     1      54.231 155.954  26.533  0.00  0.00    +0.128 HD
ENDBRANCH  10  15
ENDBRANCH   1  10
TORSDOF 4
