REMARK  Name = =
REMARK  4 active torsions:
REMARK  status: ('A' for Active; 'I' for Inactive)
REMARK    1  A    between atoms: C_1  and  C_7
REMARK    2  A    between atoms: C_1  and  O_14
REMARK    3  A    between atoms: O_14  and  C_15
REMARK    4  A    between atoms: C_18  and  C_21
REMARK                            x       y       z     vdW  Elec       q    Type
REMARK                         _______ _______ _______ _____ _____    ______ ____
ROOT
ATOM      1  C   UNL     1      53.826 153.011  24.540  0.00  0.00    +0.139 C 
ATOM      2  C   UNL     1      54.983 153.208  25.455  0.00  0.00    +0.059 C 
ATOM      3  C   UNL     1      55.788 154.440  25.253  0.00  0.00    +0.092 C 
ATOM      4  N   UNL     1      55.418 155.211  24.106  0.00  0.00    -0.218 NA
ATOM      5  C   UNL     1      55.083 154.467  22.952  0.00  0.00    +0.092 C 
ATOM      6  C   UNL     1      54.256 153.251  23.122  0.00  0.00    +0.059 C 
ENDROOT
BRANCH   1   7
ATOM      7  C   UNL     1      53.340 151.571  24.687  0.00  0.00    +0.059 C 
ATOM      8  C   UNL     1      53.008 151.284  26.145  0.00  0.00    +0.016 C 
ATOM      9  C   UNL     1      52.204 150.006  26.161  0.00  0.00    +0.070 C 
ATOM     10  C   UNL     1      53.001 148.939  25.548  0.00  0.00    +0.173 C 
ATOM     11  O   UNL     1      52.691 147.735  25.754  0.00  0.00    -0.291 OA
ATOM     12  C   UNL     1      54.149 149.313  24.700  0.00  0.00    +0.033 C 
ATOM     13  C   UNL     1      54.315 150.562  24.289  0.00  0.00    -0.020 C 
ENDBRANCH   1   7
BRANCH   1  14
ATOM     14  O   UNL     1      52.699 153.794  24.892  0.00  0.00    -0.482 OA
BRANCH  14  15
ATOM     15  C   UNL     1      52.510 154.537  26.010  0.00  0.00    +0.138 C 
ATOM     16  C   UNL     1      53.030 155.811  26.055  0.00  0.00    +0.037 C 
ATOM     17  C   UNL     1      52.832 156.564  27.200  0.00  0.00    +0.003 C 
ATOM     18  C   UNL     1      52.137 156.075  28.279  0.00  0.00    +0.000 C 
ATOM     19  C   UNL     1      51.613 154.771  28.211  0.00  0.00    +0.003 C 
ATOM     20  C   UNL     1      51.809 154.031  27.084  0.00  0.00    +0.037 C 
BRANCH  18  21
ATOM     21  C   UNL     1      51.917 156.844  29.488  0.00  0.00    +0.000 C 
ATOM     22  C   UNL     1      51.837 158.134  29.486  0.00  0.00    +0.000 C 
ENDBRANCH  18  21
ENDBRANCH  14  15
ENDBRANCH   1  14
TORSDOF 4
