REMARK  Name = =
REMARK  6 active torsions:
REMARK  status: ('A' for Active; 'I' for Inactive)
REMARK    1  A    between atoms: N_1  and  C_3
REMARK    2  A    between atoms: N_1  and  P_9
REMARK    3  A    between atoms: N_1  and  C_13
REMARK    4  A    between atoms: P_9  and  N_11
REMARK    5  A    between atoms: P_9  and  N_12
REMARK    6  A    between atoms: C_14  and  C_15
REMARK                            x       y       z     vdW  Elec       q    Type
REMARK                         _______ _______ _______ _____ _____    ______ ____
ROOT
ATOM      1  N   UNL     1      54.187 154.333  25.263  0.00  0.00    -0.235 N 
ENDROOT
BRANCH   1   3
ATOM      2  N   UNL     1      54.773 152.113  26.117  0.00  0.00    -0.260 NA
ATOM      3  C   UNL     1      54.919 153.125  25.076  0.00  0.00    +0.114 C 
ATOM      4  C   UNL     1      56.378 153.135  25.368  0.00  0.00    +0.052 C 
ATOM      5  C   UNL     1      55.984 152.607  26.752  0.00  0.00    +0.077 C 
ATOM      6  C   UNL     1      54.446 152.369  23.858  0.00  0.00    +0.036 C 
ATOM      7  C   UNL     1      53.344 151.514  24.445  0.00  0.00    +0.020 C 
ATOM      8  C   UNL     1      53.597 151.407  25.761  0.00  0.00    +0.074 C 
ENDBRANCH   1   3
BRANCH   1   9
ATOM      9  P   UNL     1      52.996 154.609  26.511  0.00  0.00    +0.297 P 
ATOM     10  O   UNL     1      51.652 154.047  26.098  0.00  0.00    -0.265 OA
BRANCH   9  11
ATOM     11  N   UNL     1      53.465 153.923  28.047  0.00  0.00    -0.254 NA
ATOM     12  H   UNL     1      54.370 154.301  28.326  0.00  0.00    +0.128 HD
ATOM     13  H   UNL     1      53.532 152.909  27.960  0.00  0.00    +0.128 HD
ENDBRANCH   9  11
BRANCH   9  14
ATOM     14  N   UNL     1      52.774 156.325  26.757  0.00  0.00    -0.254 NA
ATOM     15  H   UNL     1      53.660 156.746  27.038  0.00  0.00    +0.128 HD
ATOM     16  H   UNL     1      52.079 156.477  27.488  0.00  0.00    +0.128 HD
ENDBRANCH   9  14
ENDBRANCH   1   9
BRANCH   1  17
ATOM     17  C   UNL     1      54.459 155.409  24.336  0.00  0.00    +0.070 C 
ATOM     18  C   UNL     1      55.084 156.492  24.731  0.00  0.00    +0.016 C 
BRANCH  18  19
ATOM     19  C   UNL     1      55.356 157.565  23.803  0.00  0.00    +0.001 C 
ATOM     20  C   UNL     1      54.369 158.154  23.149  0.00  0.00    +0.000 C 
ENDBRANCH  18  19
ENDBRANCH   1  17
TORSDOF 6
