REMARK  Name = =
REMARK  5 active torsions:
REMARK  status: ('A' for Active; 'I' for Inactive)
REMARK    1  A    between atoms: C_1  and  O_18
REMARK    2  A    between atoms: C_2  and  C_7
REMARK    3  A    between atoms: C_4  and  C_16
REMARK    4  A    between atoms: O_18  and  C_19
REMARK    5  A    between atoms: C_19  and  C_25
REMARK                            x       y       z     vdW  Elec       q    Type
REMARK                         _______ _______ _______ _____ _____    ______ ____
ROOT
ATOM      1  C   UNL     1      52.760 155.724  26.495  0.00  0.00    +0.135 C 
ATOM      2  C   UNL     1      53.327 154.498  26.534  0.00  0.00    +0.022 C 
ATOM      3  C   UNL     1      54.194 154.070  25.503  0.00  0.00    -0.001 C 
ATOM      4  C   UNL     1      54.486 154.867  24.425  0.00  0.00    -0.000 C 
ATOM      5  C   UNL     1      53.890 156.112  24.402  0.00  0.00    +0.003 C 
ATOM      6  C   UNL     1      53.054 156.550  25.386  0.00  0.00    +0.037 C 
ENDROOT
BRANCH   2   7
ATOM      7  C   UNL     1      52.995 153.505  27.585  0.00  0.00    +0.121 C 
ATOM      8  C   UNL     1      52.911 152.085  27.216  0.00  0.00    +0.093 C 
ATOM      9  N   UNL     1      51.648 151.954  27.986  0.00  0.00    -0.258 N 
ATOM     10  C   UNL     1      51.285 150.620  28.233  0.00  0.00    +0.063 C 
ATOM     11  C   UNL     1      51.674 149.680  27.344  0.00  0.00    -0.010 C 
ATOM     12  C   UNL     1      52.457 149.993  26.133  0.00  0.00    +0.029 C 
ATOM     13  C   UNL     1      52.555 151.521  25.916  0.00  0.00    +0.026 C 
ATOM     14  C   UNL     1      51.582 153.355  27.972  0.00  0.00    +0.235 C 
ATOM     15  O   UNL     1      50.598 154.136  28.220  0.00  0.00    -0.274 OA
ENDBRANCH   2   7
BRANCH   4  16
ATOM     16  C   UNL     1      55.382 154.394  23.377  0.00  0.00    -0.000 C 
ATOM     17  C   UNL     1      55.715 155.081  22.316  0.00  0.00    -0.000 C 
ENDBRANCH   4  16
BRANCH   1  18
ATOM     18  O   UNL     1      51.897 156.297  27.462  0.00  0.00    -0.482 OA
BRANCH  18  19
ATOM     19  C   UNL     1      52.440 157.120  28.500  0.00  0.00    +0.139 C 
ATOM     20  C   UNL     1      53.281 158.219  27.850  0.00  0.00    +0.059 C 
ATOM     21  C   UNL     1      54.078 158.968  28.905  0.00  0.00    +0.092 C 
ATOM     22  N   UNL     1      54.999 158.043  29.533  0.00  0.00    -0.218 NA
ATOM     23  C   UNL     1      54.204 157.102  30.296  0.00  0.00    +0.092 C 
ATOM     24  C   UNL     1      53.405 156.293  29.290  0.00  0.00    +0.059 C 
BRANCH  19  25
ATOM     25  C   UNL     1      51.370 157.677  29.338  0.00  0.00    +0.059 C 
ATOM     26  C   UNL     1      50.047 156.990  29.394  0.00  0.00    +0.016 C 
ATOM     27  C   UNL     1      49.341 157.439  30.684  0.00  0.00    +0.070 C 
ATOM     28  C   UNL     1      49.587 158.879  30.927  0.00  0.00    +0.173 C 
ATOM     29  O   UNL     1      49.282 159.376  32.021  0.00  0.00    -0.291 OA
ATOM     30  C   UNL     1      50.186 159.677  29.868  0.00  0.00    +0.033 C 
ATOM     31  C   UNL     1      51.069 159.115  29.064  0.00  0.00    -0.020 C 
ENDBRANCH  19  25
ENDBRANCH  18  19
ENDBRANCH   1  18
TORSDOF 5
