REMARK  Name = =
REMARK  10 active torsions:
REMARK  status: ('A' for Active; 'I' for Inactive)
REMARK    1  A    between atoms: N_1  and  C_3
REMARK    2  A    between atoms: N_1  and  P_9
REMARK    3  A    between atoms: N_1  and  C_13
REMARK    4  A    between atoms: P_9  and  N_11
REMARK    5  A    between atoms: P_9  and  N_12
REMARK    6  A    between atoms: C_13  and  S_17
REMARK    7  A    between atoms: C_14  and  C_15
REMARK    8  A    between atoms: S_17  and  P_18
REMARK    9  A    between atoms: P_18  and  O_20
REMARK   10  A    between atoms: P_18  and  O_21
REMARK                            x       y       z     vdW  Elec       q    Type
REMARK                         _______ _______ _______ _____ _____    ______ ____
ROOT
ATOM      1  N   UNL     1      53.626 153.489  25.987  0.00  0.00    -0.231 N 
ENDROOT
BRANCH   1   3
ATOM      2  N   UNL     1      52.195 153.555  27.878  0.00  0.00    -0.260 NA
ATOM      3  C   UNL     1      53.324 152.854  27.223  0.00  0.00    +0.115 C 
ATOM      4  C   UNL     1      54.136 153.184  28.433  0.00  0.00    +0.052 C 
ATOM      5  C   UNL     1      53.193 154.363  28.532  0.00  0.00    +0.077 C 
ATOM      6  C   UNL     1      52.822 151.424  27.116  0.00  0.00    +0.036 C 
ATOM      7  C   UNL     1      51.365 151.678  26.916  0.00  0.00    +0.020 C 
ATOM      8  C   UNL     1      51.046 152.890  27.356  0.00  0.00    +0.074 C 
ENDBRANCH   1   3
BRANCH   1   9
ATOM      9  P   UNL     1      52.378 154.271  25.067  0.00  0.00    +0.297 P 
ATOM     10  O   UNL     1      51.081 153.462  25.235  0.00  0.00    -0.265 OA
BRANCH   9  11
ATOM     11  N   UNL     1      52.095 155.920  25.497  0.00  0.00    -0.254 NA
ATOM     12  H   UNL     1      51.876 155.979  26.491  0.00  0.00    +0.128 HD
ATOM     13  H   UNL     1      51.312 156.283  24.954  0.00  0.00    +0.128 HD
ENDBRANCH   9  11
BRANCH   9  14
ATOM     14  N   UNL     1      52.750 154.206  23.359  0.00  0.00    -0.254 NA
ATOM     15  H   UNL     1      52.009 154.669  22.832  0.00  0.00    +0.128 HD
ATOM     16  H   UNL     1      52.821 153.232  23.063  0.00  0.00    +0.128 HD
ENDBRANCH   9  14
ENDBRANCH   1   9
BRANCH   1  17
ATOM     17  C   UNL     1      54.946 153.462  25.474  0.00  0.00    +0.092 C 
ATOM     18  C   UNL     1      55.563 154.490  24.942  0.00  0.00    +0.022 C 
BRANCH  18  19
ATOM     19  C   UNL     1      54.968 155.806  24.807  0.00  0.00    +0.002 C 
ATOM     20  C   UNL     1      55.609 156.807  24.199  0.00  0.00    +0.000 C 
ENDBRANCH  18  19
BRANCH  17  21
ATOM     21  S   UNL     1      55.751 151.853  25.608  0.00  0.00    +0.011 S 
BRANCH  21  22
ATOM     22  P   UNL     1      57.432 151.936  26.853  0.00  0.00    +0.392 P 
ATOM     23  O   UNL     1      57.099 151.867  28.303  0.00  0.00    -0.246 OA
BRANCH  22  24
ATOM     24  O   UNL     1      58.465 150.654  26.406  0.00  0.00    -0.316 OA
ATOM     25  H   UNL     1      58.018 149.808  26.565  0.00  0.00    +0.221 HD
ENDBRANCH  22  24
BRANCH  22  26
ATOM     26  O   UNL     1      58.291 153.367  26.543  0.00  0.00    -0.316 OA
ATOM     27  H   UNL     1      57.743 154.131  26.782  0.00  0.00    +0.221 HD
ENDBRANCH  22  26
ENDBRANCH  21  22
ENDBRANCH  17  21
ENDBRANCH   1  17
TORSDOF 10
