REMARK  Name = =
REMARK  12 active torsions:
REMARK  status: ('A' for Active; 'I' for Inactive)
REMARK    1  A    between atoms: C_1  and  N_10
REMARK    2  A    between atoms: C_1  and  S_22
REMARK    3  A    between atoms: C_2  and  C_8
REMARK    4  A    between atoms: O_4  and  S_7
REMARK    5  A    between atoms: O_5  and  O_6
REMARK    6  A    between atoms: N_10  and  C_12
REMARK    7  A    between atoms: N_10  and  P_18
REMARK    8  A    between atoms: P_18  and  N_20
REMARK    9  A    between atoms: P_18  and  N_21
REMARK   10  A    between atoms: S_22  and  P_23
REMARK   11  A    between atoms: P_23  and  O_25
REMARK   12  A    between atoms: P_23  and  O_26
REMARK                            x       y       z     vdW  Elec       q    Type
REMARK                         _______ _______ _______ _____ _____    ______ ____
ROOT
ATOM      1  N   UNL     1      53.211 152.575  26.997  0.00  0.00    -0.231 N 
ENDROOT
BRANCH   1   3
ATOM      2  N   UNL     1      53.581 154.343  28.752  0.00  0.00    -0.260 NA
ATOM      3  C   UNL     1      53.077 153.101  28.288  0.00  0.00    +0.115 C 
ATOM      4  C   UNL     1      54.018 152.462  29.323  0.00  0.00    +0.052 C 
ATOM      5  C   UNL     1      54.862 153.686  28.947  0.00  0.00    +0.077 C 
ATOM      6  C   UNL     1      51.636 153.186  28.780  0.00  0.00    +0.036 C 
ATOM      7  C   UNL     1      51.340 154.673  28.723  0.00  0.00    +0.020 C 
ATOM      8  C   UNL     1      52.515 155.279  28.709  0.00  0.00    +0.074 C 
ENDBRANCH   1   3
BRANCH   1   9
ATOM      9  C   UNL     1      54.209 152.911  26.033  0.00  0.00    +0.092 C 
ATOM     10  C   UNL     1      54.308 154.049  25.370  0.00  0.00    +0.022 C 
BRANCH  10  11
ATOM     11  C   UNL     1      55.265 154.097  24.274  0.00  0.00    +0.002 C 
ATOM     12  C   UNL     1      55.442 155.047  23.407  0.00  0.00    +0.000 C 
ENDBRANCH  10  11
BRANCH   9  13
ATOM     13  S   UNL     1      55.475 151.646  25.700  0.00  0.00    +0.011 S 
BRANCH  13  14
ATOM     14  P   UNL     1      57.317 152.100  26.598  0.00  0.00    +0.392 P 
ATOM     15  O   UNL     1      57.155 152.047  28.130  0.00  0.00    -0.246 OA
BRANCH  14  16
ATOM     16  O   UNL     1      58.508 150.921  26.264  0.00  0.00    -0.316 OA
ATOM     17  H   UNL     1      58.170 150.044  26.503  0.00  0.00    +0.221 HD
ENDBRANCH  14  16
BRANCH  14  18
ATOM     18  O   UNL     1      57.851 153.636  26.203  0.00  0.00    -0.316 OA
ATOM     19  H   UNL     1      57.155 154.282  26.403  0.00  0.00    +0.221 HD
ENDBRANCH  14  18
ENDBRANCH  13  14
ENDBRANCH   9  13
ENDBRANCH   1   9
BRANCH   1  20
ATOM     20  P   UNL     1      52.103 151.284  26.485  0.00  0.00    +0.297 P 
ATOM     21  O   UNL     1      52.815 150.258  25.614  0.00  0.00    -0.265 OA
BRANCH  20  22
ATOM     22  N   UNL     1      51.579 150.337  27.895  0.00  0.00    -0.254 NA
ATOM     23  H   UNL     1      52.398 149.987  28.393  0.00  0.00    +0.128 HD
ATOM     24  H   UNL     1      51.008 149.551  27.584  0.00  0.00    +0.128 HD
ENDBRANCH  20  22
BRANCH  20  25
ATOM     25  N   UNL     1      50.764 151.915  25.585  0.00  0.00    -0.254 NA
ATOM     26  H   UNL     1      50.270 152.606  26.150  0.00  0.00    +0.128 HD
ATOM     27  H   UNL     1      50.127 151.155  25.345  0.00  0.00    +0.128 HD
ENDBRANCH  20  25
ENDBRANCH   1  20
TORSDOF 10
REMARK  Name = =
REMARK  12 active torsions:
REMARK  status: ('A' for Active; 'I' for Inactive)
REMARK    1  A    between atoms: C_1  and  N_10
REMARK    2  A    between atoms: C_1  and  S_22
REMARK    3  A    between atoms: C_2  and  C_8
REMARK    4  A    between atoms: O_4  and  S_7
REMARK    5  A    between atoms: O_5  and  O_6
REMARK    6  A    between atoms: N_10  and  C_12
REMARK    7  A    between atoms: N_10  and  P_18
REMARK    8  A    between atoms: P_18  and  N_20
REMARK    9  A    between atoms: P_18  and  N_21
REMARK   10  A    between atoms: S_22  and  P_23
REMARK   11  A    between atoms: P_23  and  O_25
REMARK   12  A    between atoms: P_23  and  O_26
REMARK                            x       y       z     vdW  Elec       q    Type
REMARK                         _______ _______ _______ _____ _____    ______ ____
ROOT
ATOM      1  P   UNL     1      53.179 155.406  25.602  0.00  0.00    +0.000 P 
ENDROOT
TORSDOF 0
REMARK  Name = =
REMARK  12 active torsions:
REMARK  status: ('A' for Active; 'I' for Inactive)
REMARK    1  A    between atoms: C_1  and  N_10
REMARK    2  A    between atoms: C_1  and  S_22
REMARK    3  A    between atoms: C_2  and  C_8
REMARK    4  A    between atoms: O_4  and  S_7
REMARK    5  A    between atoms: O_5  and  O_6
REMARK    6  A    between atoms: N_10  and  C_12
REMARK    7  A    between atoms: N_10  and  P_18
REMARK    8  A    between atoms: P_18  and  N_20
REMARK    9  A    between atoms: P_18  and  N_21
REMARK   10  A    between atoms: S_22  and  P_23
REMARK   11  A    between atoms: P_23  and  O_25
REMARK   12  A    between atoms: P_23  and  O_26
REMARK                            x       y       z     vdW  Elec       q    Type
REMARK                         _______ _______ _______ _____ _____    ______ ____
ROOT
ATOM      1  O   UNL     1      52.026 154.472  25.297  0.00  0.00    -0.332 OA
ATOM      2  H   UNL     1      51.688 154.942  26.076  0.00  0.00    +0.227 HD
ENDROOT
BRANCH   1   3
ATOM      3  S   UNL     1      51.902 155.480  23.927  0.00  0.00    -0.028 S 
ATOM      4  H   UNL     1      52.376 154.822  22.835  0.00  0.00    +0.133 HD
ENDBRANCH   1   3
TORSDOF 1
REMARK  Name = =
REMARK  12 active torsions:
REMARK  status: ('A' for Active; 'I' for Inactive)
REMARK    1  A    between atoms: C_1  and  N_10
REMARK    2  A    between atoms: C_1  and  S_22
REMARK    3  A    between atoms: C_2  and  C_8
REMARK    4  A    between atoms: O_4  and  S_7
REMARK    5  A    between atoms: O_5  and  O_6
REMARK    6  A    between atoms: N_10  and  C_12
REMARK    7  A    between atoms: N_10  and  P_18
REMARK    8  A    between atoms: P_18  and  N_20
REMARK    9  A    between atoms: P_18  and  N_21
REMARK   10  A    between atoms: S_22  and  P_23
REMARK   11  A    between atoms: P_23  and  O_25
REMARK   12  A    between atoms: P_23  and  O_26
REMARK                            x       y       z     vdW  Elec       q    Type
REMARK                         _______ _______ _______ _____ _____    ______ ____
ROOT
ATOM      1  O   UNL     1      54.599 156.232  25.261  0.00  0.00    -0.253 OA
ATOM      2  H   UNL     1      54.020 156.432  24.509  0.00  0.00    +0.253 HD
ENDROOT
BRANCH   1   3
ATOM      3  O   UNL     1      53.744 156.533  26.748  0.00  0.00    -0.253 OA
ATOM      4  H   UNL     1      54.323 156.333  27.500  0.00  0.00    +0.253 HD
ENDBRANCH   1   3
TORSDOF 1
