REMARK  Name = =
REMARK  10 active torsions:
REMARK  status: ('A' for Active; 'I' for Inactive)
REMARK    1  A    between atoms: S_1  and  N_4
REMARK    2  A    between atoms: S_1  and  N_14
REMARK    3  A    between atoms: N_4  and  O_5
REMARK    4  A    between atoms: O_5  and  P_6
REMARK    5  A    between atoms: P_6  and  O_8
REMARK    6  A    between atoms: P_6  and  O_9
REMARK    7  A    between atoms: O_9  and  P_10
REMARK    8  A    between atoms: P_10  and  O_12
REMARK    9  A    between atoms: P_10  and  O_13
REMARK   10  A    between atoms: N_14  and  C_15
REMARK                            x       y       z     vdW  Elec       q    Type
REMARK                         _______ _______ _______ _____ _____    ______ ____
ROOT
ATOM      1  S   UNL     1      50.685 155.928  29.477  0.00  0.00    +0.132 S 
ATOM      2  O   UNL     1      49.696 155.079  28.736  0.00  0.00    -0.136 OA
ATOM      3  O   UNL     1      50.340 155.891  30.943  0.00  0.00    -0.136 OA
ENDROOT
BRANCH   1   4
ATOM      4  N   UNL     1      52.288 155.348  29.254  0.00  0.00    -0.044 NA
ATOM      5  H   UNL     1      52.401 154.449  29.722  0.00  0.00    +0.183 HD
BRANCH   4   6
ATOM      6  O   UNL     1      52.488 155.203  27.914  0.00  0.00    -0.175 OA
BRANCH   6   7
ATOM      7  P   UNL     1      52.616 153.537  27.574  0.00  0.00    +0.501 P 
ATOM      8  O   UNL     1      54.067 153.155  27.764  0.00  0.00    -0.225 OA
BRANCH   7   9
ATOM      9  O   UNL     1      51.591 152.654  28.583  0.00  0.00    -0.301 OA
ATOM     10  H   UNL     1      51.840 152.805  29.508  0.00  0.00    +0.222 HD
ENDBRANCH   7   9
BRANCH   7  11
ATOM     11  O   UNL     1      52.225 153.310  25.945  0.00  0.00    -0.185 OA
BRANCH  11  12
ATOM     12  P   UNL     1      53.596 153.700  25.035  0.00  0.00    +0.481 P 
ATOM     13  O   UNL     1      53.960 155.145  25.373  0.00  0.00    -0.227 OA
BRANCH  12  14
ATOM     14  O   UNL     1      54.854 152.669  25.435  0.00  0.00    -0.302 OA
ATOM     15  H   UNL     1      55.036 152.735  26.385  0.00  0.00    +0.222 HD
ENDBRANCH  12  14
BRANCH  12  16
ATOM     16  O   UNL     1      53.235 153.625  23.383  0.00  0.00    -0.302 OA
ATOM     17  H   UNL     1      54.026 153.850  22.869  0.00  0.00    +0.222 HD
ENDBRANCH  12  16
ENDBRANCH  11  12
ENDBRANCH   7  11
ENDBRANCH   6   7
ENDBRANCH   4   6
ENDBRANCH   1   4
BRANCH   1  18
ATOM     18  N   UNL     1      50.561 157.565  28.890  0.00  0.00    -0.200 N 
ATOM     19  H   UNL     1      50.499 157.746  27.924  0.00  0.00    +0.175 HD
BRANCH  18  20
ATOM     20  C   UNL     1      50.551 158.628  29.819  0.00  0.00    +0.108 C 
ATOM     21  C   UNL     1      51.652 159.331  29.985  0.00  0.00    +0.061 C 
ATOM     22  C   UNL     1      51.692 160.444  30.938  0.00  0.00    +0.197 C 
ATOM     23  O   UNL     1      52.711 161.134  31.125  0.00  0.00    -0.287 OA
ATOM     24  C   UNL     1      50.459 160.742  31.695  0.00  0.00    +0.042 C 
ATOM     25  C   UNL     1      49.300 160.030  31.545  0.00  0.00    +0.043 C 
ATOM     26  C   UNL     1      48.168 160.330  32.264  0.00  0.00    +0.003 C 
ATOM     27  C   UNL     1      48.177 161.362  33.158  0.00  0.00    +0.000 C 
ATOM     28  C   UNL     1      49.340 162.073  33.307  0.00  0.00    +0.000 C 
ATOM     29  C   UNL     1      50.492 161.798  32.601  0.00  0.00    +0.003 C 
ATOM     30  C   UNL     1      49.341 158.922  30.565  0.00  0.00    +0.210 C 
ATOM     31  O   UNL     1      48.275 158.271  30.429  0.00  0.00    -0.285 OA
ENDBRANCH  18  20
ENDBRANCH   1  18
TORSDOF 10
