REMARK  Name = =
REMARK  1 active torsions:
REMARK  status: ('A' for Active; 'I' for Inactive)
REMARK    1  A    between atoms: C_4  and  O_6
REMARK                            x       y       z     vdW  Elec       q    Type
REMARK                         _______ _______ _______ _____ _____    ______ ____
ROOT
ATOM      1  C   UNL     1      39.941 161.005  24.431  0.00  0.00    +0.308 C 
ATOM      2  O   UNL     1      39.507 160.876  23.257  0.00  0.00    -0.265 OA
ATOM      3  N   UNL     1      41.167 160.372  24.760  0.00  0.00    -0.214 N 
ATOM      4  C   UNL     1      41.920 159.606  23.834  0.00  0.00    +0.405 C 
ATOM      5  O   UNL     1      41.463 159.493  22.667  0.00  0.00    -0.226 OA
ATOM      6  H   UNL     1      41.512 160.469  25.677  0.00  0.00    +0.161 HD
ENDROOT
BRANCH   4   7
ATOM      7  O   UNL     1      43.123 158.987  24.162  0.00  0.00    -0.466 OA
ATOM      8  H   UNL     1      43.470 159.067  25.029  0.00  0.00    +0.297 HD
ENDBRANCH   4   7
TORSDOF 1
