REMARK  Name = =
REMARK  1 active torsions:
REMARK  status: ('A' for Active; 'I' for Inactive)
REMARK    1  A    between atoms: N_1  and  O_3
REMARK                            x       y       z     vdW  Elec       q    Type
REMARK                         _______ _______ _______ _____ _____    ______ ____
ROOT
ATOM      1  N   UNL     1      51.971 155.835  28.964  0.00  0.00    +0.098 NA
ATOM      2  O   UNL     1      52.891 155.497  28.185  0.00  0.00    -0.070 OA
ENDROOT
BRANCH   1   3
ATOM      3  O   UNL     1      51.657 155.018  30.018  0.00  0.00    -0.269 OA
ATOM      4  H   UNL     1      50.930 155.411  30.527  0.00  0.00    +0.241 HD
ENDBRANCH   1   3
TORSDOF 1
