REMARK  Name = =
REMARK  2 active torsions:
REMARK  status: ('A' for Active; 'I' for Inactive)
REMARK    1  A    between atoms: C_4  and  C_8
REMARK    2  A    between atoms: C_11  and  O_13
REMARK                            x       y       z     vdW  Elec       q    Type
REMARK                         _______ _______ _______ _____ _____    ______ ____
ROOT
ATOM      1  N   UNL     1      39.414 162.201  26.884  0.00  0.00    -0.255 N 
ATOM      2  C   UNL     1      39.693 161.422  25.731  0.00  0.00    +0.237 C 
ATOM      3  O   UNL     1      40.777 161.302  25.121  0.00  0.00    -0.274 OA
ATOM      4  C   UNL     1      38.441 160.738  25.337  0.00  0.00    +0.162 C 
ATOM      5  C   UNL     1      37.598 160.713  26.567  0.00  0.00    +0.104 C 
ATOM      6  C   UNL     1      38.308 161.582  27.525  0.00  0.00    +0.229 C 
ATOM      7  O   UNL     1      37.984 161.757  28.750  0.00  0.00    -0.275 OA
ATOM      8  H   UNL     1      39.892 163.009  27.180  0.00  0.00    +0.158 HD
ENDROOT
BRANCH   4   9
ATOM      9  C   UNL     1      38.680 159.400  24.766  0.00  0.00    +0.239 C 
ATOM     10  O   UNL     1      38.343 159.190  23.573  0.00  0.00    -0.274 OA
ATOM     11  N   UNL     1      39.273 158.396  25.562  0.00  0.00    -0.221 N 
ATOM     12  C   UNL     1      39.523 157.099  25.060  0.00  0.00    +0.404 C 
ATOM     13  O   UNL     1      39.211 156.822  23.873  0.00  0.00    -0.226 OA
ATOM     14  H   UNL     1      39.519 158.605  26.492  0.00  0.00    +0.161 HD
BRANCH  12  15
ATOM     15  O   UNL     1      40.104 156.084  25.808  0.00  0.00    -0.466 OA
ATOM     16  H   UNL     1      40.354 156.242  26.697  0.00  0.00    +0.297 HD
ENDBRANCH  12  15
ENDBRANCH   4   9
TORSDOF 2
