REMARK  Name = =
REMARK  2 active torsions:
REMARK  status: ('A' for Active; 'I' for Inactive)
REMARK    1  A    between atoms: C_10  and  N_14
REMARK    2  A    between atoms: C_15  and  C_17
REMARK                            x       y       z     vdW  Elec       q    Type
REMARK                         _______ _______ _______ _____ _____    ______ ____
ROOT
ATOM      1  N   UNL     1      53.739 152.612  27.913  0.00  0.00    -0.246 NA
ATOM      2  C   UNL     1      53.080 153.685  27.644  0.00  0.00    +0.079 C 
ATOM      3  C   UNL     1      53.637 154.394  26.583  0.00  0.00    +0.019 C 
ATOM      4  C   UNL     1      54.711 153.725  26.155  0.00  0.00    +0.017 C 
ATOM      5  C   UNL     1      54.822 152.525  27.014  0.00  0.00    +0.081 C 
ATOM      6  C   UNL     1      55.801 151.662  26.816  0.00  0.00    +0.019 C 
ATOM      7  C   UNL     1      56.816 151.824  25.781  0.00  0.00    +0.002 C 
ATOM      8  C   UNL     1      56.651 153.025  24.951  0.00  0.00    +0.000 C 
ATOM      9  C   UNL     1      55.690 153.920  25.100  0.00  0.00    +0.001 C 
ATOM     10  C   UNL     1      53.068 155.568  26.128  0.00  0.00    +0.118 C 
ATOM     11  C   UNL     1      51.910 156.019  26.768  0.00  0.00    -0.002 C 
ATOM     12  C   UNL     1      51.330 155.336  27.824  0.00  0.00    -0.001 C 
ATOM     13  C   UNL     1      51.918 154.188  28.246  0.00  0.00    +0.019 C 
ENDROOT
BRANCH  10  14
ATOM     14  N   UNL     1      53.693 156.376  25.152  0.00  0.00    -0.295 N 
ATOM     15  C   UNL     1      52.997 157.347  24.389  0.00  0.00    +0.246 C 
ATOM     16  O   UNL     1      51.745 157.574  24.506  0.00  0.00    -0.270 OA
ATOM     17  H   UNL     1      54.658 156.259  24.994  0.00  0.00    +0.150 HD
BRANCH  15  18
ATOM     18  C   UNL     1      53.727 158.158  23.401  0.00  0.00    +0.058 C 
ATOM     19  C   UNL     1      55.015 158.241  23.276  0.00  0.00    +0.005 C 
ENDBRANCH  15  18
ENDBRANCH  10  14
TORSDOF 2
