REMARK  Name = =
REMARK  4 active torsions:
REMARK  status: ('A' for Active; 'I' for Inactive)
REMARK    1  A    between atoms: C_10  and  N_14
REMARK    2  A    between atoms: N_14  and  S_17
REMARK    3  A    between atoms: C_15  and  C_20
REMARK    4  A    between atoms: C_18  and  N_19
REMARK                            x       y       z     vdW  Elec       q    Type
REMARK                         _______ _______ _______ _____ _____    ______ ____
ROOT
ATOM      1  N   UNL     1      52.847 151.602  27.356  0.00  0.00    -0.263 NA
ATOM      2  C   UNL     1      52.299 152.538  28.028  0.00  0.00    +0.149 C 
ATOM      3  C   UNL     1      52.698 153.801  27.566  0.00  0.00    +0.020 C 
ATOM      4  C   UNL     1      53.545 153.633  26.545  0.00  0.00    +0.017 C 
ATOM      5  C   UNL     1      53.674 152.197  26.369  0.00  0.00    +0.076 C 
ATOM      6  C   UNL     1      54.460 151.772  25.419  0.00  0.00    +0.019 C 
ATOM      7  C   UNL     1      55.232 152.604  24.502  0.00  0.00    +0.002 C 
ATOM      8  C   UNL     1      55.084 154.060  24.702  0.00  0.00    +0.000 C 
ATOM      9  C   UNL     1      54.295 154.508  25.657  0.00  0.00    +0.001 C 
ATOM     10  C   UNL     1      52.218 154.939  28.156  0.00  0.00    +0.062 C 
ATOM     11  C   UNL     1      51.336 154.809  29.215  0.00  0.00    +0.015 C 
ATOM     12  C   UNL     1      50.938 153.569  29.678  0.00  0.00    -0.001 C 
ATOM     13  C   UNL     1      51.419 152.429  29.085  0.00  0.00    +0.002 C 
ENDROOT
BRANCH  10  14
ATOM     14  N   UNL     1      52.556 156.250  27.750  0.00  0.00    -0.216 N 
ATOM     15  C   UNL     1      52.658 156.638  26.390  0.00  0.00    +0.261 C 
ATOM     16  O   UNL     1      52.964 157.819  26.119  0.00  0.00    -0.269 OA
BRANCH  14  17
ATOM     17  S   UNL     1      52.806 157.437  29.061  0.00  0.00    -0.084 S 
ATOM     18  C   UNL     1      54.048 158.432  29.192  0.00  0.00    +0.092 C 
ATOM     19  H   UNL     1      52.808 156.708  30.209  0.00  0.00    +0.118 HD
BRANCH  18  20
ATOM     20  N   UNL     1      55.088 158.447  28.236  0.00  0.00    -0.351 N 
ATOM     21  H   UNL     1      55.843 159.070  28.340  0.00  0.00    +0.143 HD
ATOM     22  H   UNL     1      55.058 157.834  27.466  0.00  0.00    +0.143 HD
ENDBRANCH  18  20
ENDBRANCH  14  17
BRANCH  15  23
ATOM     23  C   UNL     1      52.413 155.686  25.338  0.00  0.00    +0.059 C 
ATOM     24  C   UNL     1      52.449 156.039  24.065  0.00  0.00    +0.005 C 
ENDBRANCH  15  23
ENDBRANCH  10  14
TORSDOF 4
