REMARK  Name = =
REMARK  2 active torsions:
REMARK  status: ('A' for Active; 'I' for Inactive)
REMARK    1  A    between atoms: C_9  and  C_13
REMARK    2  A    between atoms: C_16  and  O_18
REMARK                            x       y       z     vdW  Elec       q    Type
REMARK                         _______ _______ _______ _____ _____    ______ ____
ROOT
ATOM      1  S   UNL     1      39.560 161.281  28.971  0.00  0.00    -0.028 S 
ATOM      2  C   UNL     1      38.196 161.183  27.624  0.00  0.00    +0.197 C 
ATOM      3  N   UNL     1      37.627 162.171  27.893  0.00  0.00    -0.125 NA
ATOM      4  N   UNL     1      37.874 163.026  28.814  0.00  0.00    -0.137 NA
ATOM      5  C   UNL     1      38.853 162.872  29.599  0.00  0.00    +0.160 C 
ATOM      6  N   UNL     1      38.239 160.060  26.754  0.00  0.00    -0.185 N 
ATOM      7  C   UNL     1      38.586 160.129  25.371  0.00  0.00    +0.245 C 
ATOM      8  O   UNL     1      38.475 161.067  24.558  0.00  0.00    -0.274 OA
ATOM      9  C   UNL     1      39.140 158.768  25.090  0.00  0.00    +0.163 C 
ATOM     10  C   UNL     1      38.063 157.933  25.804  0.00  0.00    +0.104 C 
ATOM     11  C   UNL     1      37.956 158.684  27.084  0.00  0.00    +0.238 C 
ATOM     12  O   UNL     1      37.690 158.312  28.239  0.00  0.00    -0.274 OA
ENDROOT
BRANCH   9  13
ATOM     13  C   UNL     1      39.228 158.463  23.664  0.00  0.00    +0.239 C 
ATOM     14  O   UNL     1      39.458 159.460  22.892  0.00  0.00    -0.274 OA
ATOM     15  N   UNL     1      39.080 157.170  23.100  0.00  0.00    -0.221 N 
ATOM     16  C   UNL     1      39.200 157.014  21.685  0.00  0.00    +0.404 C 
ATOM     17  O   UNL     1      39.424 158.036  20.996  0.00  0.00    -0.226 OA
ATOM     18  H   UNL     1      38.897 156.392  23.675  0.00  0.00    +0.161 HD
BRANCH  16  19
ATOM     19  O   UNL     1      39.070 155.742  21.091  0.00  0.00    -0.466 OA
ATOM     20  H   UNL     1      38.902 154.990  21.625  0.00  0.00    +0.297 HD
ENDBRANCH  16  19
ENDBRANCH   9  13
TORSDOF 2
