REMARK  Name = =
REMARK  5 active torsions:
REMARK  status: ('A' for Active; 'I' for Inactive)
REMARK    1  A    between atoms: N_1  and  C_14
REMARK    2  A    between atoms: C_14  and  C_17
REMARK    3  A    between atoms: C_16  and  C_18
REMARK    4  A    between atoms: C_18  and  O_23
REMARK    5  A    between atoms: O_23  and  N_24
REMARK                            x       y       z     vdW  Elec       q    Type
REMARK                         _______ _______ _______ _____ _____    ______ ____
ROOT
ATOM      1  N   UNL     1      51.033 162.754  31.981  0.00  0.00    -0.298 N 
ATOM      2  C   UNL     1      52.360 162.829  31.836  0.00  0.00    +0.084 A 
ATOM      3  C   UNL     1      53.443 161.987  32.046  0.00  0.00    +0.116 C 
ATOM      4  N   UNL     1      54.721 162.346  31.792  0.00  0.00    -0.241 NA
ATOM      5  C   UNL     1      55.054 163.553  31.312  0.00  0.00    +0.099 C 
ATOM      6  C   UNL     1      54.019 164.429  31.085  0.00  0.00    +0.022 C 
ATOM      7  C   UNL     1      52.707 164.087  31.336  0.00  0.00    +0.021 A 
ATOM      8  C   UNL     1      51.502 164.750  31.193  0.00  0.00    +0.018 A 
ATOM      9  C   UNL     1      50.464 163.908  31.597  0.00  0.00    +0.065 A 
ATOM     10  C   UNL     1      49.170 164.389  31.534  0.00  0.00    +0.018 C 
ATOM     11  C   UNL     1      48.895 165.662  31.085  0.00  0.00    +0.001 C 
ATOM     12  C   UNL     1      49.931 166.480  30.688  0.00  0.00    +0.000 C 
ATOM     13  C   UNL     1      51.224 166.014  30.747  0.00  0.00    +0.001 C 
ENDROOT
BRANCH   1  14
ATOM     14  C   UNL     1      50.329 161.641  32.500  0.00  0.00    +0.107 C 
ATOM     15  C   UNL     1      49.981 161.503  33.760  0.00  0.00    +0.028 C 
BRANCH  14  17
ATOM     16  C   UNL     1      49.752 159.647  30.814  0.00  0.00    -0.029 C 
ATOM     17  C   UNL     1      50.004 160.550  31.571  0.00  0.00    -0.042 C 
BRANCH  16  18
ATOM     18  C   UNL     1      49.454 158.566  29.876  0.00  0.00    +0.266 C 
ATOM     19  O   UNL     1      49.679 157.321  30.400  0.00  0.00    -0.324 OA
ATOM     20  C   UNL     1      50.892 156.855  29.987  0.00  0.00    +0.146 C 
ATOM     21  C   UNL     1      51.515 157.838  29.056  0.00  0.00    +0.038 C 
ATOM     22  C   UNL     1      50.323 158.673  28.623  0.00  0.00    +0.074 C 
BRANCH  18  23
ATOM     23  O   UNL     1      48.097 158.671  29.527  0.00  0.00    -0.205 OA
BRANCH  23  24
ATOM     24  N   UNL     1      47.220 157.603  29.656  0.00  0.00    +0.104 NA
ATOM     25  O   UNL     1      47.663 156.602  30.292  0.00  0.00    -0.069 OA
ENDBRANCH  23  24
ENDBRANCH  18  23
ENDBRANCH  16  18
ENDBRANCH  14  17
ENDBRANCH   1  14
TORSDOF 5
