REMARK  Name = =
REMARK  10 active torsions:
REMARK  status: ('A' for Active; 'I' for Inactive)
REMARK    1  A    between atoms: N_1  and  C_13
REMARK    2  A    between atoms: N_1  and  S_17
REMARK    3  A    between atoms: C_2  and  C_27
REMARK    4  A    between atoms: S_17  and  C_18
REMARK    5  A    between atoms: C_18  and  N_19
REMARK    6  A    between atoms: C_18  and  C_20
REMARK    7  A    between atoms: C_20  and  N_21
REMARK    8  A    between atoms: N_21  and  C_22
REMARK    9  A    between atoms: C_23  and  C_24
REMARK   10  A    between atoms: C_24  and  O_26
REMARK                            x       y       z     vdW  Elec       q    Type
REMARK                         _______ _______ _______ _____ _____    ______ ____
ROOT
ATOM      1  N   UNL     1      53.360 154.186  27.601  0.00  0.00    -0.219 N 
ATOM      2  C   UNL     1      54.036 153.297  28.444  0.00  0.00    +0.261 C 
ATOM      3  O   UNL     1      53.491 153.147  29.614  0.00  0.00    -0.269 OA
ENDROOT
BRANCH   1  13
ATOM      4  N   UNL     1      54.255 153.080  23.173  0.00  0.00    -0.263 NA
ATOM      5  C   UNL     1      54.184 154.065  23.990  0.00  0.00    +0.149 C 
ATOM      6  C   UNL     1      53.852 153.685  25.276  0.00  0.00    +0.020 C 
ATOM      7  C   UNL     1      53.702 152.345  25.262  0.00  0.00    +0.017 C 
ATOM      8  C   UNL     1      53.958 151.895  23.892  0.00  0.00    +0.076 C 
ATOM      9  C   UNL     1      53.878 150.620  23.601  0.00  0.00    +0.019 C 
ATOM     10  C   UNL     1      53.542 149.614  24.590  0.00  0.00    +0.002 C 
ATOM     11  C   UNL     1      53.292 150.105  25.951  0.00  0.00    +0.000 C 
ATOM     12  C   UNL     1      53.359 151.379  26.300  0.00  0.00    +0.001 C 
ATOM     13  C   UNL     1      53.725 154.586  26.298  0.00  0.00    +0.062 C 
ATOM     14  C   UNL     1      53.946 155.946  26.017  0.00  0.00    +0.015 C 
ATOM     15  C   UNL     1      54.278 156.333  24.733  0.00  0.00    -0.001 C 
ATOM     16  C   UNL     1      54.401 155.415  23.713  0.00  0.00    +0.002 C 
ENDBRANCH   1  13
BRANCH   1  17
ATOM     17  S   UNL     1      51.848 154.941  28.228  0.00  0.00    -0.106 S 
ATOM     18  H   UNL     1      51.511 154.270  29.362  0.00  0.00    +0.114 HD
BRANCH  17  19
ATOM     19  C   UNL     1      51.841 156.507  28.590  0.00  0.00    +0.124 C 
BRANCH  19  20
ATOM     20  N   UNL     1      52.948 157.378  28.459  0.00  0.00    -0.312 NA
ATOM     21  H   UNL     1      53.749 156.858  28.100  0.00  0.00    +0.120 HD
ATOM     22  H   UNL     1      53.180 157.773  29.371  0.00  0.00    +0.120 HD
ENDBRANCH  19  20
BRANCH  19  23
ATOM     23  C   UNL     1      50.583 157.153  29.115  0.00  0.00    +0.115 C 
BRANCH  23  24
ATOM     24  N   UNL     1      51.002 158.186  30.040  0.00  0.00    -0.330 N 
ATOM     25  H   UNL     1      51.901 158.170  30.441  0.00  0.00    +0.147 HD
BRANCH  24  26
ATOM     26  C   UNL     1      50.075 159.232  30.357  0.00  0.00    +0.065 C 
ATOM     27  C   UNL     1      50.147 159.831  31.530  0.00  0.00    +0.097 C 
BRANCH  27  28
ATOM     28  C   UNL     1      49.194 160.888  31.824  0.00  0.00    +0.340 C 
ATOM     29  O   UNL     1      49.303 161.513  32.908  0.00  0.00    -0.245 OA
BRANCH  28  30
ATOM     30  O   UNL     1      48.176 161.229  30.958  0.00  0.00    -0.477 OA
ATOM     31  H   UNL     1      48.080 160.773  30.145  0.00  0.00    +0.295 HD
ENDBRANCH  28  30
ENDBRANCH  27  28
ENDBRANCH  24  26
ENDBRANCH  23  24
ENDBRANCH  19  23
ENDBRANCH  17  19
ENDBRANCH   1  17
BRANCH   2  32
ATOM     32  C   UNL     1      55.223 152.536  28.212  0.00  0.00    +0.059 C 
ATOM     33  C   UNL     1      55.871 152.417  27.084  0.00  0.00    +0.005 C 
ENDBRANCH   2  32
TORSDOF 10
