REMARK  Name = =
REMARK  5 active torsions:
REMARK  status: ('A' for Active; 'I' for Inactive)
REMARK    1  A    between atoms: N_1  and  C_20
REMARK    2  A    between atoms: C_20  and  C_23
REMARK    3  A    between atoms: C_22  and  C_24
REMARK    4  A    between atoms: C_24  and  O_29
REMARK    5  A    between atoms: O_29  and  N_30
REMARK                            x       y       z     vdW  Elec       q    Type
REMARK                         _______ _______ _______ _____ _____    ______ ____
ROOT
ATOM      1  N   UNL     1      50.945 158.772  29.530  0.00  0.00    -0.297 N 
ATOM      2  C   UNL     1      49.961 158.273  30.375  0.00  0.00    +0.096 A 
ATOM      3  C   UNL     1      49.107 158.833  31.278  0.00  0.00    +0.148 C 
ATOM      4  N   UNL     1      48.251 158.002  31.949  0.00  0.00    -0.228 NA
ATOM      5  C   UNL     1      48.216 156.691  31.774  0.00  0.00    +0.100 C 
ATOM      6  C   UNL     1      49.040 156.083  30.899  0.00  0.00    +0.022 C 
ATOM      7  C   UNL     1      49.944 156.890  30.178  0.00  0.00    +0.022 A 
ATOM      8  C   UNL     1      50.907 156.587  29.273  0.00  0.00    +0.018 A 
ATOM      9  C   UNL     1      51.493 157.750  28.911  0.00  0.00    +0.065 A 
ATOM     10  C   UNL     1      52.592 157.745  28.021  0.00  0.00    +0.018 C 
ATOM     11  C   UNL     1      53.004 156.528  27.566  0.00  0.00    +0.001 C 
ATOM     12  C   UNL     1      52.409 155.350  27.928  0.00  0.00    +0.000 C 
ATOM     13  C   UNL     1      51.339 155.352  28.796  0.00  0.00    +0.001 C 
ATOM     14  N   UNL     1      49.177 160.170  31.740  0.00  0.00    -0.289 N 
ATOM     15  C   UNL     1      48.013 161.031  31.668  0.00  0.00    +0.111 C 
ATOM     16  C   UNL     1      47.513 160.927  33.133  0.00  0.00    +0.110 C 
ATOM     17  N   UNL     1      48.455 161.555  33.955  0.00  0.00    -0.214 NA
ATOM     18  C   UNL     1      49.805 161.648  33.576  0.00  0.00    +0.110 C 
ATOM     19  C   UNL     1      50.286 160.748  32.456  0.00  0.00    +0.111 C 
ENDROOT
BRANCH   1  20
ATOM     20  C   UNL     1      51.064 160.208  29.149  0.00  0.00    +0.107 C 
ATOM     21  C   UNL     1      50.196 160.514  28.234  0.00  0.00    +0.028 C 
BRANCH  20  23
ATOM     22  C   UNL     1      52.841 161.780  30.227  0.00  0.00    -0.029 C 
ATOM     23  C   UNL     1      51.980 161.008  29.708  0.00  0.00    -0.042 C 
BRANCH  22  24
ATOM     24  C   UNL     1      53.843 162.647  30.818  0.00  0.00    +0.266 C 
ATOM     25  O   UNL     1      54.928 162.903  29.990  0.00  0.00    -0.324 OA
ATOM     26  C   UNL     1      55.164 164.302  30.054  0.00  0.00    +0.146 C 
ATOM     27  C   UNL     1      53.749 164.869  30.266  0.00  0.00    +0.038 C 
ATOM     28  C   UNL     1      53.380 163.910  31.447  0.00  0.00    +0.074 C 
BRANCH  24  29
ATOM     29  O   UNL     1      54.351 161.860  31.956  0.00  0.00    -0.205 OA
BRANCH  29  30
ATOM     30  N   UNL     1      55.691 161.578  32.039  0.00  0.00    +0.104 NA
ATOM     31  O   UNL     1      56.328 161.831  33.083  0.00  0.00    -0.069 OA
ENDBRANCH  29  30
ENDBRANCH  24  29
ENDBRANCH  22  24
ENDBRANCH  20  23
ENDBRANCH   1  20
TORSDOF 5
