REMARK  Name = =
REMARK  10 active torsions:
REMARK  status: ('A' for Active; 'I' for Inactive)
REMARK    1  A    between atoms: S_1  and  C_2
REMARK    2  A    between atoms: S_1  and  N_3
REMARK    3  A    between atoms: C_2  and  N_21
REMARK    4  A    between atoms: C_2  and  C_22
REMARK    5  A    between atoms: C_22  and  N_23
REMARK    6  A    between atoms: N_23  and  C_24
REMARK    7  A    between atoms: C_24  and  N_29
REMARK    8  A    between atoms: C_25  and  C_26
REMARK    9  A    between atoms: C_26  and  O_28
REMARK   10  A    between atoms: N_29  and  O_30
REMARK                            x       y       z     vdW  Elec       q    Type
REMARK                         _______ _______ _______ _____ _____    ______ ____
ROOT
ATOM      1  S   UNL     1      53.313 157.355  28.023  0.00  0.00    -0.110 S 
ATOM      2  H   UNL     1      54.496 157.054  28.623  0.00  0.00    +0.113 HD
ENDROOT
BRANCH   1   3
ATOM      3  N   UNL     1      52.865 155.928  27.064  0.00  0.00    -0.237 N 
ATOM      4  C   UNL     1      53.029 155.985  25.655  0.00  0.00    +0.238 C 
ATOM      5  O   UNL     1      53.487 157.042  25.148  0.00  0.00    -0.274 OA
ATOM      6  N   UNL     1      52.260 151.321  27.674  0.00  0.00    -0.246 NA
ATOM      7  C   UNL     1      51.989 152.486  28.182  0.00  0.00    +0.079 C 
ATOM      8  C   UNL     1      52.523 153.496  27.413  0.00  0.00    +0.020 C 
ATOM      9  C   UNL     1      53.159 152.959  26.374  0.00  0.00    +0.014 C 
ATOM     10  C   UNL     1      53.022 151.513  26.487  0.00  0.00    +0.081 C 
ATOM     11  C   UNL     1      53.564 150.728  25.578  0.00  0.00    +0.019 C 
ATOM     12  C   UNL     1      54.307 151.256  24.444  0.00  0.00    +0.001 C 
ATOM     13  C   UNL     1      54.413 152.714  24.379  0.00  0.00    -0.004 C 
ATOM     14  C   UNL     1      53.891 153.558  25.260  0.00  0.00    -0.013 C 
ATOM     15  C   UNL     1      52.365 154.810  27.755  0.00  0.00    +0.131 C 
ATOM     16  C   UNL     1      51.637 155.084  28.917  0.00  0.00    -0.001 C 
ATOM     17  C   UNL     1      51.090 154.110  29.711  0.00  0.00    -0.001 C 
ATOM     18  C   UNL     1      51.282 152.809  29.318  0.00  0.00    +0.019 C 
ATOM     19  C   UNL     1      52.701 154.899  24.771  0.00  0.00    +0.100 C 
ATOM     20  C   UNL     1      52.826 155.030  23.475  0.00  0.00    +0.014 C 
ENDBRANCH   1   3
BRANCH   1  21
ATOM     21  C   UNL     1      52.336 157.953  29.204  0.00  0.00    +0.124 C 
BRANCH  21  22
ATOM     22  N   UNL     1      51.087 157.319  29.481  0.00  0.00    -0.312 NA
ATOM     23  H   UNL     1      50.965 156.522  28.857  0.00  0.00    +0.120 HD
ATOM     24  H   UNL     1      50.328 157.985  29.335  0.00  0.00    +0.120 HD
ENDBRANCH  21  22
BRANCH  21  25
ATOM     25  C   UNL     1      52.740 159.143  29.987  0.00  0.00    +0.116 C 
BRANCH  25  26
ATOM     26  N   UNL     1      51.747 159.593  30.913  0.00  0.00    -0.316 N 
ATOM     27  H   UNL     1      51.315 158.937  31.507  0.00  0.00    +0.148 HD
BRANCH  26  28
ATOM     28  C   UNL     1      51.367 160.956  31.001  0.00  0.00    +0.132 C 
ATOM     29  C   UNL     1      50.095 161.265  31.158  0.00  0.00    +0.115 C 
BRANCH  29  30
ATOM     30  C   UNL     1      49.019 160.301  31.252  0.00  0.00    +0.341 C 
ATOM     31  O   UNL     1      49.204 159.070  31.071  0.00  0.00    -0.245 OA
BRANCH  30  32
ATOM     32  O   UNL     1      47.724 160.691  31.547  0.00  0.00    -0.477 OA
ATOM     33  H   UNL     1      47.529 161.596  31.691  0.00  0.00    +0.295 HD
ENDBRANCH  30  32
ENDBRANCH  29  30
BRANCH  28  34
ATOM     34  N   UNL     1      52.313 162.014  30.925  0.00  0.00    -0.254 N 
ATOM     35  H   UNL     1      52.293 162.596  30.132  0.00  0.00    +0.195 HD
BRANCH  34  36
ATOM     36  O   UNL     1      53.226 162.265  31.864  0.00  0.00    -0.288 OA
ATOM     37  H   UNL     1      53.135 161.621  32.584  0.00  0.00    +0.244 HD
ENDBRANCH  34  36
ENDBRANCH  28  34
ENDBRANCH  26  28
ENDBRANCH  25  26
ENDBRANCH  21  25
ENDBRANCH   1  21
TORSDOF 10
