REMARK  Name = =
REMARK  15 active torsions:
REMARK  status: ('A' for Active; 'I' for Inactive)
REMARK    1  A    between atoms: S_1  and  C_2
REMARK    2  A    between atoms: S_1  and  N_3
REMARK    3  A    between atoms: C_2  and  N_21
REMARK    4  A    between atoms: C_2  and  C_22
REMARK    5  A    between atoms: N_3  and  C_15
REMARK    6  A    between atoms: C_4  and  C_19
REMARK    7  A    between atoms: C_22  and  N_23
REMARK    8  A    between atoms: N_23  and  C_24
REMARK    9  A    between atoms: C_24  and  N_29
REMARK   10  A    between atoms: C_25  and  C_26
REMARK   11  A    between atoms: C_26  and  O_28
REMARK   12  A    between atoms: N_29  and  N_30
REMARK   13  A    between atoms: N_29  and  O_38
REMARK   14  A    between atoms: C_34  and  C_35
REMARK   15  A    between atoms: C_35  and  O_37
REMARK                            x       y       z     vdW  Elec       q    Type
REMARK                         _______ _______ _______ _____ _____    ______ ____
ROOT
ATOM      1  C   UNL     1      52.035 157.525  28.766  0.00  0.00    +0.124 C 
ENDROOT
BRANCH   1   2
ATOM      2  N   UNL     1      53.337 157.581  29.322  0.00  0.00    -0.312 NA
ATOM      3  H   UNL     1      53.862 156.752  29.043  0.00  0.00    +0.120 HD
ATOM      4  H   UNL     1      53.271 157.615  30.339  0.00  0.00    +0.120 HD
ENDBRANCH   1   2
BRANCH   1   5
ATOM      5  S   UNL     1      51.524 156.289  27.831  0.00  0.00    -0.106 S 
ATOM      6  H   UNL     1      51.159 156.814  26.631  0.00  0.00    +0.114 HD
BRANCH   5   7
ATOM      7  N   UNL     1      52.659 154.967  27.504  0.00  0.00    -0.219 N 
ATOM      8  C   UNL     1      52.800 153.927  28.393  0.00  0.00    +0.261 C 
ATOM      9  O   UNL     1      53.702 153.002  28.155  0.00  0.00    -0.269 OA
BRANCH   7  19
ATOM     10  N   UNL     1      54.556 153.047  23.707  0.00  0.00    -0.263 NA
ATOM     11  C   UNL     1      54.403 154.168  24.317  0.00  0.00    +0.078 C 
ATOM     12  C   UNL     1      53.680 154.037  25.495  0.00  0.00    +0.030 C 
ATOM     13  C   UNL     1      53.358 152.752  25.634  0.00  0.00    +0.007 C 
ATOM     14  C   UNL     1      53.921 152.037  24.462  0.00  0.00    +0.148 C 
ATOM     15  C   UNL     1      53.727 150.754  24.386  0.00  0.00    +0.002 C 
ATOM     16  C   UNL     1      52.989 149.947  25.378  0.00  0.00    -0.002 C 
ATOM     17  C   UNL     1      52.463 150.734  26.512  0.00  0.00    -0.001 C 
ATOM     18  C   UNL     1      52.622 152.027  26.650  0.00  0.00    -0.002 C 
ATOM     19  C   UNL     1      53.406 155.108  26.294  0.00  0.00    +0.065 C 
ATOM     20  C   UNL     1      53.862 156.348  25.916  0.00  0.00    +0.016 C 
ATOM     21  C   UNL     1      54.584 156.546  24.760  0.00  0.00    +0.003 C 
ATOM     22  C   UNL     1      54.840 155.447  23.983  0.00  0.00    +0.019 C 
ENDBRANCH   7  19
BRANCH   8  23
ATOM     23  C   UNL     1      52.062 153.711  29.591  0.00  0.00    +0.059 C 
ATOM     24  C   UNL     1      51.180 154.474  30.159  0.00  0.00    +0.005 C 
ENDBRANCH   8  23
ENDBRANCH   5   7
ENDBRANCH   1   5
BRANCH   1  25
ATOM     25  C   UNL     1      51.106 158.639  29.052  0.00  0.00    +0.116 C 
BRANCH  25  26
ATOM     26  N   UNL     1      51.106 159.018  30.450  0.00  0.00    -0.315 N 
ATOM     27  H   UNL     1      50.768 158.371  31.110  0.00  0.00    +0.148 HD
BRANCH  26  28
ATOM     28  C   UNL     1      51.575 160.290  30.920  0.00  0.00    +0.158 C 
ATOM     29  C   UNL     1      52.397 160.991  30.159  0.00  0.00    +0.118 C 
BRANCH  29  30
ATOM     30  C   UNL     1      52.908 162.292  30.582  0.00  0.00    +0.341 C 
ATOM     31  O   UNL     1      53.663 162.957  29.856  0.00  0.00    -0.245 OA
BRANCH  30  32
ATOM     32  O   UNL     1      52.532 162.791  31.835  0.00  0.00    -0.477 OA
ATOM     33  H   UNL     1      51.962 162.292  32.386  0.00  0.00    +0.295 HD
ENDBRANCH  30  32
ENDBRANCH  29  30
BRANCH  28  34
ATOM     34  N   UNL     1      51.228 160.801  32.179  0.00  0.00    -0.146 N 
BRANCH  34  35
ATOM     35  N   UNL     1      50.042 161.267  32.680  0.00  0.00    -0.158 N 
ATOM     36  C   UNL     1      49.923 161.839  33.928  0.00  0.00    +0.189 C 
ATOM     37  N   UNL     1      48.664 162.195  34.156  0.00  0.00    -0.223 NA
ATOM     38  C   UNL     1      47.928 161.882  33.102  0.00  0.00    +0.124 C 
ATOM     39  C   UNL     1      48.801 161.294  32.167  0.00  0.00    +0.170 C 
BRANCH  39  40
ATOM     40  C   UNL     1      48.317 160.828  30.896  0.00  0.00    +0.355 C 
ATOM     41  O   UNL     1      48.823 159.932  30.199  0.00  0.00    -0.244 OA
BRANCH  40  42
ATOM     42  O   UNL     1      47.165 161.408  30.343  0.00  0.00    -0.476 OA
ATOM     43  H   UNL     1      46.718 162.092  30.802  0.00  0.00    +0.295 HD
ENDBRANCH  40  42
ENDBRANCH  39  40
ENDBRANCH  34  35
BRANCH  34  44
ATOM     44  O   UNL     1      52.318 160.821  33.057  0.00  0.00    -0.267 OA
ATOM     45  H   UNL     1      53.103 160.473  32.606  0.00  0.00    +0.246 HD
ENDBRANCH  34  44
ENDBRANCH  28  34
ENDBRANCH  26  28
ENDBRANCH  25  26
ENDBRANCH   1  25
TORSDOF 15
