MODEL 1
REMARK VINA RESULT:    -7.090      0.000      0.000
REMARK INTER + INTRA:         -10.079
REMARK INTER:                  -8.541
REMARK INTRA:                  -1.538
REMARK UNBOUND:                -1.538
REMARK  Name = =
REMARK  4 active torsions:
REMARK  status: ('A' for Active; 'I' for Inactive)
REMARK    1  A    between atoms: C_1  and  C_30
REMARK    2  A    between atoms: C_1  and  N_39
REMARK    3  A    between atoms: C_13  and  N_18
REMARK    4  A    between atoms: C_37  and  O_38
REMARK                            x       y       z     vdW  Elec       q    Type
REMARK                         _______ _______ _______ _____ _____    ______ ____
ROOT
ATOM      1  C   UNL     1      58.290 162.566  41.101  0.00  0.00    +0.070 C 
ATOM      2  C   UNL     1      58.868 163.075  39.797  0.00  0.00    +0.016 C 
ATOM      3  C   UNL     1      60.320 162.649  39.989  0.00  0.00    +0.001 C 
ATOM      4  C   UNL     1      61.153 163.174  38.917  0.00  0.00    +0.000 C 
ATOM      5  C   UNL     1      61.116 164.646  38.661  0.00  0.00    +0.001 C 
ATOM      6  C   UNL     1      62.446 165.304  38.908  0.00  0.00    +0.015 C 
ATOM      7  C   UNL     1      63.379 164.461  39.714  0.00  0.00    +0.001 C 
ATOM      8  C   UNL     1      63.682 163.185  38.981  0.00  0.00    +0.000 C 
ATOM      9  C   UNL     1      62.421 162.505  38.590  0.00  0.00    +0.000 C 
ATOM     10  C   UNL     1      64.689 165.238  39.867  0.00  0.00    +0.000 C 
ATOM     11  C   UNL     1      64.467 166.706  39.628  0.00  0.00    +0.001 C 
ATOM     12  C   UNL     1      64.022 167.016  38.217  0.00  0.00    +0.016 C 
ATOM     13  C   UNL     1      63.138 165.857  37.721  0.00  0.00    +0.057 C 
ATOM     14  C   UNL     1      60.022 165.305  39.424  0.00  0.00    +0.000 C 
ATOM     15  C   UNL     1      58.760 164.535  39.593  0.00  0.00    +0.001 C 
ATOM     16  C   UNL     1      60.639 162.989  41.396  0.00  0.00    +0.001 C 
ATOM     17  C   UNL     1      59.271 163.235  42.069  0.00  0.00    +0.017 C 
ENDROOT
BRANCH  13  18
ATOM     18  N   UNL     1      62.365 166.207  36.602  0.00  0.00    -0.273 NA
ATOM     19  C   UNL     1      61.720 167.441  36.530  0.00  0.00    +0.077 C 
ATOM     20  C   UNL     1      62.074 168.341  35.404  0.00  0.00    +0.043 C 
ATOM     21  C   UNL     1      63.341 168.057  34.728  0.00  0.00    -0.025 C 
ATOM     22  C   UNL     1      64.013 166.908  34.401  0.00  0.00    -0.025 C 
ATOM     23  C   UNL     1      65.228 166.943  33.746  0.00  0.00    -0.005 C 
ATOM     24  C   UNL     1      65.810 168.168  33.394  0.00  0.00    -0.000 C 
ATOM     25  C   UNL     1      65.151 169.336  33.714  0.00  0.00    -0.000 C 
ATOM     26  C   UNL     1      63.947 169.244  34.366  0.00  0.00    -0.005 C 
ATOM     27  C   UNL     1      63.610 165.530  34.661  0.00  0.00    +0.043 C 
ATOM     28  C   UNL     1      62.381 165.367  35.478  0.00  0.00    +0.077 C 
ENDBRANCH  13  18
BRANCH   1  30
ATOM     29  N   UNL     1      55.820 162.467  41.166  0.00  0.00    -0.267 NA
ATOM     30  C   UNL     1      56.921 163.081  41.391  0.00  0.00    +0.139 C 
ATOM     31  C   UNL     1      56.596 164.389  41.978  0.00  0.00    +0.003 C 
ATOM     32  C   UNL     1      55.118 164.437  42.051  0.00  0.00    +0.049 C 
ATOM     33  C   UNL     1      54.706 163.236  41.546  0.00  0.00    +0.079 C 
ATOM     34  C   UNL     1      53.325 163.012  41.501  0.00  0.00    +0.019 C 
ATOM     35  C   UNL     1      52.454 163.973  41.951  0.00  0.00    +0.005 C 
ATOM     36  C   UNL     1      52.913 165.176  42.456  0.00  0.00    +0.037 C 
ATOM     37  C   UNL     1      54.266 165.414  42.507  0.00  0.00    +0.135 C 
BRANCH  37  38
ATOM     38  O   UNL     1      54.717 166.630  43.018  0.00  0.00    -0.505 OA
ATOM     39  H   UNL     1      55.092 167.268  42.444  0.00  0.00    +0.292 HD
ENDBRANCH  37  38
ENDBRANCH   1  30
BRANCH   1  40
ATOM     40  N   UNL     1      58.374 161.180  41.097  0.00  0.00    -0.273 NA
ATOM     41  C   UNL     1      58.526 160.422  42.255  0.00  0.00    +0.072 C 
ATOM     42  C   UNL     1      59.600 159.339  42.146  0.00  0.00    +0.017 C 
ATOM     43  C   UNL     1      58.994 158.113  41.555  0.00  0.00    +0.001 C 
ATOM     44  C   UNL     1      58.930 158.117  40.058  0.00  0.00    +0.001 C 
ATOM     45  C   UNL     1      59.146 159.489  39.466  0.00  0.00    +0.017 C 
ATOM     46  C   UNL     1      58.120 160.484  39.885  0.00  0.00    +0.072 C 
ENDBRANCH   1  40
TORSDOF 4
ENDMDL
