REMARK  Name = =
REMARK  4 active torsions:
REMARK  status: ('A' for Active; 'I' for Inactive)
REMARK    1  A    between atoms: C_1  and  N_7
REMARK    2  A    between atoms: C_3  and  O_25
REMARK    3  A    between atoms: O_25  and  N_26
REMARK    4  A    between atoms: C_31  and  N_33
REMARK                            x       y       z     vdW  Elec       q    Type
REMARK                         _______ _______ _______ _____ _____    ______ ____
ROOT
ATOM      1  C   UNL     1     -12.996  -7.070  21.109  0.00  0.00    +0.135 C 
ATOM      2  C   UNL     1     -11.931  -7.386  21.961  0.00  0.00    +0.074 C 
ATOM      3  C   UNL     1     -10.900  -6.499  22.180  0.00  0.00    +0.177 C 
ATOM      4  C   UNL     1     -10.886  -5.277  21.569  0.00  0.00    +0.061 C 
ATOM      5  C   UNL     1     -11.942  -4.976  20.729  0.00  0.00    +0.104 C 
ATOM      6  N   UNL     1     -12.933  -5.854  20.531  0.00  0.00    -0.229 NA
ENDROOT
BRANCH   1   7
ATOM      7  N   UNL     1     -14.033  -7.929  20.901  0.00  0.00    -0.294 N 
ATOM      8  C   UNL     1     -14.419  -8.858  21.905  0.00  0.00    +0.079 C 
ATOM      9  C   UNL     1     -15.653  -8.466  22.619  0.00  0.00    +0.026 C 
ATOM     10  C   UNL     1     -16.705  -8.169  21.577  0.00  0.00    +0.061 C 
ATOM     11  C   UNL     1     -18.035  -7.705  22.101  0.00  0.00    +0.170 C 
ATOM     12  O   UNL     1     -19.022  -8.451  21.395  0.00  0.00    -0.479 OA
ATOM     13  C   UNL     1     -18.419  -9.677  21.041  0.00  0.00    +0.134 C 
ATOM     14  C   UNL     1     -17.074  -9.540  21.152  0.00  0.00    +0.011 C 
ATOM     15  C   UNL     1     -16.095 -10.458  20.926  0.00  0.00    -0.021 C 
ATOM     16  C   UNL     1     -16.537 -11.693  20.526  0.00  0.00    -0.004 C 
ATOM     17  C   UNL     1     -17.909 -11.941  20.377  0.00  0.00    +0.003 C 
ATOM     18  C   UNL     1     -18.841 -10.924  20.638  0.00  0.00    +0.037 C 
ATOM     19  C   UNL     1     -14.671 -10.179  21.151  0.00  0.00    +0.046 C 
ATOM     20  C   UNL     1     -18.185  -7.523  23.528  0.00  0.00    +0.044 C 
ATOM     21  C   UNL     1     -16.981  -7.589  24.402  0.00  0.00    +0.004 C 
ATOM     22  C   UNL     1     -15.648  -7.434  23.648  0.00  0.00    +0.002 C 
ATOM     23  C   UNL     1     -16.305  -7.308  20.452  0.00  0.00    +0.029 C 
ATOM     24  C   UNL     1     -14.968  -7.661  19.898  0.00  0.00    +0.093 C 
ENDBRANCH   1   7
BRANCH   3  25
ATOM     25  O   UNL     1      -9.843  -6.881  23.051  0.00  0.00    -0.377 OA
BRANCH  25  26
ATOM     26  N   UNL     1      -8.965  -7.783  22.440  0.00  0.00    -0.202 N 
ATOM     27  C   UNL     1      -8.374  -7.314  21.240  0.00  0.00    +0.171 C 
ATOM     28  N   UNL     1      -9.131  -7.286  20.101  0.00  0.00    -0.224 NA
ATOM     29  C   UNL     1      -8.653  -6.844  18.930  0.00  0.00    +0.102 C 
ATOM     30  C   UNL     1      -7.355  -6.394  18.827  0.00  0.00    +0.036 C 
ATOM     31  C   UNL     1      -6.524  -6.395  19.950  0.00  0.00    +0.063 C 
ATOM     32  C   UNL     1      -7.081  -6.862  21.123  0.00  0.00    +0.055 C 
ATOM     33  H   UNL     1      -8.773  -8.673  22.814  0.00  0.00    +0.209 HD
BRANCH  31  34
ATOM     34  N   UNL     1      -5.207  -5.951  19.788  0.00  0.00    -0.238 N 
ATOM     35  C   UNL     1      -4.866  -4.747  20.458  0.00  0.00    +0.054 C 
ATOM     36  C   UNL     1      -3.584  -4.396  20.891  0.00  0.00    -0.008 C 
ATOM     37  C   UNL     1      -3.391  -3.218  21.534  0.00  0.00    -0.003 C 
ATOM     38  C   UNL     1      -4.480  -2.378  21.748  0.00  0.00    -0.000 C 
ATOM     39  C   UNL     1      -5.748  -2.731  21.316  0.00  0.00    +0.001 C 
ATOM     40  C   UNL     1      -5.958  -3.933  20.658  0.00  0.00    +0.015 C 
ATOM     41  C   UNL     1      -2.336  -5.227  20.686  0.00  0.00    +0.028 C 
ATOM     42  C   UNL     1      -2.189  -5.358  19.195  0.00  0.00    +0.014 C 
ATOM     43  C   UNL     1      -2.896  -6.508  18.577  0.00  0.00    +0.086 C 
ATOM     44  C   UNL     1      -4.283  -6.721  18.990  0.00  0.00    +0.233 C 
ATOM     45  O   UNL     1      -4.796  -7.793  18.574  0.00  0.00    -0.274 OA
ENDBRANCH  31  34
ENDBRANCH  25  26
ENDBRANCH   3  25
TORSDOF 4
