REMARK  Name = =
REMARK  1 active torsions:
REMARK  status: ('A' for Active; 'I' for Inactive)
REMARK    1  A    between atoms: N_1  and  N_15
REMARK                            x       y       z     vdW  Elec       q    Type
REMARK                         _______ _______ _______ _____ _____    ______ ____
ROOT
ATOM      1  N   UNL     1     -11.447 -43.973  30.379  0.00  0.00    -0.078 N 
ATOM      2  S   UNL     1     -11.424 -42.782  31.633  0.00  0.00    +0.094 S 
ATOM      3  O   UNL     1     -11.651 -41.404  31.077  0.00  0.00    -0.148 OA
ATOM      4  O   UNL     1     -12.382 -43.130  32.721  0.00  0.00    -0.148 OA
ATOM      5  C   UNL     1      -9.759 -42.982  32.109  0.00  0.00    +0.132 C 
ATOM      6  C   UNL     1      -9.236 -43.945  31.314  0.00  0.00    +0.076 C 
ATOM      7  C   UNL     1      -7.896 -44.268  31.526  0.00  0.00    +0.006 C 
ATOM      8  C   UNL     1      -7.184 -43.619  32.499  0.00  0.00    +0.000 C 
ATOM      9  C   UNL     1      -7.722 -42.640  33.304  0.00  0.00    +0.001 C 
ATOM     10  C   UNL     1      -9.047 -42.334  33.081  0.00  0.00    +0.020 C 
ATOM     11  C   UNL     1     -10.137 -44.507  30.356  0.00  0.00    +0.285 C 
ATOM     12  O   UNL     1      -9.850 -45.431  29.507  0.00  0.00    -0.267 OA
ENDROOT
BRANCH   1  15
ATOM     13  C   UNL     1     -13.538 -45.253  29.958  0.00  0.00    +0.318 C 
ATOM     14  O   UNL     1     -13.362 -45.791  31.102  0.00  0.00    -0.264 OA
ATOM     15  N   UNL     1     -12.551 -44.310  29.574  0.00  0.00    -0.203 N 
ATOM     16  H   UNL     1     -12.643 -43.868  28.699  0.00  0.00    +0.175 HD
ENDBRANCH   1  15
TORSDOF 1
