REMARK  Name = =
REMARK  3 active torsions:
REMARK  status: ('A' for Active; 'I' for Inactive)
REMARK    1  A    between atoms: C_1  and  C_18
REMARK    2  A    between atoms: N_3  and  N_4
REMARK    3  A    between atoms: C_16  and  C_23
REMARK                            x       y       z     vdW  Elec       q    Type
REMARK                         _______ _______ _______ _____ _____    ______ ____
ROOT
ATOM      1  C   UNL     1     -13.384 -42.994  27.672  0.00  0.00    +0.287 C 
ATOM      2  O   UNL     1     -14.074 -42.619  28.644  0.00  0.00    -0.266 OA
ATOM      3  N   UNL     1     -12.019 -43.235  27.884  0.00  0.00    -0.206 N 
ATOM      4  H   UNL     1     -11.514 -43.525  27.090  0.00  0.00    +0.175 HD
ENDROOT
BRANCH   3   5
ATOM      5  N   UNL     1     -11.284 -43.125  29.042  0.00  0.00    -0.078 N 
ATOM      6  S   UNL     1      -9.515 -43.185  29.023  0.00  0.00    +0.094 S 
ATOM      7  O   UNL     1      -8.981 -42.019  28.259  0.00  0.00    -0.148 OA
ATOM      8  O   UNL     1      -9.066 -44.496  28.477  0.00  0.00    -0.148 OA
ATOM      9  C   UNL     1      -9.250 -43.054  30.728  0.00  0.00    +0.132 C 
ATOM     10  C   UNL     1     -10.472 -42.930  31.303  0.00  0.00    +0.076 C 
ATOM     11  C   UNL     1     -10.490 -42.799  32.699  0.00  0.00    +0.006 C 
ATOM     12  C   UNL     1      -9.338 -42.798  33.425  0.00  0.00    +0.000 C 
ATOM     13  C   UNL     1      -8.097 -42.924  32.845  0.00  0.00    +0.001 C 
ATOM     14  C   UNL     1      -8.100 -43.052  31.462  0.00  0.00    +0.020 C 
ATOM     15  C   UNL     1     -11.592 -42.965  30.408  0.00  0.00    +0.285 C 
ATOM     16  O   UNL     1     -12.820 -42.860  30.792  0.00  0.00    -0.267 OA
ENDBRANCH   3   5
BRANCH   1  19
ATOM     17  C   UNL     1     -15.693 -42.861  24.328  0.00  0.00    +0.038 C 
ATOM     18  S   UNL     1     -15.539 -42.198  25.918  0.00  0.00    -0.065 S 
ATOM     19  C   UNL     1     -13.990 -43.178  26.333  0.00  0.00    +0.165 C 
ATOM     20  N   UNL     1     -13.862 -43.775  25.317  0.00  0.00    -0.232 NA
ATOM     21  C   UNL     1     -14.621 -43.718  24.250  0.00  0.00    +0.103 C 
BRANCH  17  24
ATOM     22  N   UNL     1     -18.299 -42.430  25.908  0.00  0.00    -0.072 NA
ATOM     23  S   UNL     1     -18.180 -42.163  24.008  0.00  0.00    -0.082 S 
ATOM     24  C   UNL     1     -16.753 -42.559  23.293  0.00  0.00    +0.085 C 
ATOM     25  C   UNL     1     -16.107 -41.515  22.377  0.00  0.00    +0.016 C 
ATOM     26  C   UNL     1     -16.713 -40.145  22.570  0.00  0.00    +0.002 C 
ATOM     27  C   UNL     1     -18.204 -40.159  22.312  0.00  0.00    +0.012 C 
ATOM     28  C   UNL     1     -18.840 -40.681  23.600  0.00  0.00    +0.066 C 
ENDBRANCH  17  24
ENDBRANCH   1  19
TORSDOF 3
REMARK  Name = =
REMARK  3 active torsions:
REMARK  status: ('A' for Active; 'I' for Inactive)
REMARK    1  A    between atoms: C_1  and  C_18
REMARK    2  A    between atoms: N_3  and  N_4
REMARK    3  A    between atoms: C_16  and  C_23
REMARK                            x       y       z     vdW  Elec       q    Type
REMARK                         _______ _______ _______ _____ _____    ______ ____
ROOT
ATOM      1  H   UNK     1     -19.450 -43.440  23.648  0.00  0.00    +0.000 HD
ENDROOT
TORSDOF 0
