REMARK  Name = =
REMARK  12 active torsions:
REMARK  status: ('A' for Active; 'I' for Inactive)
REMARK    1  A    between atoms: C_1  and  C_7
REMARK    2  A    between atoms: C_2  and  C_34
REMARK    3  A    between atoms: C_6  and  C_17
REMARK    4  A    between atoms: C_7  and  O_9
REMARK    5  A    between atoms: O_9  and  C_10
REMARK    6  A    between atoms: C_10  and  S_12
REMARK    7  A    between atoms: C_17  and  O_19
REMARK    8  A    between atoms: O_19  and  N_20
REMARK    9  A    between atoms: C_23  and  S_26
REMARK   10  A    between atoms: C_25  and  S_28
REMARK   11  A    between atoms: S_28  and  C_29
REMARK   12  A    between atoms: C_34  and  O_36
REMARK                            x       y       z     vdW  Elec       q    Type
REMARK                         _______ _______ _______ _____ _____    ______ ____
ROOT
ATOM      1  C   UNL     1       1.626  -5.321  26.916  0.00  0.00    +0.087 C 
ATOM      2  C   UNL     1       0.633  -6.234  27.495  0.00  0.00    +0.079 C 
ATOM      3  C   UNL     1      -0.393  -5.847  28.214  0.00  0.00    +0.121 C 
ATOM      4  N   UNL     1      -0.602  -4.475  28.470  0.00  0.00    -0.328 N 
ATOM      5  C   UNL     1       0.300  -3.528  27.940  0.00  0.00    +0.065 C 
ATOM      6  C   UNL     1       1.328  -3.916  27.218  0.00  0.00    +0.098 C 
ATOM      7  H   UNL     1      -1.369  -4.182  29.013  0.00  0.00    +0.147 HD
ENDROOT
BRANCH   1   8
ATOM      8  C   UNL     1       2.943  -5.705  27.565  0.00  0.00    +0.348 C 
ATOM      9  O   UNL     1       3.073  -5.595  28.782  0.00  0.00    -0.244 OA
BRANCH   8  10
ATOM     10  O   UNL     1       4.013  -6.178  26.832  0.00  0.00    -0.383 OA
BRANCH  10  11
ATOM     11  C   UNL     1       4.719  -7.297  27.155  0.00  0.00    +0.358 C 
ATOM     12  O   UNL     1       4.127  -8.374  27.362  0.00  0.00    -0.239 OA
BRANCH  11  13
ATOM     13  S   UNL     1       6.519  -7.279  27.300  0.00  0.00    -0.121 S 
ATOM     14  C   UNL     1       7.391  -6.927  25.701  0.00  0.00    +0.066 C 
ATOM     15  C   UNL     1       7.633  -8.353  25.312  0.00  0.00    +0.100 C 
ATOM     16  N   UNL     1       8.339  -8.854  26.502  0.00  0.00    -0.207 NA
ATOM     17  C   UNL     1       7.293  -8.913  27.535  0.00  0.00    +0.135 C 
ATOM     18  H   UNL     1       6.647  -6.384  28.316  0.00  0.00    +0.095 HD
ENDBRANCH  11  13
ENDBRANCH  10  11
ENDBRANCH   8  10
ENDBRANCH   1   8
BRANCH   6  19
ATOM     19  C   UNL     1       2.170  -2.822  26.695  0.00  0.00    +0.361 C 
ATOM     20  O   UNL     1       2.964  -2.192  27.419  0.00  0.00    -0.243 OA
BRANCH  19  21
ATOM     21  O   UNL     1       2.127  -2.427  25.364  0.00  0.00    -0.360 OA
BRANCH  21  22
ATOM     22  N   UNL     1       2.797  -1.391  24.827  0.00  0.00    -0.108 NA
ATOM     23  C   UNL     1       2.068  -0.175  24.689  0.00  0.00    +0.115 C 
ATOM     24  C   UNL     1       1.706   0.014  23.230  0.00  0.00    +0.034 C 
ATOM     25  C   UNL     1       2.992   0.296  22.442  0.00  0.00    +0.080 C 
ATOM     26  C   UNL     1       4.136  -0.484  23.019  0.00  0.00    +0.044 C 
ATOM     27  C   UNL     1       3.573  -1.751  23.651  0.00  0.00    +0.150 C 
BRANCH  25  28
ATOM     28  S   UNL     1       2.816  -0.133  20.718  0.00  0.00    +0.018 S 
ATOM     29  O   UNL     1       1.600  -1.013  20.465  0.00  0.00    -0.260 OA
ATOM     30  H   UNL     1       3.931  -0.801  20.317  0.00  0.00    +0.139 HD
ENDBRANCH  25  28
BRANCH  27  31
ATOM     31  S   UNL     1       4.897  -2.889  24.020  0.00  0.00    -0.055 S 
BRANCH  31  32
ATOM     32  C   UNL     1       5.677  -3.457  22.520  0.00  0.00    +0.209 A 
ATOM     33  N   UNL     1       5.145  -3.759  21.331  0.00  0.00    -0.234 N 
ATOM     34  N   UNL     1       6.089  -4.128  20.493  0.00  0.00    -0.046 NA
ATOM     35  N   UNL     1       7.218  -4.055  21.165  0.00  0.00    -0.022 NA
ATOM     36  N   UNL     1       7.011  -3.653  22.392  0.00  0.00    -0.102 NA
ATOM     37  H   UNL     1       4.186  -3.712  21.114  0.00  0.00    +0.193 HD
ENDBRANCH  31  32
ENDBRANCH  27  31
ENDBRANCH  21  22
ENDBRANCH  19  21
ENDBRANCH   6  19
BRANCH   2  38
ATOM     38  C   UNL     1       0.755  -7.687  27.254  0.00  0.00    +0.336 C 
ATOM     39  O   UNL     1       1.006  -8.085  26.099  0.00  0.00    -0.245 OA
BRANCH  38  40
ATOM     40  O   UNL     1       0.600  -8.598  28.259  0.00  0.00    -0.477 OA
ATOM     41  H   UNL     1       0.411  -8.308  29.130  0.00  0.00    +0.295 HD
ENDBRANCH  38  40
ENDBRANCH   2  38
TORSDOF 12
