MODEL 1
REMARK VINA RESULT:    -7.060      0.000      0.000
REMARK INTER + INTRA:         -11.234
REMARK INTER:                 -10.361
REMARK INTRA:                  -0.873
REMARK UNBOUND:                -0.873
REMARK  Name = =
REMARK  9 active torsions:
REMARK  status: ('A' for Active; 'I' for Inactive)
REMARK    1  A    between atoms: O_1  and  C_2
REMARK    2  A    between atoms: O_1  and  C_21
REMARK    3  A    between atoms: C_6  and  C_8
REMARK    4  A    between atoms: C_12  and  C_13
REMARK    5  A    between atoms: C_16  and  O_20
REMARK    6  A    between atoms: C_21  and  C_26
REMARK    7  A    between atoms: C_26  and  O_37
REMARK    8  A    between atoms: C_34  and  O_36
REMARK    9  A    between atoms: O_37  and  C_38
REMARK                            x       y       z     vdW  Elec       q    Type
REMARK                         _______ _______ _______ _____ _____    ______ ____
ROOT
ATOM      1  O   UNL     1      61.305 163.960  37.497  0.00  0.00    -0.453 OA
ENDROOT
BRANCH   1   2
ATOM      2  C   UNL     1      60.527 162.850  37.546  0.00  0.00    +0.160 C 
ATOM      3  C   UNL     1      59.557 162.481  36.639  0.00  0.00    +0.136 C 
ATOM      4  N   UNL     1      58.823 161.385  36.730  0.00  0.00    -0.239 NA
ATOM      5  C   UNL     1      58.977 160.519  37.753  0.00  0.00    +0.096 C 
ATOM      6  C   UNL     1      59.924 160.811  38.704  0.00  0.00    +0.016 C 
ATOM      7  C   UNL     1      60.700 161.966  38.613  0.00  0.00    +0.037 C 
BRANCH   6   8
ATOM      8  C   UNL     1      60.101 159.872  39.838  0.00  0.00    +0.098 C 
ATOM      9  N   UNL     1      61.514 159.681  40.143  0.00  0.00    -0.280 NA
ATOM     10  C   UNL     1      61.431 159.081  41.485  0.00  0.00    +0.143 C 
ATOM     11  N   UNL     1      60.405 159.816  42.160  0.00  0.00    -0.280 NA
ATOM     12  C   UNL     1      59.545 160.383  41.115  0.00  0.00    +0.099 C 
ATOM     13  H   UNL     1      61.959 159.050  39.477  0.00  0.00    +0.125 HD
ATOM     14  H   UNL     1      59.865 159.195  42.763  0.00  0.00    +0.125 HD
BRANCH  12  15
ATOM     15  C   UNL     1      58.149 160.015  41.406  0.00  0.00    +0.021 C 
ATOM     16  C   UNL     1      57.130 160.925  41.094  0.00  0.00    +0.140 C 
ATOM     17  C   UNL     1      55.806 160.665  41.332  0.00  0.00    +0.066 C 
ATOM     18  C   UNL     1      55.423 159.488  41.893  0.00  0.00    +0.136 C 
ATOM     19  C   UNL     1      56.377 158.567  42.217  0.00  0.00    +0.036 C 
ATOM     20  C   UNL     1      57.723 158.839  41.972  0.00  0.00    +0.002 C 
ATOM     21  F   UNL     1      57.437 162.124  40.530  0.00  0.00    -0.204 F 
BRANCH  18  22
ATOM     22  O   UNL     1      54.074 159.223  42.137  0.00  0.00    -0.505 OA
ATOM     23  H   UNL     1      53.412 159.738  41.718  0.00  0.00    +0.292 HD
ENDBRANCH  18  22
ENDBRANCH  12  15
ENDBRANCH   6   8
ENDBRANCH   1   2
BRANCH   1  24
ATOM     24  C   UNL     1      61.132 165.179  38.106  0.00  0.00    +0.272 C 
ATOM     25  N   UNL     1      59.760 165.555  38.331  0.00  0.00    -0.171 NA
ATOM     26  C   UNL     1      59.288 165.077  39.573  0.00  0.00    +0.105 C 
ATOM     27  C   UNL     1      60.260 165.534  40.670  0.00  0.00    +0.081 C 
ATOM     28  S   UNL     1      61.798 165.010  39.819  0.00  0.00    -0.080 S 
BRANCH  24  29
ATOM     29  C   UNL     1      61.822 166.355  37.525  0.00  0.00    +0.213 C 
ATOM     30  C   UNL     1      61.704 167.592  38.436  0.00  0.00    +0.051 C 
ATOM     31  C   UNL     1      62.747 168.573  37.976  0.00  0.00    +0.009 C 
ATOM     32  C   UNL     1      62.742 168.838  36.512  0.00  0.00    +0.026 C 
ATOM     33  C   UNL     1      61.752 168.016  35.767  0.00  0.00    -0.020 C 
ATOM     34  C   UNL     1      61.280 166.807  36.221  0.00  0.00    +0.016 C 
ATOM     35  C   UNL     1      60.365 166.064  35.519  0.00  0.00    +0.002 C 
ATOM     36  C   UNL     1      59.919 166.572  34.315  0.00  0.00    +0.036 C 
ATOM     37  C   UNL     1      60.377 167.787  33.832  0.00  0.00    +0.133 C 
ATOM     38  C   UNL     1      61.299 168.521  34.554  0.00  0.00    +0.032 C 
BRANCH  37  39
ATOM     39  O   UNL     1      59.949 168.324  32.622  0.00  0.00    -0.506 OA
ATOM     40  H   UNL     1      59.032 168.384  32.434  0.00  0.00    +0.292 HD
ENDBRANCH  37  39
BRANCH  29  41
ATOM     41  O   UNL     1      63.201 166.196  37.338  0.00  0.00    -0.432 OA
BRANCH  41  42
ATOM     42  C   UNL     1      63.855 165.207  36.679  0.00  0.00    +0.399 C 
ATOM     43  O   UNL     1      63.907 165.229  35.424  0.00  0.00    -0.227 OA
ATOM     44  N   UNL     1      64.459 164.181  37.452  0.00  0.00    -0.295 N 
ATOM     45  H   UNL     1      64.395 164.203  38.434  0.00  0.00    +0.148 HD
ATOM     46  H   UNL     1      64.943 163.448  37.007  0.00  0.00    +0.148 HD
ENDBRANCH  41  42
ENDBRANCH  29  41
ENDBRANCH  24  29
ENDBRANCH   1  24
TORSDOF 9
ENDMDL
