MODEL 1
REMARK VINA RESULT:   -10.532      0.000      0.000
REMARK INTER + INTRA:         -11.864
REMARK INTER:                 -12.995
REMARK INTRA:                   1.130
REMARK UNBOUND:                 1.130
REMARK  Name = =
REMARK  5 active torsions:
REMARK  status: ('A' for Active; 'I' for Inactive)
REMARK    1  A    between atoms: C_2  and  O_24
REMARK    2  A    between atoms: O_24  and  C_25
REMARK    3  A    between atoms: C_29  and  C_40
REMARK    4  A    between atoms: C_34  and  O_43
REMARK    5  A    between atoms: C_40  and  O_42
REMARK                            x       y       z     vdW  Elec       q    Type
REMARK                         _______ _______ _______ _____ _____    ______ ____
ROOT
ATOM      1  O   UNL     1      54.121 166.638  40.712  0.00  0.00    -0.321 OA
ATOM      2  C   UNL     1      53.610 165.546  41.297  0.00  0.00    +0.281 C 
ATOM      3  C   UNL     1      52.577 165.780  42.360  0.00  0.00    +0.182 C 
ATOM      4  O   UNL     1      51.312 165.588  41.894  0.00  0.00    -0.345 OA
ATOM      5  C   UNL     1      50.420 164.933  42.691  0.00  0.00    +0.169 C 
ATOM      6  C   UNL     1      49.411 164.363  41.749  0.00  0.00    +0.007 C 
ATOM      7  C   UNL     1      49.287 163.068  41.382  0.00  0.00    -0.002 C 
ATOM      8  C   UNL     1      50.139 161.938  41.798  0.00  0.00    -0.002 C 
ATOM      9  C   UNL     1      51.495 161.894  41.870  0.00  0.00    +0.007 C 
ATOM     10  C   UNL     1      52.108 160.699  42.293  0.00  0.00    -0.002 C 
ATOM     11  C   UNL     1      51.395 159.581  42.634  0.00  0.00    -0.000 C 
ATOM     12  C   UNL     1      50.025 159.616  42.564  0.00  0.00    -0.000 C 
ATOM     13  C   UNL     1      49.420 160.783  42.150  0.00  0.00    -0.000 C 
ATOM     14  C   UNL     1      52.444 162.971  41.523  0.00  0.00    +0.169 C 
ATOM     15  O   UNL     1      51.930 163.903  40.673  0.00  0.00    -0.343 OA
ATOM     16  C   UNL     1      52.869 164.788  40.168  0.00  0.00    +0.215 C 
ATOM     17  C   UNL     1      48.232 162.769  40.497  0.00  0.00    -0.000 C 
ATOM     18  C   UNL     1      47.355 163.696  40.003  0.00  0.00    -0.000 C 
ATOM     19  C   UNL     1      47.494 165.009  40.387  0.00  0.00    -0.000 C 
ATOM     20  C   UNL     1      48.523 165.313  41.254  0.00  0.00    -0.002 C 
ATOM     21  C   UNL     1      52.652 167.108  43.034  0.00  0.00    +0.039 C 
ATOM     22  C   UNL     1      53.213 168.208  42.184  0.00  0.00    +0.035 C 
ATOM     23  C   UNL     1      54.442 167.723  41.457  0.00  0.00    +0.146 C 
ENDROOT
BRANCH   2  24
ATOM     24  O   UNL     1      54.609 164.636  41.709  0.00  0.00    -0.453 OA
BRANCH  24  25
ATOM     25  C   UNL     1      55.939 164.668  41.301  0.00  0.00    +0.144 C 
ATOM     26  C   UNL     1      56.740 163.562  41.256  0.00  0.00    +0.069 C 
ATOM     27  C   UNL     1      58.048 163.623  40.829  0.00  0.00    -0.012 C 
ATOM     28  C   UNL     1      58.537 164.876  40.444  0.00  0.00    +0.003 C 
ATOM     29  C   UNL     1      57.773 166.011  40.477  0.00  0.00    +0.078 C 
ATOM     30  C   UNL     1      56.478 165.901  40.906  0.00  0.00    +0.044 C 
ATOM     31  C   UNL     1      58.972 162.449  40.760  0.00  0.00    +0.053 C 
ATOM     32  C   UNL     1      58.366 161.215  41.268  0.00  0.00    -0.012 C 
ATOM     33  C   UNL     1      57.089 161.097  41.707  0.00  0.00    +0.069 C 
ATOM     34  C   UNL     1      56.534 159.918  42.171  0.00  0.00    +0.136 C 
ATOM     35  C   UNL     1      57.350 158.809  42.176  0.00  0.00    +0.037 C 
ATOM     36  C   UNL     1      58.658 158.862  41.744  0.00  0.00    +0.003 C 
ATOM     37  C   UNL     1      59.144 160.063  41.296  0.00  0.00    -0.004 C 
ATOM     38  C   UNL     1      56.220 162.263  41.719  0.00  0.00    +0.201 C 
ATOM     39  O   UNL     1      55.035 162.214  42.116  0.00  0.00    -0.286 OA
BRANCH  29  40
ATOM     40  C   UNL     1      58.327 167.285  40.070  0.00  0.00    +0.338 C 
ATOM     41  O   UNL     1      59.538 167.523  40.237  0.00  0.00    -0.245 OA
BRANCH  40  42
ATOM     42  O   UNL     1      57.502 168.228  39.497  0.00  0.00    -0.477 OA
ATOM     43  H   UNL     1      57.683 169.141  39.612  0.00  0.00    +0.295 HD
ENDBRANCH  40  42
ENDBRANCH  29  40
BRANCH  34  44
ATOM     44  O   UNL     1      55.217 159.882  42.603  0.00  0.00    -0.505 OA
ATOM     45  H   UNL     1      54.849 159.080  42.920  0.00  0.00    +0.292 HD
ENDBRANCH  34  44
ENDBRANCH  24  25
ENDBRANCH   2  24
TORSDOF 5
ENDMDL
