REMARK  Name = =
REMARK  0 active torsions:
REMARK  status: ('A' for Active; 'I' for Inactive)
REMARK                            x       y       z     vdW  Elec       q    Type
REMARK                         _______ _______ _______ _____ _____    ______ ____
ROOT
ATOM      1  C   UNL     1      -4.832  -2.897  31.557  0.00  0.00    +0.136 C 
ATOM      2  N   UNL     1      -5.509  -3.588  32.474  0.00  0.00    -0.209 NA
ATOM      3  C   UNL     1      -6.350  -2.993  33.329  0.00  0.00    +0.200 C 
ATOM      4  N   UNL     1      -6.533  -1.670  33.277  0.00  0.00    -0.224 NA
ATOM      5  C   UNL     1      -5.886  -0.915  32.378  0.00  0.00    +0.089 C 
ATOM      6  C   UNL     1      -5.010  -1.535  31.488  0.00  0.00    +0.068 C 
ATOM      7  C   UNL     1      -4.367  -0.722  30.565  0.00  0.00    +0.103 C 
ATOM      8  N   UNL     1      -4.605   0.587  30.566  0.00  0.00    -0.242 NA
ATOM      9  C   UNL     1      -5.434   1.229  31.398  0.00  0.00    +0.100 C 
ATOM     10  C   UNL     1      -6.093   0.455  32.330  0.00  0.00    +0.040 C 
ATOM     11  N   UNL     1      -3.909  -3.493  30.662  0.00  0.00    -0.293 N 
ATOM     12  C   UNL     1      -4.024  -4.940  30.638  0.00  0.00    +0.092 C 
ATOM     13  C   UNL     1      -2.721  -5.609  30.308  0.00  0.00    +0.022 C 
ATOM     14  C   UNL     1      -1.827  -4.814  29.397  0.00  0.00    +0.004 C 
ATOM     15  C   UNL     1      -1.725  -3.353  29.761  0.00  0.00    +0.022 C 
ATOM     16  C   UNL     1      -2.534  -3.166  31.023  0.00  0.00    +0.092 C 
ENDROOT
TORSDOF 0
