MODEL 1
REMARK VINA RESULT:    -9.815      0.000      0.000
REMARK INTER + INTRA:         -16.054
REMARK INTER:                 -14.693
REMARK INTRA:                  -1.362
REMARK UNBOUND:                -1.362
REMARK  Name = =
REMARK  11 active torsions:
REMARK  status: ('A' for Active; 'I' for Inactive)
REMARK    1  A    between atoms: O_1  and  C_3
REMARK    2  A    between atoms: O_1  and  C_23
REMARK    3  A    between atoms: C_2  and  C_15
REMARK    4  A    between atoms: C_10  and  O_22
REMARK    5  A    between atoms: C_14  and  C_17
REMARK    6  A    between atoms: C_17  and  C_19
REMARK    7  A    between atoms: C_24  and  O_43
REMARK    8  A    between atoms: C_26  and  C_29
REMARK    9  A    between atoms: C_30  and  O_42
REMARK   10  A    between atoms: C_34  and  O_41
REMARK   11  A    between atoms: C_36  and  O_40
REMARK                            x       y       z     vdW  Elec       q    Type
REMARK                         _______ _______ _______ _____ _____    ______ ____
ROOT
ATOM      1  O   UNL     1       0.343  -5.651  31.475  0.00  0.00    -0.476 OA
ENDROOT
BRANCH   1   3
ATOM      2  C   UNL     1      -1.523  -5.969  30.073  0.00  0.00    +0.091 C 
ATOM      3  C   UNL     1      -0.977  -6.137  31.426  0.00  0.00    +0.173 C 
ATOM      4  C   UNL     1      -0.903  -7.562  31.944  0.00  0.00    +0.049 C 
ATOM      5  C   UNL     1      -1.625  -8.562  31.096  0.00  0.00    +0.030 C 
ATOM      6  C   UNL     1      -1.144  -8.362  29.694  0.00  0.00    -0.023 C 
ATOM      7  C   UNL     1      -1.090  -7.082  29.196  0.00  0.00    -0.020 C 
ATOM      8  C   UNL     1      -0.642  -6.881  27.890  0.00  0.00    -0.001 C 
ATOM      9  C   UNL     1      -0.249  -7.911  27.067  0.00  0.00    +0.036 C 
ATOM     10  C   UNL     1      -0.313  -9.196  27.594  0.00  0.00    +0.133 C 
ATOM     11  C   UNL     1      -0.755  -9.399  28.885  0.00  0.00    +0.032 C 
BRANCH   2  15
ATOM     12  C   UNL     1      -2.812  -3.564  29.902  0.00  0.00    +0.235 C 
ATOM     13  N   UNL     1      -3.200  -3.859  31.093  0.00  0.00    -0.179 NA
ATOM     14  C   UNL     1      -3.768  -5.189  31.005  0.00  0.00    +0.169 C 
ATOM     15  C   UNL     1      -2.984  -5.764  29.899  0.00  0.00    +0.148 C 
ATOM     16  O   UNL     1      -3.079  -4.610  29.021  0.00  0.00    -0.337 OA
BRANCH  14  17
ATOM     17  C   UNL     1      -3.943  -5.876  32.239  0.00  0.00    +0.244 C 
ATOM     18  O   UNL     1      -4.300  -7.077  32.265  0.00  0.00    -0.285 OA
BRANCH  17  19
ATOM     19  C   UNL     1      -3.713  -5.208  33.500  0.00  0.00    +0.279 C 
ATOM     20  O   UNL     1      -2.975  -5.682  34.409  0.00  0.00    -0.267 OA
ATOM     21  N   UNL     1      -4.346  -3.949  33.740  0.00  0.00    -0.323 N 
ATOM     22  H   UNL     1      -4.928  -3.551  33.052  0.00  0.00    +0.145 HD
ATOM     23  H   UNL     1      -4.201  -3.480  34.594  0.00  0.00    +0.145 HD
ENDBRANCH  17  19
ENDBRANCH  14  17
ENDBRANCH   2  15
BRANCH  10  24
ATOM     24  O   UNL     1       0.079 -10.276  26.788  0.00  0.00    -0.506 OA
ATOM     25  H   UNL     1      -0.569 -10.831  26.401  0.00  0.00    +0.292 HD
ENDBRANCH  10  24
ENDBRANCH   1   3
BRANCH   1  26
ATOM     26  C   UNL     1       1.061  -5.015  30.512  0.00  0.00    +0.172 C 
ATOM     27  C   UNL     1       2.051  -5.711  29.855  0.00  0.00    +0.168 C 
ATOM     28  C   UNL     1       2.800  -5.069  28.860  0.00  0.00    +0.043 C 
ATOM     29  C   UNL     1       2.620  -3.768  28.475  0.00  0.00    +0.041 C 
ATOM     30  C   UNL     1       1.605  -3.093  29.168  0.00  0.00    +0.006 C 
ATOM     31  C   UNL     1       0.872  -3.712  30.138  0.00  0.00    +0.040 C 
BRANCH  29  32
ATOM     32  C   UNL     1       3.354  -3.089  27.436  0.00  0.00    +0.182 A 
ATOM     33  C   UNL     1       4.710  -3.166  27.307  0.00  0.00    +0.208 A 
ATOM     34  C   UNL     1       5.284  -2.430  26.217  0.00  0.00    +0.238 A 
ATOM     35  O   UNL     1       6.529  -2.452  26.035  0.00  0.00    -0.283 OA
ATOM     36  C   UNL     1       4.480  -1.715  25.391  0.00  0.00    +0.110 A 
ATOM     37  C   UNL     1       4.976  -0.986  24.326  0.00  0.00    +0.143 C 
ATOM     38  C   UNL     1       4.155  -0.256  23.480  0.00  0.00    +0.073 C 
ATOM     39  C   UNL     1       2.804  -0.240  23.691  0.00  0.00    +0.140 C 
ATOM     40  C   UNL     1       2.302  -0.958  24.744  0.00  0.00    +0.074 C 
ATOM     41  C   UNL     1       3.118  -1.701  25.605  0.00  0.00    +0.155 A 
ATOM     42  O   UNL     1       2.658  -2.378  26.597  0.00  0.00    -0.450 OA
BRANCH  39  43
ATOM     43  O   UNL     1       1.965   0.488  22.854  0.00  0.00    -0.505 OA
ATOM     44  H   UNL     1       1.327   0.044  22.328  0.00  0.00    +0.292 HD
ENDBRANCH  39  43
BRANCH  37  45
ATOM     45  O   UNL     1       6.333  -0.997  24.106  0.00  0.00    -0.505 OA
ATOM     46  H   UNL     1       6.910  -1.337  24.761  0.00  0.00    +0.292 HD
ENDBRANCH  37  45
BRANCH  33  47
ATOM     47  O   UNL     1       5.564  -3.830  28.049  0.00  0.00    -0.501 OA
ATOM     48  H   UNL     1       6.293  -4.264  27.650  0.00  0.00    +0.292 HD
ENDBRANCH  33  47
ENDBRANCH  29  32
BRANCH  27  49
ATOM     49  O   UNL     1       2.330  -7.050  30.158  0.00  0.00    -0.503 OA
ATOM     50  H   UNL     1       1.635  -7.678  30.184  0.00  0.00    +0.292 HD
ENDBRANCH  27  49
ENDBRANCH   1  26
TORSDOF 11
ENDMDL
