REMARK  Name = =
REMARK  0 active torsions:
REMARK  status: ('A' for Active; 'I' for Inactive)
REMARK                            x       y       z     vdW  Elec       q    Type
REMARK                         _______ _______ _______ _____ _____    ______ ____
ROOT
ATOM      1  N   UNL     1      -2.701  -3.427  30.659  0.00  0.00    -0.295 NA
ATOM      2  C   UNL     1      -1.501  -2.953  30.044  0.00  0.00    +0.086 C 
ATOM      3  C   UNL     1      -1.886  -4.363  29.933  0.00  0.00    +0.086 C 
ATOM      4  H   UNL     1      -3.607  -3.147  30.283  0.00  0.00    +0.123 HD
ENDROOT
TORSDOF 0
