REMARK  Name = =
REMARK  1 active torsions:
REMARK  status: ('A' for Active; 'I' for Inactive)
REMARK    1  A    between atoms: N_1  and  N_6
REMARK                            x       y       z     vdW  Elec       q    Type
REMARK                         _______ _______ _______ _____ _____    ______ ____
ROOT
ATOM      1  N   UNL     1      -3.415  -3.099  31.496  0.00  0.00    -0.218 NA
ATOM      2  C   UNL     1      -3.702  -4.420  31.932  0.00  0.00    +0.089 C 
ATOM      3  C   UNL     1      -4.707  -4.107  33.022  0.00  0.00    +0.020 C 
ATOM      4  C   UNL     1      -5.301  -2.963  32.721  0.00  0.00    +0.020 C 
ATOM      5  C   UNL     1      -4.713  -2.493  31.439  0.00  0.00    +0.089 C 
ENDROOT
BRANCH   1   6
ATOM      6  N   UNL     1      -2.569  -2.918  30.498  0.00  0.00    -0.215 NA
ATOM      7  C   UNL     1      -2.635  -1.913  29.506  0.00  0.00    +0.108 C 
ATOM      8  C   UNL     1      -2.639  -3.395  29.177  0.00  0.00    +0.108 C 
ENDBRANCH   1   6
TORSDOF 1
