REMARK  Name = =
REMARK  5 active torsions:
REMARK  status: ('A' for Active; 'I' for Inactive)
REMARK    1  A    between atoms: S_1  and  N_4
REMARK    2  A    between atoms: S_1  and  N_11
REMARK    3  A    between atoms: N_4  and  C_5
REMARK    4  A    between atoms: N_11  and  N_14
REMARK    5  A    between atoms: N_11  and  S_15
REMARK                            x       y       z     vdW  Elec       q    Type
REMARK                         _______ _______ _______ _____ _____    ______ ____
ROOT
ATOM      1  S   UNL     1      -6.310  -0.674  32.077  0.00  0.00    +0.146 S 
ATOM      2  O   UNL     1      -5.055   0.188  32.144  0.00  0.00    -0.135 OA
ATOM      3  O   UNL     1      -6.796  -0.814  33.498  0.00  0.00    -0.135 OA
ENDROOT
BRANCH   1   4
ATOM      4  N   UNL     1      -7.440   0.178  31.116  0.00  0.00    -0.203 N 
ATOM      5  H   UNL     1      -8.167  -0.311  30.667  0.00  0.00    +0.175 HD
BRANCH   4   6
ATOM      6  C   UNL     1      -7.336   1.604  30.959  0.00  0.00    +0.066 C 
ATOM      7  C   UNL     1      -8.132   2.424  31.768  0.00  0.00    +0.016 C 
ATOM      8  C   UNL     1      -8.073   3.801  31.665  0.00  0.00    +0.001 C 
ATOM      9  C   UNL     1      -7.195   4.316  30.726  0.00  0.00    +0.000 C 
ATOM     10  C   UNL     1      -6.403   3.523  29.920  0.00  0.00    +0.001 C 
ATOM     11  C   UNL     1      -6.471   2.150  30.035  0.00  0.00    +0.016 C 
ENDBRANCH   4   6
ENDBRANCH   1   4
BRANCH   1  12
ATOM     12  N   UNL     1      -5.872  -2.199  31.496  0.00  0.00    +0.052 NA
BRANCH  12  15
ATOM     13  C   UNL     1      -5.833  -3.595  33.474  0.00  0.00    +0.316 C 
ATOM     14  O   UNL     1      -4.950  -2.868  34.006  0.00  0.00    -0.264 OA
ATOM     15  N   UNL     1      -6.348  -3.289  32.167  0.00  0.00    -0.201 N 
ATOM     16  H   UNL     1      -7.038  -3.861  31.759  0.00  0.00    +0.173 HD
ENDBRANCH  12  15
BRANCH  12  17
ATOM     17  S   UNL     1      -4.290  -2.328  30.880  0.00  0.00    +0.057 S 
ATOM     18  O   UNL     1      -3.323  -2.511  32.025  0.00  0.00    -0.158 OA
ATOM     19  O   UNL     1      -3.957  -1.070  30.132  0.00  0.00    -0.158 OA
ATOM     20  H   UNL     1      -4.200  -3.396  30.042  0.00  0.00    +0.233 HD
ENDBRANCH  12  17
ENDBRANCH   1  12
TORSDOF 5
