REMARK  Name = =
REMARK  6 active torsions:
REMARK  status: ('A' for Active; 'I' for Inactive)
REMARK    1  A    between atoms: N_1  and  N_4
REMARK    2  A    between atoms: N_1  and  S_5
REMARK    3  A    between atoms: N_1  and  S_15
REMARK    4  A    between atoms: S_5  and  N_8
REMARK    5  A    between atoms: N_8  and  C_9
REMARK    6  A    between atoms: S_15  and  C_18
REMARK                            x       y       z     vdW  Elec       q    Type
REMARK                         _______ _______ _______ _____ _____    ______ ____
ROOT
ATOM      1  N   UNL     1      -8.109  -3.236  20.796  0.00  0.00    +0.061 NA
ENDROOT
BRANCH   1   4
ATOM      2  C   UNL     1      -6.884  -3.936  18.765  0.00  0.00    +0.316 C 
ATOM      3  O   UNL     1      -7.854  -4.403  18.161  0.00  0.00    -0.264 OA
ATOM      4  N   UNL     1      -6.993  -3.365  20.037  0.00  0.00    -0.200 N 
ATOM      5  H   UNL     1      -6.160  -3.015  20.428  0.00  0.00    +0.173 HD
ENDBRANCH   1   4
BRANCH   1   6
ATOM      6  S   UNL     1      -9.370  -2.242  20.307  0.00  0.00    +0.147 S 
ATOM      7  O   UNL     1     -10.647  -3.063  20.062  0.00  0.00    -0.135 OA
ATOM      8  O   UNL     1      -9.093  -1.624  18.965  0.00  0.00    -0.135 OA
BRANCH   6   9
ATOM      9  N   UNL     1      -9.769  -1.025  21.419  0.00  0.00    -0.203 N 
ATOM     10  H   UNL     1     -10.716  -0.764  21.491  0.00  0.00    +0.175 HD
BRANCH   9  11
ATOM     11  C   UNL     1      -8.845  -0.362  22.246  0.00  0.00    +0.066 C 
ATOM     12  C   UNL     1      -7.502  -0.353  21.969  0.00  0.00    +0.016 C 
ATOM     13  C   UNL     1      -6.643   0.316  22.856  0.00  0.00    +0.001 C 
ATOM     14  C   UNL     1      -7.148   0.947  23.969  0.00  0.00    +0.000 C 
ATOM     15  C   UNL     1      -8.492   0.951  24.261  0.00  0.00    +0.001 C 
ATOM     16  C   UNL     1      -9.328   0.300  23.405  0.00  0.00    +0.016 C 
ENDBRANCH   9  11
ENDBRANCH   6   9
ENDBRANCH   1   6
BRANCH   1  17
ATOM     17  S   UNL     1      -8.597  -4.753  21.491  0.00  0.00    +0.116 S 
ATOM     18  O   UNL     1      -9.356  -5.591  20.526  0.00  0.00    -0.148 OA
ATOM     19  O   UNL     1      -7.351  -5.487  21.872  0.00  0.00    -0.148 OA
BRANCH  17  20
ATOM     20  C   UNL     1      -9.597  -4.446  22.911  0.00  0.00    +0.226 C 
ATOM     21  N   UNL     1      -9.431  -3.391  23.697  0.00  0.00    -0.223 NA
ATOM     22  C   UNL     1     -10.203  -3.240  24.806  0.00  0.00    +0.100 C 
ATOM     23  C   UNL     1     -11.170  -4.147  25.156  0.00  0.00    +0.099 C 
ATOM     24  N   UNL     1     -11.348  -5.223  24.363  0.00  0.00    -0.239 NA
ATOM     25  C   UNL     1     -10.575  -5.370  23.256  0.00  0.00    +0.138 C 
ATOM     26  C   UNL     1     -11.950  -3.979  26.286  0.00  0.00    +0.021 C 
ATOM     27  C   UNL     1     -11.795  -2.897  27.112  0.00  0.00    +0.002 C 
ATOM     28  C   UNL     1     -10.823  -1.979  26.763  0.00  0.00    +0.002 C 
ATOM     29  C   UNL     1     -10.039  -2.142  25.634  0.00  0.00    +0.021 C 
ENDBRANCH  17  20
ENDBRANCH   1  17
TORSDOF 6
