REMARK  Name = =
REMARK  2 active torsions:
REMARK  status: ('A' for Active; 'I' for Inactive)
REMARK    1  A    between atoms: N_1  and  N_14
REMARK    2  A    between atoms: C_3  and  N_6
REMARK                            x       y       z     vdW  Elec       q    Type
REMARK                         _______ _______ _______ _____ _____    ______ ____
ROOT
ATOM      1  N   UNL     1      -6.284   0.192  31.903  0.00  0.00    -0.217 NA
ATOM      2  C   UNL     1      -5.120  -0.536  31.510  0.00  0.00    +0.105 C 
ATOM      3  C   UNL     1      -5.431  -1.971  31.725  0.00  0.00    +0.076 C 
ATOM      4  C   UNL     1      -6.565  -2.056  32.371  0.00  0.00    +0.036 C 
ATOM      5  C   UNL     1      -7.126  -0.713  32.655  0.00  0.00    +0.090 C 
ENDROOT
BRANCH   3   6
ATOM      6  N   UNL     1      -4.614  -3.052  31.289  0.00  0.00    -0.270 NA
ATOM      7  C   UNL     1      -4.717  -4.302  32.006  0.00  0.00    +0.094 C 
ATOM      8  C   UNL     1      -3.547  -5.203  31.826  0.00  0.00    +0.111 C 
ATOM      9  N   UNL     1      -2.774  -4.954  30.653  0.00  0.00    -0.270 N 
ATOM     10  C   UNL     1      -3.376  -4.186  29.567  0.00  0.00    +0.111 C 
ATOM     11  C   UNL     1      -3.738  -2.833  30.163  0.00  0.00    +0.094 C 
ATOM     12  C   UNL     1      -1.448  -5.428  30.513  0.00  0.00    +0.303 C 
ATOM     13  O   UNL     1      -0.780  -5.207  29.486  0.00  0.00    -0.265 OA
ENDBRANCH   3   6
BRANCH   1  14
ATOM     14  N   UNL     1      -6.927   0.814  30.854  0.00  0.00    -0.215 NA
ATOM     15  C   UNL     1      -7.253   2.215  31.109  0.00  0.00    +0.108 C 
ATOM     16  C   UNL     1      -8.317   1.120  30.985  0.00  0.00    +0.108 C 
ENDBRANCH   1  14
TORSDOF 2
