REMARK  Name = =
REMARK  3 active torsions:
REMARK  status: ('A' for Active; 'I' for Inactive)
REMARK    1  A    between atoms: N_1  and  N_20
REMARK    2  A    between atoms: C_2  and  C_14
REMARK    3  A    between atoms: C_3  and  N_6
REMARK                            x       y       z     vdW  Elec       q    Type
REMARK                         _______ _______ _______ _____ _____    ______ ____
ROOT
ATOM      1  N   UNL     1      -7.390   0.533  31.081  0.00  0.00    -0.214 NA
ATOM      2  C   UNL     1      -7.327  -0.895  31.139  0.00  0.00    +0.106 C 
ATOM      3  C   UNL     1      -6.084  -1.240  31.887  0.00  0.00    +0.079 C 
ATOM      4  C   UNL     1      -5.681  -0.121  32.453  0.00  0.00    +0.037 C 
ATOM      5  C   UNL     1      -6.567   1.024  32.158  0.00  0.00    +0.091 C 
ENDROOT
BRANCH   3   6
ATOM      6  N   UNL     1      -5.471  -2.526  31.959  0.00  0.00    -0.269 NA
ATOM      7  C   UNL     1      -4.768  -3.007  30.784  0.00  0.00    +0.094 C 
ATOM      8  C   UNL     1      -4.701  -4.515  30.863  0.00  0.00    +0.111 C 
ATOM      9  N   UNL     1      -4.013  -4.831  32.079  0.00  0.00    -0.270 N 
ATOM     10  C   UNL     1      -4.550  -4.359  33.318  0.00  0.00    +0.111 C 
ATOM     11  C   UNL     1      -5.573  -3.278  33.170  0.00  0.00    +0.094 C 
ATOM     12  C   UNL     1      -2.833  -5.590  32.047  0.00  0.00    +0.303 C 
ATOM     13  O   UNL     1      -2.357  -6.008  30.958  0.00  0.00    -0.265 OA
ENDBRANCH   3   6
BRANCH   2  14
ATOM     14  C   UNL     1      -8.533  -1.516  31.743  0.00  0.00    -0.027 C 
ATOM     15  C   UNL     1      -9.469  -2.045  30.968  0.00  0.00    -0.028 C 
ATOM     16  C   UNL     1     -10.698  -2.682  31.527  0.00  0.00    +0.051 C 
ATOM     17  C   UNL     1     -10.382  -3.330  32.840  0.00  0.00    -0.026 C 
ATOM     18  C   UNL     1      -9.463  -2.793  33.622  0.00  0.00    -0.026 C 
ATOM     19  C   UNL     1      -8.754  -1.570  33.208  0.00  0.00    +0.049 C 
ENDBRANCH   2  14
BRANCH   1  20
ATOM     20  N   UNL     1      -8.681   1.032  31.091  0.00  0.00    -0.215 NA
ATOM     21  C   UNL     1      -9.059   1.676  29.825  0.00  0.00    +0.108 C 
ATOM     22  C   UNL     1      -8.850   2.446  31.054  0.00  0.00    +0.108 C 
ENDBRANCH   1  20
TORSDOF 3
