REMARK  Name = =
REMARK  8 active torsions:
REMARK  status: ('A' for Active; 'I' for Inactive)
REMARK    1  A    between atoms: N_1  and  N_4
REMARK    2  A    between atoms: N_1  and  S_7
REMARK    3  A    between atoms: N_1  and  S_17
REMARK    4  A    between atoms: N_4  and  N_5
REMARK    5  A    between atoms: N_5  and  O_6
REMARK    6  A    between atoms: S_7  and  N_10
REMARK    7  A    between atoms: N_10  and  C_11
REMARK    8  A    between atoms: S_17  and  C_20
REMARK                            x       y       z     vdW  Elec       q    Type
REMARK                         _______ _______ _______ _____ _____    ______ ____
ROOT
ATOM      1  N   UNL     1      -8.499  -4.693  20.661  0.00  0.00    +0.079 NA
ENDROOT
BRANCH   1   4
ATOM      2  C   UNL     1     -10.589  -3.719  19.821  0.00  0.00    +0.337 C 
ATOM      3  O   UNL     1     -10.730  -2.903  20.758  0.00  0.00    -0.262 OA
ATOM      4  N   UNL     1      -9.497  -4.644  19.758  0.00  0.00    -0.092 N 
BRANCH   4   5
ATOM      5  N   UNL     1      -9.497  -5.536  18.637  0.00  0.00    -0.101 NA
ATOM      6  H   UNL     1      -9.759  -6.473  18.943  0.00  0.00    +0.179 HD
BRANCH   5   7
ATOM      7  O   UNL     1     -10.385  -5.090  17.736  0.00  0.00    -0.296 OA
ATOM      8  H   UNL     1     -10.133  -4.199  17.447  0.00  0.00    +0.238 HD
ENDBRANCH   5   7
ENDBRANCH   4   5
ENDBRANCH   1   4
BRANCH   1   9
ATOM      9  S   UNL     1      -7.195  -3.681  20.588  0.00  0.00    +0.148 S 
ATOM     10  O   UNL     1      -6.034  -4.430  19.913  0.00  0.00    -0.135 OA
ATOM     11  O   UNL     1      -7.399  -2.468  19.700  0.00  0.00    -0.135 OA
BRANCH   9  12
ATOM     12  N   UNL     1      -6.648  -3.175  22.158  0.00  0.00    -0.203 N 
ATOM     13  H   UNL     1      -6.619  -3.811  22.909  0.00  0.00    +0.175 HD
BRANCH  12  14
ATOM     14  C   UNL     1      -6.239  -1.811  22.338  0.00  0.00    +0.066 C 
ATOM     15  C   UNL     1      -5.008  -1.311  22.051  0.00  0.00    +0.016 C 
ATOM     16  C   UNL     1      -4.684   0.025  22.251  0.00  0.00    +0.001 C 
ATOM     17  C   UNL     1      -5.639   0.881  22.760  0.00  0.00    +0.000 C 
ATOM     18  C   UNL     1      -6.887   0.376  23.053  0.00  0.00    +0.001 C 
ATOM     19  C   UNL     1      -7.213  -0.944  22.856  0.00  0.00    +0.016 C 
ENDBRANCH  12  14
ENDBRANCH   9  12
ENDBRANCH   1   9
BRANCH   1  20
ATOM     20  S   UNL     1      -8.541  -5.819  21.888  0.00  0.00    +0.117 S 
ATOM     21  O   UNL     1      -7.176  -6.149  22.454  0.00  0.00    -0.148 OA
ATOM     22  O   UNL     1      -9.211  -7.115  21.430  0.00  0.00    -0.148 OA
BRANCH  20  23
ATOM     23  C   UNL     1      -9.562  -5.182  23.181  0.00  0.00    +0.226 C 
ATOM     24  N   UNL     1      -9.326  -3.955  23.699  0.00  0.00    -0.223 NA
ATOM     25  C   UNL     1     -10.098  -3.476  24.685  0.00  0.00    +0.100 C 
ATOM     26  C   UNL     1     -11.162  -4.224  25.209  0.00  0.00    +0.099 C 
ATOM     27  N   UNL     1     -11.362  -5.432  24.671  0.00  0.00    -0.239 NA
ATOM     28  C   UNL     1     -10.607  -5.941  23.681  0.00  0.00    +0.138 C 
ATOM     29  C   UNL     1     -11.947  -3.710  26.216  0.00  0.00    +0.021 C 
ATOM     30  C   UNL     1     -11.703  -2.450  26.728  0.00  0.00    +0.002 C 
ATOM     31  C   UNL     1     -10.669  -1.713  26.220  0.00  0.00    +0.002 C 
ATOM     32  C   UNL     1      -9.893  -2.227  25.223  0.00  0.00    +0.021 C 
ENDBRANCH  20  23
ENDBRANCH   1  20
TORSDOF 8
