REMARK  Name = =
REMARK  4 active torsions:
REMARK  status: ('A' for Active; 'I' for Inactive)
REMARK    1  A    between atoms: N_1  and  N_27
REMARK    2  A    between atoms: C_2  and  C_14
REMARK    3  A    between atoms: C_3  and  N_6
REMARK    4  A    between atoms: C_16  and  C_20
REMARK                            x       y       z     vdW  Elec       q    Type
REMARK                         _______ _______ _______ _____ _____    ______ ____
ROOT
ATOM      1  N   UNL     1      -6.445   0.437  31.450  0.00  0.00    -0.214 NA
ATOM      2  C   UNL     1      -7.210  -0.749  31.235  0.00  0.00    +0.106 C 
ATOM      3  C   UNL     1      -8.369  -0.645  32.152  0.00  0.00    +0.079 C 
ATOM      4  C   UNL     1      -8.170   0.400  32.943  0.00  0.00    +0.037 C 
ATOM      5  C   UNL     1      -6.882   1.075  32.629  0.00  0.00    +0.091 C 
ENDROOT
BRANCH   3   6
ATOM      6  N   UNL     1      -9.522  -1.471  32.237  0.00  0.00    -0.269 NA
ATOM      7  C   UNL     1      -9.816  -2.187  33.442  0.00  0.00    +0.094 C 
ATOM      8  C   UNL     1     -11.283  -2.132  33.814  0.00  0.00    +0.111 C 
ATOM      9  N   UNL     1     -12.134  -2.245  32.656  0.00  0.00    -0.270 N 
ATOM     10  C   UNL     1     -11.523  -2.609  31.401  0.00  0.00    +0.111 C 
ATOM     11  C   UNL     1     -10.441  -1.620  31.110  0.00  0.00    +0.094 C 
ATOM     12  C   UNL     1     -13.522  -2.006  32.737  0.00  0.00    +0.303 C 
ATOM     13  O   UNL     1     -14.271  -2.101  31.740  0.00  0.00    -0.265 OA
ENDBRANCH   3   6
BRANCH   2  14
ATOM     14  C   UNL     1      -6.367  -1.941  31.502  0.00  0.00    -0.027 C 
ATOM     15  C   UNL     1      -5.274  -2.232  30.815  0.00  0.00    -0.026 C 
ATOM     16  C   UNL     1      -4.486  -3.449  31.151  0.00  0.00    +0.070 C 
ATOM     17  C   UNL     1      -4.426  -3.529  32.636  0.00  0.00    -0.024 C 
ATOM     18  C   UNL     1      -5.521  -3.248  33.317  0.00  0.00    -0.026 C 
ATOM     19  C   UNL     1      -6.771  -2.865  32.606  0.00  0.00    +0.049 C 
BRANCH  16  20
ATOM     20  C   UNL     1      -3.121  -3.442  30.531  0.00  0.00    +0.124 C 
ATOM     21  O   UNL     1      -2.512  -4.659  30.844  0.00  0.00    -0.348 OA
ATOM     22  C   UNL     1      -1.166  -4.636  30.528  0.00  0.00    +0.206 C 
ATOM     23  C   UNL     1      -1.027  -4.275  29.100  0.00  0.00    +0.180 C 
ATOM     24  O   UNL     1       0.068  -4.460  28.573  0.00  0.00    -0.293 OA
ATOM     25  C   UNL     1      -2.094  -3.712  28.259  0.00  0.00    +0.070 C 
ATOM     26  C   UNL     1      -3.286  -3.245  29.044  0.00  0.00    +0.038 C 
ENDBRANCH  16  20
ENDBRANCH   2  14
BRANCH   1  27
ATOM     27  N   UNL     1      -6.312   1.164  30.326  0.00  0.00    -0.215 NA
ATOM     28  C   UNL     1      -5.455   2.322  30.236  0.00  0.00    +0.108 C 
ATOM     29  C   UNL     1      -6.960   2.364  30.002  0.00  0.00    +0.108 C 
ENDBRANCH   1  27
TORSDOF 4
