REMARK  Name = =
REMARK  5 active torsions:
REMARK  status: ('A' for Active; 'I' for Inactive)
REMARK    1  A    between atoms: C_1  and  C_21
REMARK    2  A    between atoms: C_3  and  C_7
REMARK    3  A    between atoms: C_6  and  C_14
REMARK    4  A    between atoms: N_20  and  N_33
REMARK    5  A    between atoms: C_22  and  N_25
REMARK                            x       y       z     vdW  Elec       q    Type
REMARK                         _______ _______ _______ _____ _____    ______ ____
ROOT
ATOM      1  C   UNL     1     -13.738   1.321  29.502  0.00  0.00    -0.027 C 
ATOM      2  C   UNL     1     -13.481   0.539  30.576  0.00  0.00    -0.026 C 
ATOM      3  C   UNL     1     -14.610  -0.169  31.271  0.00  0.00    +0.070 C 
ATOM      4  C   UNL     1     -15.597  -0.636  30.257  0.00  0.00    -0.024 C 
ATOM      5  C   UNL     1     -15.863   0.100  29.210  0.00  0.00    -0.027 C 
ATOM      6  C   UNL     1     -15.139   1.421  29.080  0.00  0.00    +0.041 C 
ENDROOT
BRANCH   3   7
ATOM      7  C   UNL     1     -14.091  -1.405  31.972  0.00  0.00    +0.124 C 
ATOM      8  O   UNL     1     -12.719  -1.454  31.905  0.00  0.00    -0.348 OA
ATOM      9  C   UNL     1     -12.370  -2.823  31.834  0.00  0.00    +0.206 C 
ATOM     10  C   UNL     1     -13.217  -3.485  32.894  0.00  0.00    +0.180 C 
ATOM     11  O   UNL     1     -13.392  -4.675  32.772  0.00  0.00    -0.293 OA
ATOM     12  C   UNL     1     -13.791  -2.688  34.015  0.00  0.00    +0.070 C 
ATOM     13  C   UNL     1     -14.531  -1.515  33.391  0.00  0.00    +0.038 C 
ENDBRANCH   3   7
BRANCH   6  14
ATOM     14  C   UNL     1     -15.944   2.507  29.760  0.00  0.00    +0.008 C 
ATOM     15  C   UNL     1     -15.042   3.481  30.424  0.00  0.00    +0.001 C 
ATOM     16  C   UNL     1     -15.688   4.835  30.647  0.00  0.00    +0.000 C 
ATOM     17  C   UNL     1     -17.201   4.693  30.596  0.00  0.00    +0.000 C 
ATOM     18  C   UNL     1     -17.575   4.324  29.195  0.00  0.00    +0.000 C 
ATOM     19  C   UNL     1     -16.799   3.137  28.675  0.00  0.00    +0.001 C 
ENDBRANCH   6  14
BRANCH   1  21
ATOM     20  N   UNL     1     -11.447   1.169  28.833  0.00  0.00    -0.214 NA
ATOM     21  C   UNL     1     -12.635   2.024  28.802  0.00  0.00    +0.106 C 
ATOM     22  C   UNL     1     -12.896   2.247  27.355  0.00  0.00    +0.079 C 
ATOM     23  C   UNL     1     -12.254   1.295  26.671  0.00  0.00    +0.037 C 
ATOM     24  C   UNL     1     -11.527   0.382  27.612  0.00  0.00    +0.091 C 
BRANCH  22  25
ATOM     25  N   UNL     1     -13.653   3.246  26.707  0.00  0.00    -0.269 NA
ATOM     26  C   UNL     1     -13.678   4.595  27.191  0.00  0.00    +0.094 C 
ATOM     27  C   UNL     1     -14.628   5.473  26.410  0.00  0.00    +0.111 C 
ATOM     28  N   UNL     1     -14.553   5.242  24.989  0.00  0.00    -0.270 N 
ATOM     29  C   UNL     1     -14.106   3.974  24.476  0.00  0.00    +0.111 C 
ATOM     30  C   UNL     1     -14.415   2.914  25.524  0.00  0.00    +0.094 C 
ATOM     31  C   UNL     1     -14.928   6.288  24.114  0.00  0.00    +0.303 C 
ATOM     32  O   UNL     1     -15.321   7.404  24.537  0.00  0.00    -0.265 OA
ENDBRANCH  22  25
BRANCH  20  33
ATOM     33  N   UNL     1     -10.281   1.931  28.905  0.00  0.00    -0.215 NA
ATOM     34  C   UNL     1      -9.074   1.209  29.162  0.00  0.00    +0.108 C 
ATOM     35  C   UNL     1      -9.668   1.957  30.273  0.00  0.00    +0.108 C 
ENDBRANCH  20  33
ENDBRANCH   1  21
TORSDOF 5
