REMARK  Name = =
REMARK  8 active torsions:
REMARK  status: ('A' for Active; 'I' for Inactive)
REMARK    1  A    between atoms: N_1  and  N_43
REMARK    2  A    between atoms: C_2  and  C_24
REMARK    3  A    between atoms: C_3  and  N_6
REMARK    4  A    between atoms: C_11  and  N_14
REMARK    5  A    between atoms: N_14  and  C_15
REMARK    6  A    between atoms: C_18  and  C_21
REMARK    7  A    between atoms: C_26  and  C_30
REMARK    8  A    between atoms: C_29  and  C_37
REMARK                            x       y       z     vdW  Elec       q    Type
REMARK                         _______ _______ _______ _____ _____    ______ ____
ROOT
ATOM      1  N   UNL     1     -12.446   2.664  28.655  0.00  0.00    -0.214 NA
ATOM      2  C   UNL     1     -12.312   1.943  27.347  0.00  0.00    +0.106 C 
ATOM      3  C   UNL     1     -13.637   2.098  26.849  0.00  0.00    +0.080 C 
ATOM      4  C   UNL     1     -13.980   3.371  27.249  0.00  0.00    +0.037 C 
ATOM      5  C   UNL     1     -12.826   3.957  27.990  0.00  0.00    +0.091 C 
ENDROOT
BRANCH   3   6
ATOM      6  N   UNL     1     -14.588   1.390  26.068  0.00  0.00    -0.255 NA
ATOM      7  C   UNL     1     -15.563   0.448  26.472  0.00  0.00    +0.095 C 
ATOM      8  C   UNL     1     -15.112  -0.907  25.971  0.00  0.00    +0.111 C 
ATOM      9  N   UNL     1     -14.837  -0.790  24.551  0.00  0.00    -0.268 N 
ATOM     10  C   UNL     1     -15.178   0.456  23.854  0.00  0.00    +0.130 C 
ATOM     11  C   UNL     1     -14.585   1.652  24.603  0.00  0.00    +0.151 C 
ATOM     12  C   UNL     1     -14.249  -1.836  23.808  0.00  0.00    +0.303 C 
ATOM     13  O   UNL     1     -13.950  -2.904  24.377  0.00  0.00    -0.265 OA
BRANCH  11  14
ATOM     14  N   UNL     1     -13.239   1.899  24.168  0.00  0.00    -0.320 N 
ATOM     15  H   UNL     1     -12.549   1.219  24.340  0.00  0.00    +0.148 HD
BRANCH  14  16
ATOM     16  C   UNL     1     -12.875   3.093  23.498  0.00  0.00    +0.046 C 
ATOM     17  C   UNL     1     -13.439   4.296  23.836  0.00  0.00    +0.014 C 
ATOM     18  C   UNL     1     -13.117   5.476  23.197  0.00  0.00    +0.006 C 
ATOM     19  C   UNL     1     -12.197   5.445  22.183  0.00  0.00    +0.053 C 
ATOM     20  C   UNL     1     -11.609   4.255  21.815  0.00  0.00    +0.006 C 
ATOM     21  C   UNL     1     -11.952   3.073  22.478  0.00  0.00    +0.014 C 
BRANCH  19  22
ATOM     22  C   UNL     1     -11.853   6.684  21.504  0.00  0.00    +0.243 C 
ATOM     23  O   UNL     1     -11.542   6.638  20.281  0.00  0.00    -0.270 OA
ATOM     24  N   UNL     1     -11.866   7.930  22.207  0.00  0.00    -0.325 N 
ATOM     25  H   UNL     1     -12.110   7.955  23.160  0.00  0.00    +0.145 HD
ATOM     26  H   UNL     1     -11.631   8.763  21.737  0.00  0.00    +0.145 HD
ENDBRANCH  19  22
ENDBRANCH  14  16
ENDBRANCH  11  14
ENDBRANCH   3   6
BRANCH   2  27
ATOM     27  C   UNL     1     -11.533   0.756  27.470  0.00  0.00    -0.027 C 
ATOM     28  C   UNL     1     -10.882   0.565  28.655  0.00  0.00    -0.026 C 
ATOM     29  C   UNL     1     -10.051  -0.607  28.926  0.00  0.00    +0.070 C 
ATOM     30  C   UNL     1     -10.514  -1.803  28.178  0.00  0.00    -0.024 C 
ATOM     31  C   UNL     1     -11.116  -1.663  27.046  0.00  0.00    -0.027 C 
ATOM     32  C   UNL     1     -11.352  -0.287  26.477  0.00  0.00    +0.041 C 
BRANCH  29  33
ATOM     33  C   UNL     1     -10.251  -1.003  30.399  0.00  0.00    +0.124 C 
ATOM     34  O   UNL     1     -11.642  -0.980  30.601  0.00  0.00    -0.348 OA
ATOM     35  C   UNL     1     -12.112  -2.000  31.384  0.00  0.00    +0.206 C 
ATOM     36  C   UNL     1     -11.235  -2.201  32.596  0.00  0.00    +0.180 C 
ATOM     37  O   UNL     1     -11.682  -2.154  33.725  0.00  0.00    -0.293 OA
ATOM     38  C   UNL     1      -9.801  -2.455  32.289  0.00  0.00    +0.070 C 
ATOM     39  C   UNL     1      -9.659  -2.314  30.763  0.00  0.00    +0.038 C 
ENDBRANCH  29  33
BRANCH  32  40
ATOM     40  C   UNL     1     -10.302  -0.136  25.429  0.00  0.00    +0.008 C 
ATOM     41  C   UNL     1      -9.094  -0.987  25.571  0.00  0.00    +0.001 C 
ATOM     42  C   UNL     1      -8.092  -0.613  24.505  0.00  0.00    +0.000 C 
ATOM     43  C   UNL     1      -8.720  -0.856  23.145  0.00  0.00    +0.000 C 
ATOM     44  C   UNL     1      -9.957   0.040  23.026  0.00  0.00    +0.000 C 
ATOM     45  C   UNL     1     -10.944  -0.438  24.066  0.00  0.00    +0.001 C 
ENDBRANCH  32  40
ENDBRANCH   2  27
BRANCH   1  46
ATOM     46  N   UNL     1     -13.503   2.447  29.381  0.00  0.00    -0.215 NA
ATOM     47  C   UNL     1     -14.098   2.894  30.546  0.00  0.00    +0.108 C 
ATOM     48  C   UNL     1     -14.090   1.420  30.097  0.00  0.00    +0.108 C 
ENDBRANCH   1  46
TORSDOF 8
