MODEL 1
REMARK VINA RESULT:   -10.838      0.000      0.000
REMARK INTER + INTRA:         -15.182
REMARK INTER:                 -14.006
REMARK INTRA:                  -1.176
REMARK UNBOUND:                -1.176
REMARK  Name = =
REMARK  5 active torsions:
REMARK  status: ('A' for Active; 'I' for Inactive)
REMARK    1  A    between atoms: C_1  and  C_18
REMARK    2  A    between atoms: C_7  and  C_26
REMARK    3  A    between atoms: C_15  and  S_20
REMARK    4  A    between atoms: S_20  and  C_21
REMARK    5  A    between atoms: C_34  and  C_35
REMARK                            x       y       z     vdW  Elec       q    Type
REMARK                         _______ _______ _______ _____ _____    ______ ____
ROOT
ATOM      1  C   UNL     1      -5.098  -3.755  32.302  0.00  0.00    +0.107 C 
ATOM      2  N   UNL     1      -5.016  -4.800  33.095  0.00  0.00    -0.244 NA
ATOM      3  C   UNL     1      -4.106  -5.815  32.927  0.00  0.00    +0.098 C 
ATOM      4  C   UNL     1      -3.224  -5.734  31.856  0.00  0.00    +0.095 C 
ATOM      5  N   UNL     1      -3.326  -4.679  31.070  0.00  0.00    -0.241 NA
ATOM      6  C   UNL     1      -4.201  -3.689  31.224  0.00  0.00    +0.116 C 
ATOM      7  C   UNL     1      -2.230  -6.707  31.647  0.00  0.00    -0.003 C 
ATOM      8  C   UNL     1      -2.202  -7.716  32.564  0.00  0.00    -0.003 C 
ATOM      9  C   UNL     1      -3.080  -7.814  33.648  0.00  0.00    +0.001 C 
ATOM     10  C   UNL     1      -4.034  -6.853  33.820  0.00  0.00    +0.021 C 
ENDROOT
BRANCH   1  18
ATOM     11  N   UNL     1     -10.202  -1.419  33.414  0.00  0.00    -0.313 N 
ATOM     12  C   UNL     1      -9.325  -2.151  32.616  0.00  0.00    +0.302 C 
ATOM     13  O   UNL     1      -9.700  -3.351  32.303  0.00  0.00    -0.253 OA
ATOM     14  N   UNL     1      -8.103  -1.664  32.165  0.00  0.00    -0.251 N 
ATOM     15  C   UNL     1      -7.532  -0.378  32.307  0.00  0.00    +0.161 C 
ATOM     16  C   UNL     1      -6.051  -0.390  31.958  0.00  0.00    +0.174 C 
ATOM     17  O   UNL     1      -5.374  -1.440  32.429  0.00  0.00    -0.346 OA
ATOM     18  C   UNL     1      -6.015  -2.654  32.502  0.00  0.00    +0.176 C 
ATOM     19  C   UNL     1      -7.180  -2.670  31.510  0.00  0.00    +0.131 C 
ATOM     20  H   UNL     1      -9.971  -0.501  33.685  0.00  0.00    +0.146 HD
ATOM     21  H   UNL     1     -11.052  -1.819  33.708  0.00  0.00    +0.146 HD
BRANCH  15  22
ATOM     22  S   UNL     1      -8.326   0.978  31.405  0.00  0.00    -0.052 S 
BRANCH  22  23
ATOM     23  C   UNL     1      -8.804   0.517  29.784  0.00  0.00    +0.209 A 
ATOM     24  N   UNL     1      -9.486  -0.561  29.374  0.00  0.00    -0.234 N 
ATOM     25  N   UNL     1      -9.658  -0.575  28.064  0.00  0.00    -0.046 NA
ATOM     26  N   UNL     1      -9.057   0.539  27.633  0.00  0.00    -0.022 NA
ATOM     27  N   UNL     1      -8.542   1.207  28.651  0.00  0.00    -0.102 NA
ATOM     28  H   UNL     1      -9.821  -1.263  29.978  0.00  0.00    +0.193 HD
ENDBRANCH  22  23
ENDBRANCH  15  22
ENDBRANCH   1  18
BRANCH   7  29
ATOM     29  C   UNL     1      -1.357  -6.595  30.486  0.00  0.00    +0.033 C 
ATOM     30  C   UNL     1       0.082  -6.124  30.811  0.00  0.00    +0.030 C 
ATOM     31  C   UNL     1       0.788  -6.620  29.598  0.00  0.00    -0.029 C 
ATOM     32  C   UNL     1       0.175  -7.771  29.178  0.00  0.00    -0.026 C 
ATOM     33  C   UNL     1      -1.031  -8.048  30.022  0.00  0.00    +0.031 C 
ATOM     34  C   UNL     1       0.647  -8.412  28.035  0.00  0.00    -0.005 C 
ATOM     35  C   UNL     1       1.696  -7.903  27.353  0.00  0.00    -0.001 C 
ATOM     36  C   UNL     1       2.312  -6.719  27.799  0.00  0.00    -0.004 C 
ATOM     37  C   UNL     1       1.873  -6.066  28.913  0.00  0.00    -0.015 C 
BRANCH  37  38
ATOM     38  C   UNL     1       2.468  -4.820  29.477  0.00  0.00    +0.086 C 
ATOM     39  S   UNL     1       3.927  -4.419  28.398  0.00  0.00    -0.118 S 
ATOM     40  C   UNL     1       3.281  -2.834  27.755  0.00  0.00    +0.128 C 
ATOM     41  N   UNL     1       2.335  -2.516  28.774  0.00  0.00    -0.287 NA
ATOM     42  C   UNL     1       1.577  -3.664  29.101  0.00  0.00    +0.085 C 
ATOM     43  H   UNL     1       1.711  -1.782  28.438  0.00  0.00    +0.124 HD
ENDBRANCH  37  38
ENDBRANCH   7  29
TORSDOF 5
ENDMDL
