REMARK  Name = =
REMARK  2 active torsions:
REMARK  status: ('A' for Active; 'I' for Inactive)
REMARK    1  A    between atoms: C_17  and  C_26
REMARK    2  A    between atoms: C_27  and  C_28
REMARK                            x       y       z     vdW  Elec       q    Type
REMARK                         _______ _______ _______ _____ _____    ______ ____
ROOT
ATOM      1  C   UNL     1     -12.345 -44.006  31.531  0.00  0.00    +0.055 C 
ATOM      2  C   UNL     1     -10.972 -44.113  31.623  0.00  0.00    +0.026 C 
ATOM      3  C   UNL     1     -10.246 -45.023  30.880  0.00  0.00    +0.039 C 
ATOM      4  C   UNL     1     -10.886 -45.863  30.011  0.00  0.00    +0.003 C 
ATOM      5  C   UNL     1     -12.269 -45.770  29.904  0.00  0.00    +0.001 C 
ATOM      6  C   UNL     1     -12.975 -44.861  30.650  0.00  0.00    +0.015 C 
ATOM      7  C   UNL     1      -8.792 -45.123  30.990  0.00  0.00    +0.195 C 
ATOM      8  O   UNL     1      -8.127 -45.952  30.312  0.00  0.00    -0.287 OA
ATOM      9  C   UNL     1      -8.098 -44.233  31.913  0.00  0.00    +0.038 C 
ATOM     10  C   UNL     1      -8.812 -43.315  32.666  0.00  0.00    +0.012 C 
ATOM     11  C   UNL     1      -8.178 -42.465  33.545  0.00  0.00    -0.002 C 
ATOM     12  C   UNL     1      -6.791 -42.538  33.671  0.00  0.00    -0.000 C 
ATOM     13  C   UNL     1      -6.081 -43.451  32.921  0.00  0.00    +0.000 C 
ATOM     14  C   UNL     1      -6.723 -44.299  32.043  0.00  0.00    +0.003 C 
ATOM     15  C   UNL     1     -10.263 -43.236  32.538  0.00  0.00    +0.165 C 
ATOM     16  O   UNL     1     -10.886 -42.405  33.222  0.00  0.00    -0.314 OA
ATOM     17  C   UNL     1     -16.300 -41.920  31.052  0.00  0.00    +0.083 C 
ATOM     18  N   UNL     1     -15.126 -42.607  31.092  0.00  0.00    -0.229 NA
ATOM     19  C   UNL     1     -14.239 -42.478  32.090  0.00  0.00    +0.153 C 
ATOM     20  N   UNL     1     -13.044 -43.051  32.322  0.00  0.00    -0.231 N 
ATOM     21  C   UNL     1     -12.607 -42.537  33.487  0.00  0.00    +0.302 C 
ATOM     22  N   UNL     1     -13.510 -41.662  33.972  0.00  0.00    -0.190 NA
ATOM     23  C   UNL     1     -14.559 -41.597  33.116  0.00  0.00    +0.101 C 
ATOM     24  C   UNL     1     -15.741 -40.889  33.100  0.00  0.00    +0.021 C 
ATOM     25  C   UNL     1     -16.633 -41.042  32.060  0.00  0.00    +0.021 C 
ENDROOT
BRANCH  17  26
ATOM     26  C   UNL     1     -17.190 -42.134  29.923  0.00  0.00    +0.023 C 
ATOM     27  C   UNL     1     -17.008 -41.648  28.711  0.00  0.00    +0.047 C 
BRANCH  27  28
ATOM     28  C   UNL     1     -17.967 -41.927  27.650  0.00  0.00    +0.234 C 
ATOM     29  O   UNL     1     -17.613 -42.070  26.461  0.00  0.00    -0.283 OA
ENDBRANCH  27  28
ENDBRANCH  17  26
TORSDOF 2
