REMARK  Name = =
REMARK  4 active torsions:
REMARK  status: ('A' for Active; 'I' for Inactive)
REMARK    1  A    between atoms: C_1  and  C_26
REMARK    2  A    between atoms: N_4  and  C_10
REMARK    3  A    between atoms: C_26  and  C_28
REMARK    4  A    between atoms: C_27  and  C_43
REMARK                            x       y       z     vdW  Elec       q    Type
REMARK                         _______ _______ _______ _____ _____    ______ ____
ROOT
ATOM      1  C   UNL     1     -25.022 -37.705  32.208  0.00  0.00    +0.079 C 
ATOM      2  N   UNL     1     -25.463 -38.733  31.460  0.00  0.00    -0.229 NA
ATOM      3  C   UNL     1     -25.817 -38.589  30.179  0.00  0.00    +0.158 C 
ATOM      4  N   UNL     1     -26.275 -39.465  29.281  0.00  0.00    -0.233 N 
ATOM      5  C   UNL     1     -26.493 -38.805  28.101  0.00  0.00    +0.173 C 
ATOM      6  N   UNL     1     -26.169 -37.508  28.262  0.00  0.00    -0.224 NA
ATOM      7  C   UNL     1     -25.752 -37.373  29.543  0.00  0.00    +0.115 C 
ATOM      8  C   UNL     1     -25.310 -36.307  30.264  0.00  0.00    +0.024 C 
ATOM      9  C   UNL     1     -24.943 -36.495  31.612  0.00  0.00    +0.020 C 
ENDROOT
BRANCH   4  10
ATOM     10  C   UNL     1     -26.530 -40.852  29.425  0.00  0.00    +0.062 C 
ATOM     11  C   UNL     1     -25.642 -41.841  29.038  0.00  0.00    +0.056 C 
ATOM     12  C   UNL     1     -25.921 -43.177  29.185  0.00  0.00    +0.043 C 
ATOM     13  C   UNL     1     -27.114 -43.580  29.734  0.00  0.00    +0.003 C 
ATOM     14  C   UNL     1     -28.024 -42.622  30.132  0.00  0.00    +0.001 C 
ATOM     15  C   UNL     1     -27.720 -41.277  29.973  0.00  0.00    +0.015 C 
ATOM     16  C   UNL     1     -24.966 -44.191  28.765  0.00  0.00    +0.196 C 
ATOM     17  O   UNL     1     -25.196 -45.431  28.890  0.00  0.00    -0.287 OA
ATOM     18  C   UNL     1     -23.676 -43.841  28.172  0.00  0.00    +0.042 C 
ATOM     19  C   UNL     1     -23.396 -42.501  28.025  0.00  0.00    +0.042 C 
ATOM     20  C   UNL     1     -22.190 -42.146  27.468  0.00  0.00    +0.003 C 
ATOM     21  C   UNL     1     -21.297 -43.137  27.072  0.00  0.00    +0.000 C 
ATOM     22  C   UNL     1     -21.591 -44.480  27.228  0.00  0.00    +0.000 C 
ATOM     23  C   UNL     1     -22.794 -44.823  27.782  0.00  0.00    +0.003 C 
ATOM     24  C   UNL     1     -24.361 -41.488  28.449  0.00  0.00    +0.197 C 
ATOM     25  O   UNL     1     -24.096 -40.251  28.310  0.00  0.00    -0.287 OA
ENDBRANCH   4  10
BRANCH   1  26
ATOM     26  C   UNL     1     -24.550 -37.948  33.634  0.00  0.00    +0.002 C 
ATOM     27  C   UNL     1     -23.289 -37.683  33.741  0.00  0.00    +0.007 C 
BRANCH  26  28
ATOM     28  C   UNL     1     -25.564 -38.247  34.544  0.00  0.00    +0.067 C 
ATOM     29  C   UNL     1     -26.433 -37.308  35.245  0.00  0.00    -0.018 C 
ATOM     30  C   UNL     1     -27.760 -37.631  35.568  0.00  0.00    -0.025 C 
ATOM     31  C   UNL     1     -28.502 -36.751  36.281  0.00  0.00    -0.005 C 
ATOM     32  C   UNL     1     -27.976 -35.524  36.710  0.00  0.00    -0.000 C 
ATOM     33  C   UNL     1     -26.668 -35.243  36.380  0.00  0.00    -0.000 C 
ATOM     34  C   UNL     1     -25.892 -36.132  35.648  0.00  0.00    -0.004 C 
ATOM     35  C   UNL     1     -28.475 -38.903  35.346  0.00  0.00    +0.031 C 
ATOM     36  C   UNL     1     -27.781 -40.101  35.860  0.00  0.00    +0.031 C 
ATOM     37  C   UNL     1     -26.345 -40.020  36.181  0.00  0.00    -0.025 C 
ATOM     38  C   UNL     1     -25.319 -39.275  35.634  0.00  0.00    -0.018 C 
ATOM     39  C   UNL     1     -24.050 -39.379  36.077  0.00  0.00    -0.004 C 
ATOM     40  C   UNL     1     -23.708 -40.252  37.117  0.00  0.00    -0.000 C 
ATOM     41  C   UNL     1     -24.713 -41.003  37.677  0.00  0.00    -0.000 C 
ATOM     42  C   UNL     1     -25.994 -40.891  37.222  0.00  0.00    -0.005 C 
ENDBRANCH  26  28
BRANCH  27  43
ATOM     43  C   UNL     1     -22.427 -37.573  34.867  0.00  0.00    +0.208 C 
ATOM     44  O   UNL     1     -21.927 -36.392  35.083  0.00  0.00    -0.215 OA
ENDBRANCH  27  43
ENDBRANCH   1  26
TORSDOF 4
