REMARK  Name = =
REMARK  2 active torsions:
REMARK  status: ('A' for Active; 'I' for Inactive)
REMARK    1  A    between atoms: C_7  and  C_18
REMARK    2  A    between atoms: C_18  and  O_20
REMARK                            x       y       z     vdW  Elec       q    Type
REMARK                         _______ _______ _______ _____ _____    ______ ____
ROOT
ATOM      1  C   UNL     1      59.313 163.298  27.857  0.00  0.00    +0.000 C 
ATOM      2  C   UNL     1      59.276 162.587  26.543  0.00  0.00    +0.005 C 
ATOM      3  C   UNL     1      60.288 163.220  25.630  0.00  0.00    +0.004 C 
ATOM      4  C   UNL     1      60.119 162.687  24.234  0.00  0.00    +0.022 C 
ATOM      5  C   UNL     1      61.152 163.177  23.284  0.00  0.00    +0.009 C 
ATOM      6  C   UNL     1      62.097 162.127  22.805  0.00  0.00    +0.033 C 
ATOM      7  C   UNL     1      61.368 160.949  22.293  0.00  0.00    +0.053 C 
ATOM      8  C   UNL     1      60.336 160.501  23.012  0.00  0.00    -0.002 C 
ATOM      9  C   UNL     1      59.999 161.202  24.245  0.00  0.00    -0.027 C 
ATOM     10  C   UNL     1      59.615 160.523  25.304  0.00  0.00    -0.030 C 
ATOM     11  C   UNL     1      59.253 161.123  26.609  0.00  0.00    +0.026 C 
ATOM     12  C   UNL     1      60.135 164.703  25.710  0.00  0.00    +0.000 C 
ATOM     13  C   UNL     1      58.793 165.134  26.252  0.00  0.00    +0.000 C 
ATOM     14  C   UNL     1      58.530 164.598  27.634  0.00  0.00    +0.000 C 
ATOM     15  C   UNL     1      57.107 164.050  27.643  0.00  0.00    +0.000 C 
ATOM     16  C   UNL     1      57.086 162.995  28.717  0.00  0.00    +0.000 C 
ATOM     17  C   UNL     1      58.530 162.624  28.938  0.00  0.00    +0.000 C 
ENDROOT
BRANCH   7  18
ATOM     18  C   UNL     1      61.728 160.281  21.065  0.00  0.00    +0.334 C 
ATOM     19  O   UNL     1      60.987 159.430  20.541  0.00  0.00    -0.245 OA
BRANCH  18  20
ATOM     20  O   UNL     1      62.927 160.590  20.449  0.00  0.00    -0.477 OA
ATOM     21  H   UNL     1      63.498 161.228  20.829  0.00  0.00    +0.295 HD
ENDBRANCH  18  20
ENDBRANCH   7  18
TORSDOF 2
