REMARK  Name = =
REMARK  1 active torsions:
REMARK  status: ('A' for Active; 'I' for Inactive)
REMARK    1  A    between atoms: N_1  and  N_31
REMARK                            x       y       z     vdW  Elec       q    Type
REMARK                         _______ _______ _______ _____ _____    ______ ____
ROOT
ATOM      1  N   UNL     1       0.447  -6.434  29.311  0.00  0.00    -0.210 N 
ATOM      2  C   UNL     1       1.739  -6.626  28.638  0.00  0.00    +0.196 C 
ATOM      3  C   UNL     1       1.645  -7.928  27.907  0.00  0.00    +0.244 C 
ATOM      4  O   UNL     1       0.541  -8.506  27.705  0.00  0.00    -0.273 OA
ATOM      5  N   UNL     1       2.813  -8.579  27.403  0.00  0.00    -0.303 N 
ATOM      6  C   UNL     1       4.137  -8.229  27.878  0.00  0.00    +0.090 C 
ATOM      7  C   UNL     1       5.144  -9.188  27.331  0.00  0.00    +0.031 C 
ATOM      8  C   UNL     1       6.186  -8.487  26.490  0.00  0.00    +0.087 C 
ATOM      9  C   UNL     1       5.849  -8.476  25.049  0.00  0.00    +0.223 C 
ATOM     10  O   UNL     1       5.412  -9.568  24.557  0.00  0.00    -0.275 OA
ATOM     11  N   UNL     1       5.983  -7.345  24.199  0.00  0.00    -0.297 N 
ATOM     12  C   UNL     1       5.535  -6.009  24.522  0.00  0.00    +0.176 C 
ATOM     13  C   UNL     1       6.687  -5.082  24.670  0.00  0.00    +0.243 C 
ATOM     14  O   UNL     1       7.864  -5.566  24.790  0.00  0.00    -0.273 OA
ATOM     15  N   UNL     1       6.526  -3.686  24.685  0.00  0.00    -0.295 N 
ATOM     16  C   UNL     1       5.652  -2.939  23.805  0.00  0.00    +0.176 C 
ATOM     17  C   UNL     1       5.416  -1.584  24.326  0.00  0.00    +0.243 C 
ATOM     18  O   UNL     1       6.462  -0.882  24.549  0.00  0.00    -0.273 OA
ATOM     19  N   UNL     1       4.150  -1.011  24.594  0.00  0.00    -0.295 N 
ATOM     20  C   UNL     1       3.048  -1.712  25.219  0.00  0.00    +0.176 C 
ATOM     21  C   UNL     1       1.849  -0.861  25.210  0.00  0.00    +0.243 C 
ATOM     22  O   UNL     1       1.804   0.188  24.483  0.00  0.00    -0.273 OA
ATOM     23  N   UNL     1       0.685  -1.117  25.977  0.00  0.00    -0.295 N 
ATOM     24  C   UNL     1       0.576  -2.265  26.865  0.00  0.00    +0.176 C 
ATOM     25  C   UNL     1      -0.163  -1.855  28.079  0.00  0.00    +0.243 C 
ATOM     26  O   UNL     1      -0.586  -0.684  28.228  0.00  0.00    -0.273 OA
ATOM     27  N   UNL     1      -0.406  -2.819  29.120  0.00  0.00    -0.295 N 
ATOM     28  C   UNL     1       0.494  -3.886  29.407  0.00  0.00    +0.177 C 
ATOM     29  C   UNL     1      -0.202  -5.188  29.234  0.00  0.00    +0.259 C 
ATOM     30  O   UNL     1      -1.460  -5.229  29.002  0.00  0.00    -0.272 OA
ATOM     31  H   UNL     1       2.716  -9.280  26.719  0.00  0.00    +0.149 HD
ATOM     32  H   UNL     1       6.413  -7.482  23.324  0.00  0.00    +0.150 HD
ATOM     33  H   UNL     1       7.048  -3.176  25.346  0.00  0.00    +0.150 HD
ATOM     34  H   UNL     1       4.009  -0.071  24.338  0.00  0.00    +0.150 HD
ATOM     35  H   UNL     1      -0.076  -0.497  25.907  0.00  0.00    +0.150 HD
ATOM     36  H   UNL     1      -1.228  -2.738  29.656  0.00  0.00    +0.150 HD
ENDROOT
BRANCH   1  37
ATOM     37  N   UNL     1      -0.036  -7.518  29.987  0.00  0.00    -0.201 NA
ATOM     38  C   UNL     1       0.074  -7.375  31.393  0.00  0.00    +0.097 C 
ATOM     39  C   UNL     1      -0.496  -8.471  32.224  0.00  0.00    +0.045 C 
ATOM     40  C   UNL     1      -1.965  -8.194  32.346  0.00  0.00    -0.025 C 
ATOM     41  C   UNL     1      -2.811  -7.859  31.311  0.00  0.00    -0.025 C 
ATOM     42  C   UNL     1      -4.157  -7.628  31.593  0.00  0.00    -0.005 C 
ATOM     43  C   UNL     1      -4.576  -7.748  32.893  0.00  0.00    -0.000 C 
ATOM     44  C   UNL     1      -3.738  -8.084  33.943  0.00  0.00    -0.000 C 
ATOM     45  C   UNL     1      -2.401  -8.310  33.647  0.00  0.00    -0.005 C 
ATOM     46  C   UNL     1      -2.505  -7.686  29.860  0.00  0.00    +0.045 C 
ATOM     47  C   UNL     1      -1.137  -8.239  29.536  0.00  0.00    +0.097 C 
ENDBRANCH   1  37
TORSDOF 1
