REMARK  Name = =
REMARK  0 active torsions:
REMARK  status: ('A' for Active; 'I' for Inactive)
REMARK                            x       y       z     vdW  Elec       q    Type
REMARK                         _______ _______ _______ _____ _____    ______ ____
ROOT
ATOM      1  C   UNL     1      51.981 155.992  28.450  0.00  0.00    +0.000 C 
ATOM      2  C   UNL     1      51.337 155.926  29.827  0.00  0.00    +0.000 C 
ATOM      3  C   UNL     1      50.733 157.338  29.841  0.00  0.00    +0.000 C 
ATOM      4  C   UNL     1      51.968 158.164  29.532  0.00  0.00    +0.000 C 
ATOM      5  C   UNL     1      52.751 157.284  28.548  0.00  0.00    +0.000 C 
ENDROOT
TORSDOF 0
