REMARK  Name = =
REMARK  2 active torsions:
REMARK  status: ('A' for Active; 'I' for Inactive)
REMARK    1  A    between atoms: C_1  and  C_13
REMARK    2  A    between atoms: C_6  and  C_14
REMARK                            x       y       z     vdW  Elec       q    Type
REMARK                         _______ _______ _______ _____ _____    ______ ____
ROOT
ATOM      1  C   UNL     1      52.243 153.533  27.388  0.00  0.00    -0.026 C 
ATOM      2  C   UNL     1      51.357 153.312  28.315  0.00  0.00    -0.005 C 
ATOM      3  C   UNL     1      51.036 154.260  29.383  0.00  0.00    -0.000 C 
ATOM      4  C   UNL     1      51.707 155.386  29.344  0.00  0.00    -0.000 C 
ATOM      5  C   UNL     1      52.714 155.764  28.350  0.00  0.00    -0.005 C 
ATOM      6  C   UNL     1      53.046 154.732  27.358  0.00  0.00    -0.026 C 
ENDROOT
BRANCH   1  13
ATOM      7  C   UNL     1      52.065 151.060  26.916  0.00  0.00    +0.004 C 
ATOM      8  C   UNL     1      52.190 150.093  25.740  0.00  0.00    +0.000 C 
ATOM      9  C   UNL     1      53.590 149.613  25.538  0.00  0.00    +0.000 C 
ATOM     10  C   UNL     1      54.310 150.388  24.449  0.00  0.00    +0.000 C 
ATOM     11  C   UNL     1      53.925 151.874  24.545  0.00  0.00    +0.000 C 
ATOM     12  C   UNL     1      53.895 152.309  25.996  0.00  0.00    +0.004 C 
ATOM     13  C   UNL     1      52.412 152.425  26.377  0.00  0.00    +0.022 C 
ENDBRANCH   1  13
BRANCH   6  14
ATOM     14  C   UNL     1      53.425 155.251  26.017  0.00  0.00    +0.022 C 
ATOM     15  C   UNL     1      52.454 155.430  24.951  0.00  0.00    +0.004 C 
ATOM     16  C   UNL     1      53.297 156.232  23.934  0.00  0.00    +0.000 C 
ATOM     17  C   UNL     1      54.367 156.929  24.705  0.00  0.00    +0.000 C 
ATOM     18  C   UNL     1      54.019 156.624  26.155  0.00  0.00    +0.004 C 
ENDBRANCH   6  14
TORSDOF 2
