@<TRIPOS>MOLECULE
out_folder/7d9o/7d9o_lig.pdb
 57 60 0 0 0
SMALL
GASTEIGER

@<TRIPOS>ATOM
      1  N1       -11.9060  -45.6450   30.1120 N.3   601  H0L601     -0.2980
      2  C4       -16.6990  -42.0440   26.2820 C.ar  601  H0L601     -0.0325
      3  C5       -16.2880  -42.1370   24.9580 C.ar  601  H0L601      0.0246
      4  C6       -17.1050  -41.7570   23.9000 C.ar  601  H0L601     -0.0056
      5  C7       -18.3490  -41.2580   24.1940 C.ar  601  H0L601      0.1622
      6  C8       -18.8110  -40.8510   21.9030 C.3   601  H0L601      0.0790
      7  C10      -14.6940  -43.3520   26.2790 C.3   601  H0L601      0.0290
      8  C13      -12.2100  -45.5440   27.6540 C.3   601  H0L601     -0.0060
      9  C15      -11.0510  -46.0450   31.2450 C.3   601  H0L601      0.0240
     10  C17       -9.9380  -44.0780   32.3390 C.ar  601  H0L601     -0.0546
     11  C20       -7.4650  -44.7920   31.3410 C.ar  601  H0L601     -0.0262
     12  C21       -8.5840  -45.5640   31.0680 C.ar  601  H0L601     -0.0546
     13  C22      -12.3640  -44.2570   30.2460 C.3   601  H0L601      0.0021
     14  C24      -15.6130  -42.5310   27.2120 C.3   601  H0L601     -0.0169
     15  C1       -20.5140  -40.5290   27.0300 C.3   601  H0L601      0.0790
     16  C11      -13.2020  -43.4150   26.5670 C.3   601  H0L601     -0.0086
     17  C12      -12.5270  -44.0660   27.7720 C.3   601  H0L601      0.1146
     18  C14      -11.2850  -45.9220   28.8070 C.3   601  H0L601      0.0021
     19  C16       -9.8330  -45.1980   31.5350 C.ar  601  H0L601     -0.0332
     20  C18       -8.8360  -43.2880   32.6200 C.ar  601  H0L601     -0.0262
     21  C19       -7.6280  -43.6740   32.1130 C.ar  601  H0L601      0.1234
     22  C2       -18.7800  -41.1470   25.5390 C.ar  601  H0L601      0.1618
     23  C23      -13.2420  -43.8300   29.0890 C.3   601  H0L601     -0.0060
     24  C3       -17.9530  -41.5310   26.5810 C.ar  601  H0L601     -0.0124
     25  C9       -14.9460  -42.7270   24.9170 C.2   601  H0L601      0.1670
     26  F1       -11.2670  -43.4050   27.7980 F     601  H0L601     -0.2418
     27  F2        -6.5390  -42.9080   32.3930 F     601  H0L601     -0.2055
     28  O1       -20.0350  -40.6250   25.6960 O.3   601  H0L601     -0.4914
     29  O2       -19.2420  -40.8230   23.2610 O.3   601  H0L601     -0.4914
     30  O3       -14.1700  -42.7530   23.9740 O.2   601  H0L601     -0.2917
     31 H         -16.7858  -41.8474   22.9228 H     601  H0L601      0.0662
     32 H         -19.5954  -40.4879   21.2723 H     601  H0L601      0.0660
     33 H         -18.5674  -41.8556   21.6268 H     601  H0L601      0.0660
     34 H         -17.9466  -40.2305   21.7903 H     601  H0L601      0.0660
     35 H         -14.9469  -44.3849   26.3974 H     601  H0L601      0.0385
     36 H         -11.7243  -45.7377   26.7205 H     601  H0L601      0.0308
     37 H         -13.1099  -46.1214   27.6952 H     601  H0L601      0.0308
     38 H         -10.7102  -47.0409   31.0530 H     601  H0L601      0.0476
     39 H         -11.6729  -45.9317   32.1083 H     601  H0L601      0.0476
     40 H         -10.8559  -43.8258   32.7376 H     601  H0L601      0.0622
     41 H          -6.5368  -45.0528   30.9729 H     601  H0L601      0.0646
     42 H          -8.4831  -46.4248   30.5078 H     601  H0L601      0.0622
     43 H         -12.9219  -44.1645   31.1543 H     601  H0L601      0.0428
     44 H         -11.5003  -43.6255   30.2533 H     601  H0L601      0.0428
     45 H         -15.0832  -41.7095   27.6472 H     601  H0L601      0.0320
     46 H         -15.9895  -43.0987   28.0372 H     601  H0L601      0.0320
     47 H         -21.4983  -40.1093   27.0262 H     601  H0L601      0.0660
     48 H         -19.8608  -39.9012   27.5992 H     601  H0L601      0.0660
     49 H         -20.5438  -41.5042   27.4693 H     601  H0L601      0.0660
     50 H         -12.8819  -42.3943   26.5894 H     601  H0L601      0.0303
     51 H         -12.9090  -44.1104   25.8084 H     601  H0L601      0.0303
     52 H         -10.3801  -45.3568   28.7260 H     601  H0L601      0.0428
     53 H         -11.0863  -46.9717   28.7467 H     601  H0L601      0.0428
     54 H          -8.9246  -42.4350   33.1941 H     601  H0L601      0.0646
     55 H         -14.1487  -44.3979   29.1053 H     601  H0L601      0.0308
     56 H         -13.4616  -42.7871   29.1844 H     601  H0L601      0.0308
     57 H         -18.2632  -41.4375   27.5608 H     601  H0L601      0.0658
@<TRIPOS>BOND
     1     6    29    1
     2    29     5    1
     3     4     5   ar
     4     4     3   ar
     5    30    25    2
     6     5    22   ar
     7    25     3    1
     8    25     7    1
     9     3     2   ar
    10    22    28    1
    11    22    24   ar
    12    28    15    1
    13     7    16    1
    14     7    14    1
    15     2    24   ar
    16     2    14    1
    17    16    17    1
    18     8    17    1
    19     8    18    1
    20    17    26    1
    21    17    23    1
    22    18     1    1
    23    23    13    1
    24     1    13    1
    25     1     9    1
    26    12    11   ar
    27    12    19   ar
    28     9    19    1
    29    11    21   ar
    30    19    10   ar
    31    21    27    1
    32    21    20   ar
    33    10    20   ar
    34     4    31    1
    35     6    32    1
    36     6    33    1
    37     6    34    1
    38     7    35    1
    39     8    36    1
    40     8    37    1
    41     9    38    1
    42     9    39    1
    43    10    40    1
    44    11    41    1
    45    12    42    1
    46    13    43    1
    47    13    44    1
    48    14    45    1
    49    14    46    1
    50    15    47    1
    51    15    48    1
    52    15    49    1
    53    16    50    1
    54    16    51    1
    55    18    52    1
    56    18    53    1
    57    20    54    1
    58    23    55    1
    59    23    56    1
    60    24    57    1
