REMARK  Name = =
REMARK  5 active torsions:
REMARK  status: ('A' for Active; 'I' for Inactive)
REMARK    1  A    between atoms: C_1  and  C_7
REMARK    2  A    between atoms: C_3  and  O_12
REMARK    3  A    between atoms: C_4  and  O_11
REMARK    4  A    between atoms: C_5  and  O_10
REMARK    5  A    between atoms: C_7  and  O_9
REMARK                            x       y       z     vdW  Elec       q    Type
REMARK                         _______ _______ _______ _____ _____    ______ ____
ROOT
ATOM      1  C   UNL     1      59.585 164.723  35.758  0.00  0.00    +0.082 C 
ATOM      2  C   UNL     1      58.989 163.504  35.535  0.00  0.00    +0.046 C 
ATOM      3  C   UNL     1      59.171 162.441  36.417  0.00  0.00    +0.171 C 
ATOM      4  C   UNL     1      59.955 162.586  37.539  0.00  0.00    +0.202 C 
ATOM      5  C   UNL     1      60.558 163.806  37.774  0.00  0.00    +0.171 C 
ATOM      6  C   UNL     1      60.367 164.866  36.879  0.00  0.00    +0.046 C 
ENDROOT
BRANCH   1   7
ATOM      7  C   UNL     1      59.402 165.848  34.839  0.00  0.00    +0.338 C 
ATOM      8  O   UNL     1      59.026 165.697  33.658  0.00  0.00    -0.245 OA
BRANCH   7   9
ATOM      9  O   UNL     1      59.651 167.136  35.279  0.00  0.00    -0.477 OA
ATOM     10  H   UNL     1      59.935 167.284  36.160  0.00  0.00    +0.295 HD
ENDBRANCH   7   9
ENDBRANCH   1   7
BRANCH   5  11
ATOM     11  O   UNL     1      61.338 163.931  38.901  0.00  0.00    -0.503 OA
ATOM     12  H   UNL     1      61.445 163.202  39.480  0.00  0.00    +0.292 HD
ENDBRANCH   5  11
BRANCH   4  13
ATOM     13  O   UNL     1      60.133 161.525  38.417  0.00  0.00    -0.501 OA
ATOM     14  H   UNL     1      59.719 160.702  38.247  0.00  0.00    +0.292 HD
ENDBRANCH   4  13
BRANCH   3  15
ATOM     15  O   UNL     1      58.536 161.230  36.130  0.00  0.00    -0.503 OA
ATOM     16  H   UNL     1      58.006 161.150  35.362  0.00  0.00    +0.292 HD
ENDBRANCH   3  15
TORSDOF 5
