REMARK  Name = =
REMARK  8 active torsions:
REMARK  status: ('A' for Active; 'I' for Inactive)
REMARK    1  A    between atoms: N_1  and  N_13
REMARK    2  A    between atoms: N_4  and  O_21
REMARK    3  A    between atoms: N_13  and  C_15
REMARK    4  A    between atoms: O_21  and  C_22
REMARK    5  A    between atoms: C_22  and  C_24
REMARK    6  A    between atoms: C_26  and  O_32
REMARK    7  A    between atoms: C_27  and  O_31
REMARK    8  A    between atoms: C_28  and  O_30
REMARK                            x       y       z     vdW  Elec       q    Type
REMARK                         _______ _______ _______ _____ _____    ______ ____
ROOT
ATOM      1  N   UNL     1      55.434 160.944  30.732  0.00  0.00    -0.170 N 
ATOM      2  C   UNL     1      56.061 161.447  31.795  0.00  0.00    +0.383 A 
ATOM      3  O   UNL     1      57.172 161.002  32.112  0.00  0.00    -0.241 OA
ATOM      4  N   UNL     1      55.511 162.427  32.534  0.00  0.00    -0.116 N 
ATOM      5  C   UNL     1      54.297 162.929  32.208  0.00  0.00    +0.108 A 
ATOM      6  C   UNL     1      53.600 162.439  31.104  0.00  0.00    +0.077 A 
ATOM      7  C   UNL     1      52.361 162.930  30.748  0.00  0.00    +0.006 C 
ATOM      8  C   UNL     1      51.765 163.934  31.482  0.00  0.00    +0.000 C 
ATOM      9  C   UNL     1      52.473 164.405  32.571  0.00  0.00    +0.002 C 
ATOM     10  C   UNL     1      53.709 163.927  32.940  0.00  0.00    +0.021 C 
ATOM     11  C   UNL     1      54.223 161.432  30.391  0.00  0.00    +0.282 A 
ATOM     12  O   UNL     1      53.629 160.964  29.391  0.00  0.00    -0.265 OA
ENDROOT
BRANCH   1  13
ATOM     13  N   UNL     1      55.964 159.915  29.927  0.00  0.00    -0.229 N 
ATOM     14  H   UNL     1      56.937 159.765  29.927  0.00  0.00    +0.175 HD
BRANCH  13  16
ATOM     15  C   UNL     1      55.452 158.940  27.791  0.00  0.00    +0.056 C 
ATOM     16  C   UNL     1      55.149 159.095  29.123  0.00  0.00    +0.151 C 
ATOM     17  N   UNL     1      54.073 158.453  29.597  0.00  0.00    -0.198 NA
ATOM     18  C   UNL     1      53.295 157.671  28.812  0.00  0.00    +0.215 C 
ATOM     19  N   UNL     1      53.612 157.532  27.505  0.00  0.00    -0.212 NA
ATOM     20  C   UNL     1      54.672 158.143  26.956  0.00  0.00    +0.105 C 
ATOM     21  N   UNL     1      52.162 157.007  29.346  0.00  0.00    -0.327 N 
ATOM     22  H   UNL     1      51.934 157.111  30.298  0.00  0.00    +0.145 HD
ATOM     23  H   UNL     1      51.603 156.442  28.765  0.00  0.00    +0.145 HD
ENDBRANCH  13  16
ENDBRANCH   1  13
BRANCH   4  24
ATOM     24  O   UNL     1      56.139 162.949  33.630  0.00  0.00    -0.325 OA
BRANCH  24  25
ATOM     25  C   UNL     1      57.281 163.698  33.641  0.00  0.00    +0.366 C 
ATOM     26  O   UNL     1      57.409 164.603  32.791  0.00  0.00    -0.243 OA
BRANCH  25  27
ATOM     27  C   UNL     1      58.306 163.409  34.647  0.00  0.00    +0.084 C 
ATOM     28  C   UNL     1      58.273 162.231  35.365  0.00  0.00    +0.046 C 
ATOM     29  C   UNL     1      59.218 161.912  36.318  0.00  0.00    +0.171 C 
ATOM     30  C   UNL     1      60.238 162.812  36.564  0.00  0.00    +0.202 C 
ATOM     31  C   UNL     1      60.307 163.999  35.871  0.00  0.00    +0.171 C 
ATOM     32  C   UNL     1      59.331 164.281  34.914  0.00  0.00    +0.046 C 
BRANCH  31  33
ATOM     33  O   UNL     1      61.348 164.859  36.158  0.00  0.00    -0.503 OA
ATOM     34  H   UNL     1      61.981 164.628  36.809  0.00  0.00    +0.292 HD
ENDBRANCH  31  33
BRANCH  30  35
ATOM     35  O   UNL     1      61.178 162.495  37.512  0.00  0.00    -0.501 OA
ATOM     36  H   UNL     1      61.120 161.683  37.977  0.00  0.00    +0.292 HD
ENDBRANCH  30  35
BRANCH  29  37
ATOM     37  O   UNL     1      59.157 160.725  37.018  0.00  0.00    -0.503 OA
ATOM     38  H   UNL     1      58.465 160.117  36.849  0.00  0.00    +0.292 HD
ENDBRANCH  29  37
ENDBRANCH  25  27
ENDBRANCH  24  25
ENDBRANCH   4  24
TORSDOF 8
