MODEL 1
REMARK VINA RESULT:   -10.155      0.000      0.000
REMARK INTER + INTRA:         -13.004
REMARK INTER:                 -12.827
REMARK INTRA:                  -0.178
REMARK UNBOUND:                -0.178
REMARK  Name = 
REMARK  7 active torsions:
REMARK  status: ('A' for Active; 'I' for Inactive)
REMARK    1  A    between atoms: N_1  and  C_17
REMARK    2  A    between atoms: C_2  and  S_12
REMARK    3  A    between atoms: S_12  and  C_13
REMARK    4  A    between atoms: C_13  and  C_14
REMARK    5  A    between atoms: C_14  and  O_16
REMARK    6  A    between atoms: C_18  and  C_24
REMARK    7  A    between atoms: C_21  and  C_23
REMARK                            x       y       z     vdW  Elec       q    Type
REMARK                         _______ _______ _______ _____ _____    ______ ____
ROOT
ATOM      1  N   UNL     1     -11.392 -43.512  29.494  0.00  0.00    +0.000 N 
ATOM      2  C   UNL     1     -11.927 -43.684  30.709  0.00  0.00    +0.000 A 
ATOM      3  N   UNL     1     -11.139 -43.591  31.792  0.00  0.00    +0.000 NA
ATOM      4  C   UNL     1      -9.815 -43.329  31.700  0.00  0.00    +0.000 A 
ATOM      5  C   UNL     1      -9.260 -43.151  30.452  0.00  0.00    +0.000 A 
ATOM      6  C   UNL     1     -10.061 -43.245  29.335  0.00  0.00    +0.000 A 
ATOM      7  O   UNL     1      -9.591 -43.089  28.171  0.00  0.00    +0.000 OA
ATOM      8  C   UNL     1      -7.910 -42.883  30.351  0.00  0.00    +0.000 A 
ATOM      9  C   UNL     1      -7.124 -42.794  31.495  0.00  0.00    +0.000 A 
ATOM     10  C   UNL     1      -7.711 -42.977  32.726  0.00  0.00    +0.000 A 
ATOM     11  C   UNL     1      -9.057 -43.244  32.828  0.00  0.00    +0.000 A 
ENDROOT
BRANCH   1  12
ATOM     12  C   UNL     1     -12.257 -43.618  28.375  0.00  0.00    +0.000 A 
ATOM     13  C   UNL     1     -12.321 -44.843  27.735  0.00  0.00    +0.000 A 
ATOM     14  C   UNL     1     -13.144 -45.006  26.641  0.00  0.00    +0.000 A 
ATOM     15  C   UNL     1     -13.919 -43.985  26.148  0.00  0.00    +0.000 A 
ATOM     16  C   UNL     1     -13.858 -42.764  26.784  0.00  0.00    +0.000 A 
ATOM     17  C   UNL     1     -13.029 -42.609  27.882  0.00  0.00    +0.000 A 
ATOM     18  C   UNL     1     -14.688 -41.641  26.271  0.00  0.00    +0.000 C 
ATOM     19  C   UNL     1     -11.517 -46.009  28.195  0.00  0.00    +0.000 C 
ENDBRANCH   1  12
BRANCH   2  20
ATOM     20  S   UNL     1     -13.667 -44.030  30.845  0.00  0.00    +0.000 S 
BRANCH  20  21
ATOM     21  C   UNL     1     -14.144 -43.669  32.562  0.00  0.00    +0.000 C 
BRANCH  21  22
ATOM     22  C   UNL     1     -14.262 -42.226  32.813  0.00  0.00    +0.000 C 
ATOM     23  O   UNL     1     -15.303 -41.758  33.302  0.00  0.00    +0.000 OA
BRANCH  22  24
ATOM     24  O   UNL     1     -13.213 -41.396  32.506  0.00  0.00    +0.000 OA
ATOM     25  H   UNL     1     -13.069 -40.475  32.935  0.00  0.00    +0.000 HD
ENDBRANCH  22  24
ENDBRANCH  21  22
ENDBRANCH  20  21
ENDBRANCH   2  20
TORSDOF 5
ENDMDL
