MODEL 1
REMARK VINA RESULT:    -9.778      0.000      0.000
REMARK INTER + INTRA:         -12.467
REMARK INTER:                 -12.065
REMARK INTRA:                  -0.402
REMARK UNBOUND:                -0.402
REMARK  Name = 
REMARK  6 active torsions:
REMARK  status: ('A' for Active; 'I' for Inactive)
REMARK    1  A    between atoms: C_2  and  C_14
REMARK    2  A    between atoms: C_9  and  C_11
REMARK    3  A    between atoms: C_18  and  N_19
REMARK    4  A    between atoms: N_19  and  C_20
REMARK    5  A    between atoms: C_23  and  O_26
REMARK    6  A    between atoms: O_26  and  C_27
REMARK                            x       y       z     vdW  Elec       q    Type
REMARK                         _______ _______ _______ _____ _____    ______ ____
ROOT
ATOM      1  C   UNL     1     -13.413 -43.799  27.112  0.00  0.00    +0.000 C 
ATOM      2  N   UNL     1     -12.830 -42.587  26.577  0.00  0.00    +0.000 NA
ATOM      3  C   UNL     1     -13.447 -42.354  25.295  0.00  0.00    +0.000 C 
ATOM      4  C   UNL     1     -14.569 -43.401  25.187  0.00  0.00    +0.000 C 
ATOM      5  C   UNL     1     -14.891 -43.541  26.667  0.00  0.00    +0.000 C 
ATOM      6  H   UNL     1     -11.801 -42.590  26.563  0.00  0.00    +0.000 HD
ENDROOT
BRANCH   1   8
ATOM      7  N   UNL     1     -12.215 -43.956  29.328  0.00  0.00    +0.000 N 
ATOM      8  C   UNL     1     -13.309 -43.886  28.576  0.00  0.00    +0.000 A 
ATOM      9  N   UNL     1     -14.353 -43.916  29.452  0.00  0.00    +0.000 NA
ATOM     10  N   UNL     1     -13.912 -44.000  30.664  0.00  0.00    +0.000 NA
ATOM     11  C   UNL     1     -12.583 -44.028  30.631  0.00  0.00    +0.000 A 
ATOM     12  C   UNL     1     -11.686 -44.116  31.838  0.00  0.00    +0.000 C 
ATOM     13  C   UNL     1     -10.919 -42.789  31.849  0.00  0.00    +0.000 C 
ATOM     14  N   UNL     1      -9.890 -42.849  30.834  0.00  0.00    +0.000 N 
ATOM     15  C   UNL     1      -8.540 -43.009  31.289  0.00  0.00    +0.000 C 
ATOM     16  O   UNL     1      -7.629 -43.064  30.407  0.00  0.00    +0.000 OA
ATOM     17  C   UNL     1      -8.173 -43.110  32.703  0.00  0.00    +0.000 C 
ATOM     18  C   UNL     1     -10.082 -42.760  29.412  0.00  0.00    +0.000 C 
ATOM     19  C   UNL     1     -10.841 -43.950  28.835  0.00  0.00    +0.000 C 
ENDBRANCH   1   8
BRANCH   5  20
ATOM     20  N   UNL     1     -15.294 -42.328  27.190  0.00  0.00    +0.000 NA
ATOM     21  H   UNL     1     -14.597 -41.710  27.628  0.00  0.00    +0.000 HD
BRANCH  20  22
ATOM     22  C   UNL     1     -16.563 -41.792  27.098  0.00  0.00    +0.000 C 
ATOM     23  C   UNL     1     -17.288 -42.358  25.897  0.00  0.00    +0.000 C 
ATOM     24  C   UNL     1     -18.546 -41.548  25.620  0.00  0.00    +0.000 C 
ATOM     25  C   UNL     1     -19.474 -41.766  26.782  0.00  0.00    +0.000 C 
ATOM     26  C   UNL     1     -18.831 -42.502  27.927  0.00  0.00    +0.000 C 
ATOM     27  C   UNL     1     -17.459 -41.959  28.289  0.00  0.00    +0.000 C 
BRANCH  25  28
ATOM     28  O   UNL     1     -19.942 -40.553  27.244  0.00  0.00    +0.000 OA
ATOM     29  C   UNL     1     -21.269 -40.349  26.809  0.00  0.00    +0.000 C 
ENDBRANCH  25  28
ENDBRANCH  20  22
ENDBRANCH   5  20
TORSDOF 4
ENDMDL
