MODEL 1
REMARK VINA RESULT:    -8.548      0.000      0.000
REMARK INTER + INTRA:         -11.949
REMARK INTER:                 -11.296
REMARK INTRA:                  -0.652
REMARK UNBOUND:                -0.652
REMARK  Name = 
REMARK  6 active torsions:
REMARK  status: ('A' for Active; 'I' for Inactive)
REMARK    1  A    between atoms: C_1  and  C_24
REMARK    2  A    between atoms: C_2  and  N_23
REMARK    3  A    between atoms: C_6  and  C_7
REMARK    4  A    between atoms: C_10  and  O_13
REMARK    5  A    between atoms: O_13  and  C_14
REMARK    6  A    between atoms: C_14  and  C_15
REMARK                            x       y       z     vdW  Elec       q    Type
REMARK                         _______ _______ _______ _____ _____    ______ ____
ROOT
ATOM      1  C   UNL     1      -8.727 -44.834  31.708  0.00  0.00    +0.000 C 
ATOM      2  C   UNL     1      -7.586 -44.419  32.219  0.00  0.00    +0.000 C 
ATOM      3  O   UNL     1      -7.552 -43.287  33.051  0.00  0.00    +0.000 OA
ATOM      4  C   UNL     1      -8.716 -42.624  33.328  0.00  0.00    +0.000 C 
ATOM      5  C   UNL     1      -9.887 -42.995  32.838  0.00  0.00    +0.000 C 
ATOM      6  C   UNL     1      -9.988 -44.161  31.949  0.00  0.00    +0.000 C 
ATOM      7  C   UNL     1     -11.068 -42.214  33.227  0.00  0.00    +0.000 C 
ATOM      8  O   UNL     1     -11.916 -41.941  32.368  0.00  0.00    +0.000 OA
ATOM      9  C   UNL     1     -11.224 -41.766  34.663  0.00  0.00    +0.000 C 
ATOM     10  C   UNL     1      -9.837 -41.664  35.267  0.00  0.00    +0.000 C 
ATOM     11  C   UNL     1      -8.763 -41.412  34.220  0.00  0.00    +0.000 C 
ENDROOT
BRANCH   6  12
ATOM     12  C   UNL     1     -10.575 -43.646  30.666  0.00  0.00    +0.000 A 
ATOM     13  C   UNL     1      -9.924 -42.768  29.849  0.00  0.00    +0.000 A 
ATOM     14  C   UNL     1     -10.521 -42.291  28.662  0.00  0.00    +0.000 A 
ATOM     15  C   UNL     1     -11.764 -42.673  28.268  0.00  0.00    +0.000 A 
ATOM     16  C   UNL     1     -12.418 -43.572  29.119  0.00  0.00    +0.000 A 
ATOM     17  C   UNL     1     -11.858 -44.050  30.276  0.00  0.00    +0.000 A 
ATOM     18 CL   UNL     1      -9.625 -41.148  27.644  0.00  0.00    +0.000 Cl
BRANCH  15  19
ATOM     19  O   UNL     1     -12.379 -42.223  27.100  0.00  0.00    +0.000 OA
BRANCH  19  20
ATOM     20  C   UNL     1     -13.719 -42.538  26.917  0.00  0.00    +0.000 C 
BRANCH  20  21
ATOM     21  C   UNL     1     -14.074 -43.176  25.667  0.00  0.00    +0.000 C 
ATOM     22  C   UNL     1     -14.373 -43.688  24.654  0.00  0.00    +0.000 C 
ENDBRANCH  20  21
ENDBRANCH  19  20
ENDBRANCH  15  19
ENDBRANCH   6  12
BRANCH   2  23
ATOM     23  N   UNL     1      -6.421 -45.149  31.911  0.00  0.00    +0.000 N 
ATOM     24  H   UNL     1      -5.541 -44.660  31.677  0.00  0.00    +0.000 HD
ATOM     25  H   UNL     1      -6.478 -46.211  31.934  0.00  0.00    +0.000 HD
ENDBRANCH   2  23
BRANCH   1  26
ATOM     26  C   UNL     1      -8.726 -46.045  30.846  0.00  0.00    +0.000 C 
ATOM     27  N   UNL     1      -8.714 -46.971  30.166  0.00  0.00    +0.000 NA
ENDBRANCH   1  26
TORSDOF 6
ENDMDL
