MODEL 1
REMARK VINA RESULT:   -11.365      0.000      0.000
REMARK INTER + INTRA:         -19.634
REMARK INTER:                 -17.677
REMARK INTRA:                  -1.956
REMARK UNBOUND:                -1.956
REMARK  Name = 
REMARK  13 active torsions:
REMARK  status: ('A' for Active; 'I' for Inactive)
REMARK    1  A    between atoms: C_3  and  C_14
REMARK    2  A    between atoms: C_8  and  C_9
REMARK    3  A    between atoms: C_9  and  O_11
REMARK    4  A    between atoms: C_16  and  C_18
REMARK    5  A    between atoms: C_18  and  N_19
REMARK    6  A    between atoms: N_19  and  C_20
REMARK    7  A    between atoms: N_19  and  C_29
REMARK    8  A    between atoms: C_20  and  C_21
REMARK    9  A    between atoms: C_24  and  O_27
REMARK   10  A    between atoms: O_27  and  C_28
REMARK   11  A    between atoms: C_29  and  C_30
REMARK   12  A    between atoms: C_32  and  O_33
REMARK   13  A    between atoms: O_33  and  C_34
REMARK                            x       y       z     vdW  Elec       q    Type
REMARK                         _______ _______ _______ _____ _____    ______ ____
ROOT
ATOM      1  C   UNL     1     -13.970 -44.278  29.410  0.00  0.00    +0.000 C 
ENDROOT
BRANCH   1  14
ATOM      2  C   UNL     1     -12.126 -42.843  32.121  0.00  0.00    +0.000 A 
ATOM      3  C   UNL     1     -13.392 -42.517  32.555  0.00  0.00    +0.000 A 
ATOM      4  C   UNL     1     -13.536 -41.828  33.748  0.00  0.00    +0.000 A 
ATOM      5  N   UNL     1     -12.438 -41.496  34.449  0.00  0.00    +0.000 NA
ATOM      6  C   UNL     1     -11.194 -41.814  34.025  0.00  0.00    +0.000 A 
ATOM      7  C   UNL     1     -10.985 -42.499  32.847  0.00  0.00    +0.000 A 
ATOM      8  C   UNL     1      -9.728 -42.835  32.394  0.00  0.00    +0.000 A 
ATOM      9  C   UNL     1      -8.639 -42.467  33.155  0.00  0.00    +0.000 A 
ATOM     10  C   UNL     1      -8.789 -41.774  34.351  0.00  0.00    +0.000 A 
ATOM     11  C   UNL     1     -10.069 -41.464  34.757  0.00  0.00    +0.000 A 
ATOM     12  C   UNL     1     -14.917 -41.495  34.184  0.00  0.00    +0.000 C 
ATOM     13  C   UNL     1     -14.258 -43.007  31.606  0.00  0.00    +0.000 A 
ATOM     14  C   UNL     1     -13.502 -43.607  30.634  0.00  0.00    +0.000 A 
ATOM     15  O   UNL     1     -12.250 -43.482  30.989  0.00  0.00    +0.000 OA
BRANCH   9  16
ATOM     16  C   UNL     1      -7.274 -42.781  32.751  0.00  0.00    +0.000 C 
ATOM     17  O   UNL     1      -6.526 -43.331  33.598  0.00  0.00    +0.000 OA
BRANCH  16  18
ATOM     18  O   UNL     1      -6.767 -42.509  31.506  0.00  0.00    +0.000 OA
ATOM     19  H   UNL     1      -5.938 -42.976  31.110  0.00  0.00    +0.000 HD
ENDBRANCH  16  18
ENDBRANCH   9  16
ENDBRANCH   1  14
BRANCH   1  20
ATOM     20  N   UNL     1     -13.367 -43.929  28.209  0.00  0.00    +0.000 NA
BRANCH  20  21
ATOM     21  C   UNL     1     -12.388 -44.766  27.633  0.00  0.00    +0.000 C 
BRANCH  21  22
ATOM     22  C   UNL     1     -11.116 -44.829  28.361  0.00  0.00    +0.000 A 
ATOM     23  C   UNL     1     -10.272 -43.748  28.418  0.00  0.00    +0.000 A 
ATOM     24  C   UNL     1      -9.058 -43.799  29.111  0.00  0.00    +0.000 A 
ATOM     25  C   UNL     1      -8.702 -44.968  29.751  0.00  0.00    +0.000 A 
ATOM     26  C   UNL     1      -9.523 -46.049  29.706  0.00  0.00    +0.000 A 
ATOM     27  C   UNL     1     -10.736 -45.983  29.009  0.00  0.00    +0.000 A 
BRANCH  25  28
ATOM     28  O   UNL     1      -7.499 -45.014  30.435  0.00  0.00    +0.000 OA
ATOM     29  C   UNL     1      -7.211 -46.018  31.386  0.00  0.00    +0.000 C 
ENDBRANCH  25  28
ENDBRANCH  21  22
ENDBRANCH  20  21
BRANCH  20  30
ATOM     30  C   UNL     1     -13.494 -42.654  27.648  0.00  0.00    +0.000 C 
BRANCH  30  31
ATOM     31  C   UNL     1     -14.488 -42.586  26.569  0.00  0.00    +0.000 A 
ATOM     32  C   UNL     1     -15.785 -42.201  26.879  0.00  0.00    +0.000 A 
ATOM     33  C   UNL     1     -16.764 -42.130  25.907  0.00  0.00    +0.000 A 
ATOM     34  C   UNL     1     -16.469 -42.445  24.583  0.00  0.00    +0.000 A 
ATOM     35  C   UNL     1     -15.180 -42.826  24.280  0.00  0.00    +0.000 A 
ATOM     36  C   UNL     1     -14.201 -42.894  25.275  0.00  0.00    +0.000 A 
BRANCH  33  37
ATOM     37  O   UNL     1     -18.052 -41.744  26.230  0.00  0.00    +0.000 OA
ATOM     38  C   UNL     1     -18.871 -41.088  25.299  0.00  0.00    +0.000 C 
ENDBRANCH  33  37
ENDBRANCH  30  31
ENDBRANCH  20  30
ENDBRANCH   1  20
TORSDOF 10
ENDMDL
