MODEL 1
REMARK VINA RESULT:   -11.345      0.000      0.000
REMARK INTER + INTRA:         -14.616
REMARK INTER:                 -14.330
REMARK INTRA:                  -0.286
REMARK UNBOUND:                -0.286
REMARK  Name = 
REMARK  6 active torsions:
REMARK  status: ('A' for Active; 'I' for Inactive)
REMARK    1  A    between atoms: C_4  and  N_23
REMARK    2  A    between atoms: C_5  and  C_21
REMARK    3  A    between atoms: C_6  and  C_7
REMARK    4  A    between atoms: C_9  and  O_10
REMARK    5  A    between atoms: O_10  and  C_11
REMARK    6  A    between atoms: C_25  and  C_29
REMARK                            x       y       z     vdW  Elec       q    Type
REMARK                         _______ _______ _______ _____ _____    ______ ____
ROOT
ATOM      1  C   UNL     1      -9.985 -43.121  32.473  0.00  0.00    +0.000 A 
ATOM      2  C   UNL     1      -9.611 -42.364  33.568  0.00  0.00    +0.000 A 
ATOM      3  O   UNL     1     -10.559 -41.683  34.322  0.00  0.00    +0.000 OA
ATOM      4  C   UNL     1     -11.882 -41.800  33.920  0.00  0.00    +0.000 C 
ATOM      5  C   UNL     1     -12.307 -42.502  32.888  0.00  0.00    +0.000 C 
ATOM      6  C   UNL     1     -11.374 -43.254  32.034  0.00  0.00    +0.000 C 
ATOM      7  C   UNL     1      -8.262 -42.302  33.895  0.00  0.00    +0.000 A 
ATOM      8  C   UNL     1      -7.283 -42.966  33.169  0.00  0.00    +0.000 A 
ATOM      9  O   UNL     1      -7.698 -43.666  32.141  0.00  0.00    +0.000 OA
ATOM     10  C   UNL     1      -8.958 -43.753  31.798  0.00  0.00    +0.000 A 
ATOM     11  O   UNL     1      -9.239 -44.453  30.794  0.00  0.00    +0.000 OA
ATOM     12  C   UNL     1      -5.842 -42.903  33.515  0.00  0.00    +0.000 C 
ENDROOT
BRANCH   6  13
ATOM     13  C   UNL     1     -11.541 -42.944  30.587  0.00  0.00    +0.000 A 
ATOM     14  C   UNL     1     -12.433 -43.660  29.820  0.00  0.00    +0.000 A 
ATOM     15  C   UNL     1     -12.608 -43.404  28.451  0.00  0.00    +0.000 A 
ATOM     16  C   UNL     1     -11.862 -42.410  27.876  0.00  0.00    +0.000 A 
ATOM     17  C   UNL     1     -10.958 -41.668  28.608  0.00  0.00    +0.000 A 
ATOM     18  C   UNL     1     -10.823 -41.958  29.951  0.00  0.00    +0.000 A 
ATOM     19  F   UNL     1     -11.985 -42.098  26.543  0.00  0.00    +0.000 F 
BRANCH  15  20
ATOM     20  O   UNL     1     -13.510 -44.143  27.723  0.00  0.00    +0.000 OA
BRANCH  20  21
ATOM     21  C   UNL     1     -14.323 -43.612  26.771  0.00  0.00    +0.000 A 
ATOM     22  C   UNL     1     -14.189 -43.894  25.429  0.00  0.00    +0.000 A 
ATOM     23  C   UNL     1     -15.012 -43.358  24.465  0.00  0.00    +0.000 A 
ATOM     24  C   UNL     1     -16.034 -42.485  24.848  0.00  0.00    +0.000 A 
ATOM     25  C   UNL     1     -16.168 -42.200  26.205  0.00  0.00    +0.000 A 
ATOM     26  C   UNL     1     -15.347 -42.738  27.154  0.00  0.00    +0.000 A 
ENDBRANCH  20  21
ENDBRANCH  15  20
ENDBRANCH   6  13
BRANCH   4  27
ATOM     27  N   UNL     1     -12.882 -41.112  34.675  0.00  0.00    +0.000 N 
ATOM     28  H   UNL     1     -13.724 -40.790  34.192  0.00  0.00    +0.000 HD
ATOM     29  H   UNL     1     -12.748 -40.951  35.679  0.00  0.00    +0.000 HD
ENDBRANCH   4  27
BRANCH   5  30
ATOM     30  C   UNL     1     -13.749 -42.525  32.588  0.00  0.00    +0.000 C 
ATOM     31  N   UNL     1     -14.897 -42.543  32.366  0.00  0.00    +0.000 NA
ENDBRANCH   5  30
TORSDOF 5
ENDMDL
