MODEL 1
REMARK VINA RESULT:   -11.359      0.000      0.000
REMARK INTER + INTRA:         -15.897
REMARK INTER:                 -15.344
REMARK INTRA:                  -0.554
REMARK UNBOUND:                -0.554
REMARK  Name = 
REMARK  7 active torsions:
REMARK  status: ('A' for Active; 'I' for Inactive)
REMARK    1  A    between atoms: C_1  and  C_3
REMARK    2  A    between atoms: C_1  and  O_13
REMARK    3  A    between atoms: O_13  and  N_14
REMARK    4  A    between atoms: C_15  and  C_16
REMARK    5  A    between atoms: C_16  and  C_17
REMARK    6  A    between atoms: C_20  and  O_23
REMARK    7  A    between atoms: O_23  and  C_24
REMARK                            x       y       z     vdW  Elec       q    Type
REMARK                         _______ _______ _______ _____ _____    ______ ____
ROOT
ATOM      1  N   UNL     1     -13.903 -44.093  29.486  0.00  0.00    +0.000 NA
ATOM      2  C   UNL     1     -13.271 -43.707  28.428  0.00  0.00    +0.000 C 
ATOM      3  N   UNL     1     -12.415 -42.595  28.548  0.00  0.00    +0.000 N 
ATOM      4  H   UNL     1     -11.468 -42.679  28.998  0.00  0.00    +0.000 HD
ATOM      5  H   UNL     1     -12.665 -41.628  28.202  0.00  0.00    +0.000 HD
ENDROOT
BRANCH   1   6
ATOM      6  O   UNL     1     -13.785 -43.481  30.708  0.00  0.00    +0.000 OA
BRANCH   6   7
ATOM      7  C   UNL     1     -13.184 -44.185  31.736  0.00  0.00    +0.000 C 
ATOM      8  O   UNL     1     -13.917 -44.613  32.661  0.00  0.00    +0.000 OA
BRANCH   7   9
ATOM      9  C   UNL     1     -11.727 -44.429  31.747  0.00  0.00    +0.000 A 
ATOM     10  C   UNL     1     -10.854 -43.517  32.294  0.00  0.00    +0.000 A 
ATOM     11  C   UNL     1      -9.472 -43.727  32.315  0.00  0.00    +0.000 A 
ATOM     12  C   UNL     1      -8.958 -44.886  31.771  0.00  0.00    +0.000 A 
ATOM     13  C   UNL     1      -9.835 -45.802  31.222  0.00  0.00    +0.000 A 
ATOM     14  C   UNL     1     -11.204 -45.581  31.207  0.00  0.00    +0.000 A 
ATOM     15  C   UNL     1      -7.615 -45.118  31.778  0.00  0.00    +0.000 A 
ATOM     16  C   UNL     1      -6.774 -44.168  32.341  0.00  0.00    +0.000 A 
ATOM     17  C   UNL     1      -7.263 -43.003  32.891  0.00  0.00    +0.000 A 
ATOM     18  C   UNL     1      -8.621 -42.786  32.875  0.00  0.00    +0.000 A 
ENDBRANCH   7   9
ENDBRANCH   6   7
ENDBRANCH   1   6
BRANCH   2  19
ATOM     19  C   UNL     1     -13.467 -44.439  27.145  0.00  0.00    +0.000 C 
BRANCH  19  20
ATOM     20  C   UNL     1     -14.319 -43.651  26.218  0.00  0.00    +0.000 A 
ATOM     21  C   UNL     1     -14.141 -43.690  24.850  0.00  0.00    +0.000 A 
ATOM     22  C   UNL     1     -14.938 -42.954  24.000  0.00  0.00    +0.000 A 
ATOM     23  C   UNL     1     -15.950 -42.149  24.504  0.00  0.00    +0.000 A 
ATOM     24  C   UNL     1     -16.133 -42.107  25.867  0.00  0.00    +0.000 A 
ATOM     25  C   UNL     1     -15.331 -42.846  26.712  0.00  0.00    +0.000 A 
BRANCH  23  26
ATOM     26  O   UNL     1     -16.703 -41.445  23.592  0.00  0.00    +0.000 OA
ATOM     27  C   UNL     1     -16.180 -40.704  22.520  0.00  0.00    +0.000 C 
ENDBRANCH  23  26
ENDBRANCH  19  20
ENDBRANCH   2  19
TORSDOF 6
ENDMDL
