MODEL 1
REMARK VINA RESULT:   -10.799      0.000      0.000
REMARK INTER + INTRA:         -13.609
REMARK INTER:                 -13.009
REMARK INTRA:                  -0.600
REMARK UNBOUND:                -0.600
REMARK  Name = 
REMARK  6 active torsions:
REMARK  status: ('A' for Active; 'I' for Inactive)
REMARK    1  A    between atoms: C_2  and  C_3
REMARK    2  A    between atoms: C_5  and  C_6
REMARK    3  A    between atoms: C_7  and  C_8
REMARK    4  A    between atoms: C_8  and  O_10
REMARK    5  A    between atoms: N_19  and  C_26
REMARK    6  A    between atoms: N_22  and  C_25
REMARK                            x       y       z     vdW  Elec       q    Type
REMARK                         _______ _______ _______ _____ _____    ______ ____
ROOT
ATOM      1  C   UNL     1     -11.366 -44.277  28.382  0.00  0.00    +0.000 A 
ATOM      2  O   UNL     1     -12.135 -43.407  27.807  0.00  0.00    +0.000 OA
ATOM      3  C   UNL     1     -13.108 -43.979  27.088  0.00  0.00    +0.000 A 
ATOM      4  C   UNL     1     -12.949 -45.311  27.208  0.00  0.00    +0.000 A 
ATOM      5  C   UNL     1     -11.839 -45.519  28.035  0.00  0.00    +0.000 A 
ENDROOT
BRANCH   1   7
ATOM      6  C   UNL     1     -10.243 -43.516  30.452  0.00  0.00    +0.000 C 
ATOM      7  C   UNL     1     -10.207 -43.999  29.238  0.00  0.00    +0.000 C 
ATOM      8  C   UNL     1      -8.984 -43.292  31.188  0.00  0.00    +0.000 C 
ATOM      9  O   UNL     1      -7.915 -43.581  30.599  0.00  0.00    +0.000 OA
ATOM     10  N   UNL     1      -8.965 -42.769  32.508  0.00  0.00    +0.000 N 
ATOM     11  C   UNL     1     -10.171 -42.440  33.179  0.00  0.00    +0.000 C 
ATOM     12  O   UNL     1     -10.129 -41.972  34.368  0.00  0.00    +0.000 OA
ATOM     13  N   UNL     1     -11.400 -42.641  32.511  0.00  0.00    +0.000 N 
ATOM     14  C   UNL     1     -11.455 -43.169  31.169  0.00  0.00    +0.000 C 
ATOM     15  O   UNL     1     -12.570 -43.328  30.615  0.00  0.00    +0.000 OA
ATOM     16  C   UNL     1     -12.622 -42.309  33.206  0.00  0.00    +0.000 C 
ATOM     17  C   UNL     1      -7.711 -42.555  33.203  0.00  0.00    +0.000 C 
ENDBRANCH   1   7
BRANCH   3  18
ATOM     18  C   UNL     1     -14.072 -43.127  26.359  0.00  0.00    +0.000 A 
ATOM     19  C   UNL     1     -15.297 -42.749  26.814  0.00  0.00    +0.000 A 
ATOM     20  C   UNL     1     -16.183 -42.098  25.933  0.00  0.00    +0.000 A 
ATOM     21  C   UNL     1     -15.883 -41.813  24.632  0.00  0.00    +0.000 A 
ATOM     22  C   UNL     1     -14.636 -42.196  24.187  0.00  0.00    +0.000 A 
ATOM     23  C   UNL     1     -13.756 -42.833  25.020  0.00  0.00    +0.000 A 
BRANCH  19  24
ATOM     24  C   UNL     1     -15.660 -42.825  28.218  0.00  0.00    +0.000 C 
ATOM     25  O   UNL     1     -16.781 -42.356  28.558  0.00  0.00    +0.000 OA
BRANCH  24  26
ATOM     26  O   UNL     1     -14.902 -43.351  29.218  0.00  0.00    +0.000 OA
ATOM     27  H   UNL     1     -14.683 -42.799  30.065  0.00  0.00    +0.000 HD
ENDBRANCH  24  26
ENDBRANCH  19  24
ENDBRANCH   3  18
TORSDOF 4
ENDMDL
