MODEL 1
REMARK VINA RESULT:    -9.361      0.000      0.000
REMARK INTER + INTRA:         -14.177
REMARK INTER:                 -12.645
REMARK INTRA:                  -1.532
REMARK UNBOUND:                -1.532
REMARK  Name = 
REMARK  6 active torsions:
REMARK  status: ('A' for Active; 'I' for Inactive)
REMARK    1  A    between atoms: C_1  and  C_10
REMARK    2  A    between atoms: C_10  and  C_11
REMARK    3  A    between atoms: C_10  and  C_15
REMARK    4  A    between atoms: C_11  and  N_12
REMARK    5  A    between atoms: C_20  and  N_21
REMARK    6  A    between atoms: C_22  and  C_36
REMARK                            x       y       z     vdW  Elec       q    Type
REMARK                         _______ _______ _______ _____ _____    ______ ____
ROOT
ATOM      1  C   UNL     1     -20.611 -42.472  24.324  0.00  0.00    +0.000 A 
ATOM      2  C   UNL     1     -20.283 -43.692  24.945  0.00  0.00    +0.000 A 
ATOM      3  C   UNL     1     -21.296 -44.537  25.352  0.00  0.00    +0.000 A 
ATOM      4  C   UNL     1     -22.608 -44.198  25.156  0.00  0.00    +0.000 A 
ATOM      5  C   UNL     1     -22.884 -43.005  24.550  0.00  0.00    +0.000 A 
ATOM      6  C   UNL     1     -21.902 -42.095  24.111  0.00  0.00    +0.000 A 
ENDROOT
BRANCH   6   7
ATOM      7  N   UNL     1     -22.287 -40.873  23.508  0.00  0.00    +0.000 N 
ATOM      8  C   UNL     1     -22.238 -39.567  23.993  0.00  0.00    +0.000 C 
ATOM      9  C   UNL     1     -22.580 -38.508  22.985  0.00  0.00    +0.000 C 
ATOM     10  C   UNL     1     -23.865 -38.808  22.300  0.00  0.00    +0.000 C 
ATOM     11  C   UNL     1     -23.612 -40.097  21.556  0.00  0.00    +0.000 A 
ATOM     12  C   UNL     1     -22.824 -41.056  22.188  0.00  0.00    +0.000 A 
ATOM     13  C   UNL     1     -22.614 -42.209  21.444  0.00  0.00    +0.000 A 
ATOM     14  C   UNL     1     -23.136 -42.398  20.189  0.00  0.00    +0.000 A 
ATOM     15  C   UNL     1     -23.909 -41.419  19.611  0.00  0.00    +0.000 A 
ATOM     16  C   UNL     1     -24.149 -40.254  20.304  0.00  0.00    +0.000 A 
ATOM     17  F   UNL     1     -24.441 -41.592  18.351  0.00  0.00    +0.000 F 
ATOM     18  O   UNL     1     -24.260 -37.809  21.409  0.00  0.00    +0.000 OA
ATOM     19  C   UNL     1     -23.258 -36.947  21.040  0.00  0.00    +0.000 C 
ATOM     20  C   UNL     1     -21.960 -37.625  20.742  0.00  0.00    +0.000 C 
ATOM     21  C   UNL     1     -21.447 -38.253  22.013  0.00  0.00    +0.000 C 
BRANCH   8  22
ATOM     22  C   UNL     1     -23.094 -39.292  25.187  0.00  0.00    +0.000 A 
ATOM     23  C   UNL     1     -24.362 -38.791  25.117  0.00  0.00    +0.000 A 
ATOM     24  C   UNL     1     -25.095 -38.539  26.277  0.00  0.00    +0.000 A 
ATOM     25  C   UNL     1     -24.517 -38.807  27.494  0.00  0.00    +0.000 A 
ATOM     26  C   UNL     1     -23.238 -39.315  27.591  0.00  0.00    +0.000 A 
ATOM     27  C   UNL     1     -22.524 -39.558  26.430  0.00  0.00    +0.000 A 
ENDBRANCH   8  22
ENDBRANCH   6   7
BRANCH   1  28
ATOM     28  C   UNL     1     -19.518 -41.584  23.860  0.00  0.00    +0.000 C 
BRANCH  28  29
ATOM     29  C   UNL     1     -18.219 -41.850  24.527  0.00  0.00    +0.000 A 
ATOM     30  C   UNL     1     -17.018 -42.175  23.881  0.00  0.00    +0.000 A 
ATOM     31  N   UNL     1     -16.112 -42.335  24.853  0.00  0.00    +0.000 N 
ATOM     32  C   UNL     1     -16.659 -42.135  26.059  0.00  0.00    +0.000 A 
ATOM     33  C   UNL     1     -17.992 -41.826  25.885  0.00  0.00    +0.000 A 
ATOM     34  C   UNL     1     -18.788 -41.571  27.004  0.00  0.00    +0.000 A 
ATOM     35  C   UNL     1     -18.286 -41.618  28.289  0.00  0.00    +0.000 A 
ATOM     36  C   UNL     1     -16.955 -41.926  28.453  0.00  0.00    +0.000 A 
ATOM     37  C   UNL     1     -16.171 -42.177  27.355  0.00  0.00    +0.000 A 
ATOM     38  H   UNL     1     -15.098 -42.587  24.677  0.00  0.00    +0.000 HD
ENDBRANCH  28  29
BRANCH  28  39
ATOM     39  C   UNL     1     -19.318 -41.795  22.391  0.00  0.00    +0.000 C 
BRANCH  39  40
ATOM     40  N   UNL     1     -19.158 -40.584  21.617  0.00  0.00    +0.000 N 
ATOM     41  O   UNL     1     -18.460 -39.626  22.003  0.00  0.00    +0.000 OA
ATOM     42  O   UNL     1     -19.775 -40.431  20.410  0.00  0.00    +0.000 OA
ENDBRANCH  39  40
ENDBRANCH  28  39
ENDBRANCH   1  28
TORSDOF 6
ENDMDL
