MODEL 1
REMARK VINA RESULT:    -9.987      0.000      0.000
REMARK INTER + INTRA:         -14.687
REMARK INTER:                 -14.658
REMARK INTRA:                  -0.030
REMARK UNBOUND:                -0.030
REMARK  Name = 
REMARK  9 active torsions:
REMARK  status: ('A' for Active; 'I' for Inactive)
REMARK    1  A    between atoms: N_1  and  C_10
REMARK    2  A    between atoms: C_11  and  O_15
REMARK    3  A    between atoms: O_15  and  N_16
REMARK    4  A    between atoms: N_16  and  C_17
REMARK    5  A    between atoms: N_16  and  C_27
REMARK    6  A    between atoms: C_17  and  C_18
REMARK    7  A    between atoms: C_21  and  O_24
REMARK    8  A    between atoms: O_24  and  C_25
REMARK    9  A    between atoms: C_25  and  C_26
REMARK                            x       y       z     vdW  Elec       q    Type
REMARK                         _______ _______ _______ _____ _____    ______ ____
ROOT
ATOM      1  O   UNL     1     -12.708 -43.973  28.935  0.00  0.00    +0.000 OA
ENDROOT
BRANCH   1   3
ATOM      2  C   UNL     1     -12.295 -43.349  31.190  0.00  0.00    +0.000 C 
ATOM      3  C   UNL     1     -13.307 -43.737  30.172  0.00  0.00    +0.000 C 
ATOM      4  C   UNL     1     -13.882 -45.023  30.669  0.00  0.00    +0.000 C 
ATOM      5  N   UNL     1     -13.214 -45.292  31.956  0.00  0.00    +0.000 NA
ATOM      6  C   UNL     1     -11.883 -44.690  31.762  0.00  0.00    +0.000 C 
ATOM      7  H   UNL     1     -13.718 -44.827  32.740  0.00  0.00    +0.000 HD
BRANCH   2   8
ATOM      8  N   UNL     1     -12.788 -42.556  32.283  0.00  0.00    +0.000 N 
ATOM      9  C   UNL     1     -11.901 -42.230  33.263  0.00  0.00    +0.000 A 
ATOM     10  O   UNL     1     -10.692 -42.632  33.176  0.00  0.00    +0.000 OA
ATOM     11  N   UNL     1     -12.334 -41.489  34.299  0.00  0.00    +0.000 N 
ATOM     12  C   UNL     1     -13.592 -41.051  34.424  0.00  0.00    +0.000 A 
ATOM     13  O   UNL     1     -13.990 -40.358  35.397  0.00  0.00    +0.000 OA
ATOM     14  C   UNL     1     -14.487 -41.386  33.426  0.00  0.00    +0.000 A 
ATOM     15  C   UNL     1     -14.065 -42.156  32.336  0.00  0.00    +0.000 A 
ATOM     16 CL   UNL     1     -16.157 -40.883  33.460  0.00  0.00    +0.000 Cl
ATOM     17  H   UNL     1     -11.650 -41.235  35.059  0.00  0.00    +0.000 HD
ENDBRANCH   2   8
ENDBRANCH   1   3
BRANCH   1  18
ATOM     18  N   UNL     1     -12.851 -42.965  28.066  0.00  0.00    +0.000 NA
BRANCH  18  19
ATOM     19  C   UNL     1     -13.838 -43.271  27.098  0.00  0.00    +0.000 C 
ATOM     20  C   UNL     1     -13.529 -42.780  25.695  0.00  0.00    +0.000 C 
ATOM     21  C   UNL     1     -14.651 -43.339  24.809  0.00  0.00    +0.000 C 
ATOM     22  C   UNL     1     -15.934 -42.599  25.112  0.00  0.00    +0.000 C 
ATOM     23  C   UNL     1     -15.900 -41.989  26.480  0.00  0.00    +0.000 C 
ATOM     24  C   UNL     1     -15.240 -42.879  27.513  0.00  0.00    +0.000 C 
ENDBRANCH  18  19
BRANCH  18  25
ATOM     25  C   UNL     1     -11.592 -42.553  27.566  0.00  0.00    +0.000 C 
BRANCH  25  26
ATOM     26  C   UNL     1     -10.418 -42.951  28.373  0.00  0.00    +0.000 A 
ATOM     27  C   UNL     1      -9.681 -41.937  28.939  0.00  0.00    +0.000 A 
ATOM     28  C   UNL     1      -8.571 -42.195  29.718  0.00  0.00    +0.000 A 
ATOM     29  C   UNL     1      -8.186 -43.488  29.941  0.00  0.00    +0.000 A 
ATOM     30  C   UNL     1      -8.938 -44.522  29.364  0.00  0.00    +0.000 A 
ATOM     31  C   UNL     1     -10.038 -44.236  28.592  0.00  0.00    +0.000 A 
BRANCH  29  32
ATOM     32  O   UNL     1      -7.088 -43.764  30.714  0.00  0.00    +0.000 OA
BRANCH  32  33
ATOM     33  C   UNL     1      -7.177 -44.112  32.048  0.00  0.00    +0.000 C 
ATOM     34  C   UNL     1      -7.123 -42.976  33.026  0.00  0.00    +0.000 C 
ENDBRANCH  32  33
ENDBRANCH  29  32
ENDBRANCH  25  26
ENDBRANCH  18  25
ENDBRANCH   1  18
TORSDOF 8
ENDMDL
