MODEL 1
REMARK VINA RESULT:    -8.649      0.000      0.000
REMARK INTER + INTRA:         -12.858
REMARK INTER:                 -11.682
REMARK INTRA:                  -1.176
REMARK UNBOUND:                -1.176
REMARK  Name = 
REMARK  11 active torsions:
REMARK  status: ('A' for Active; 'I' for Inactive)
REMARK    1  A    between atoms: N_1  and  C_10
REMARK    2  A    between atoms: C_2  and  C_9
REMARK    3  A    between atoms: C_3  and  C_7
REMARK    4  A    between atoms: C_5  and  C_6
REMARK    5  A    between atoms: C_10  and  C_11
REMARK    6  A    between atoms: C_11  and  C_12
REMARK    7  A    between atoms: C_12  and  C_13
REMARK    8  A    between atoms: C_13  and  C_14
REMARK    9  A    between atoms: N_16  and  C_17
REMARK   10  A    between atoms: N_16  and  C_18
REMARK   11  A    between atoms: N_22  and  C_24
REMARK                            x       y       z     vdW  Elec       q    Type
REMARK                         _______ _______ _______ _____ _____    ______ ____
ROOT
ATOM      1  C   UNL     1      -9.652 -44.523  30.907  0.00  0.00    +0.000 C 
ATOM      2  N   UNL     1      -8.612 -45.476  30.341  0.00  0.00    +0.000 NA
ATOM      3  C   UNL     1      -7.817 -46.046  31.374  0.00  0.00    +0.000 C 
ATOM      4  C   UNL     1      -6.867 -44.941  31.843  0.00  0.00    +0.000 C 
ATOM      5  N   UNL     1      -7.614 -43.675  31.794  0.00  0.00    +0.000 NA
ATOM      6  C   UNL     1      -8.994 -43.989  32.123  0.00  0.00    +0.000 C 
ATOM      7  C   UNL     1      -7.069 -42.866  32.890  0.00  0.00    +0.000 C 
ATOM      8  H   UNL     1      -7.991 -44.970  29.701  0.00  0.00    +0.000 HD
ENDROOT
BRANCH   1   9
ATOM      9  C   UNL     1      -9.817 -43.577  29.819  0.00  0.00    +0.000 C 
ATOM     10  O   UNL     1      -9.136 -43.923  28.745  0.00  0.00    +0.000 OA
ATOM     11  N   UNL     1     -10.524 -42.402  29.671  0.00  0.00    +0.000 N 
ATOM     12  C   UNL     1     -11.345 -41.786  30.673  0.00  0.00    +0.000 C 
ATOM     13  C   UNL     1     -10.459 -41.680  28.388  0.00  0.00    +0.000 C 
ENDBRANCH   1   9
BRANCH   1  14
ATOM     14  C   UNL     1     -10.810 -45.399  31.122  0.00  0.00    +0.000 C 
BRANCH  14  15
ATOM     15  C   UNL     1     -12.206 -44.951  31.199  0.00  0.00    +0.000 C 
BRANCH  15  16
ATOM     16  C   UNL     1     -13.151 -45.520  30.269  0.00  0.00    +0.000 C 
BRANCH  16  17
ATOM     17  N   UNL     1     -13.375 -44.835  29.030  0.00  0.00    +0.000 N 
ATOM     18  C   UNL     1     -14.308 -43.891  28.884  0.00  0.00    +0.000 A 
ATOM     19  C   UNL     1     -14.283 -43.418  27.594  0.00  0.00    +0.000 A 
ATOM     20  C   UNL     1     -13.267 -44.140  26.956  0.00  0.00    +0.000 A 
ATOM     21  C   UNL     1     -12.719 -45.014  27.871  0.00  0.00    +0.000 A 
ATOM     22  C   UNL     1     -11.633 -45.970  27.666  0.00  0.00    +0.000 C 
ATOM     23  C   UNL     1     -15.278 -43.364  29.900  0.00  0.00    +0.000 C 
BRANCH  19  24
ATOM     24  C   UNL     1     -15.129 -42.390  27.020  0.00  0.00    +0.000 C 
ATOM     25  O   UNL     1     -15.708 -42.608  25.938  0.00  0.00    +0.000 OA
ENDBRANCH  19  24
ENDBRANCH  16  17
ENDBRANCH  15  16
ENDBRANCH  14  15
ENDBRANCH   1  14
TORSDOF 6
ENDMDL
