MODEL 1
REMARK VINA RESULT:    -8.784      0.000      0.000
REMARK INTER + INTRA:         -12.940
REMARK INTER:                 -11.609
REMARK INTRA:                  -1.331
REMARK UNBOUND:                -1.331
REMARK  Name = 
REMARK  7 active torsions:
REMARK  status: ('A' for Active; 'I' for Inactive)
REMARK    1  A    between atoms: S_1  and  C_4
REMARK    2  A    between atoms: S_1  and  N_14
REMARK    3  A    between atoms: C_6  and  N_7
REMARK    4  A    between atoms: C_10  and  N_13
REMARK    5  A    between atoms: N_14  and  C_15
REMARK    6  A    between atoms: N_14  and  C_16
REMARK    7  A    between atoms: C_16  and  C_17
REMARK                            x       y       z     vdW  Elec       q    Type
REMARK                         _______ _______ _______ _____ _____    ______ ____
ROOT
ATOM      1  N   UNL     1     -10.291 -42.580  28.980  0.00  0.00    +0.000 NA
ATOM      2  C   UNL     1     -10.287 -41.396  28.170  0.00  0.00    +0.000 C 
ENDROOT
BRANCH   1   3
ATOM      3  S   UNL     1     -11.664 -43.518  28.651  0.00  0.00    +0.000 S 
ATOM      4  O   UNL     1     -11.400 -44.822  28.009  0.00  0.00    +0.000 OA
ATOM      5  O   UNL     1     -12.614 -42.676  27.799  0.00  0.00    +0.000 OA
BRANCH   3   6
ATOM      6  C   UNL     1     -12.566 -43.862  30.128  0.00  0.00    +0.000 A 
ATOM      7  C   UNL     1     -12.853 -42.902  31.048  0.00  0.00    +0.000 A 
ATOM      8  C   UNL     1     -13.575 -43.235  32.197  0.00  0.00    +0.000 A 
ATOM      9  C   UNL     1     -14.008 -44.516  32.427  0.00  0.00    +0.000 A 
ATOM     10  C   UNL     1     -13.710 -45.490  31.480  0.00  0.00    +0.000 A 
ATOM     11  C   UNL     1     -12.995 -45.139  30.351  0.00  0.00    +0.000 A 
BRANCH   8  12
ATOM     12  N   UNL     1     -13.882 -42.235  33.172  0.00  0.00    +0.000 N 
ATOM     13  O   UNL     1     -15.052 -41.814  33.234  0.00  0.00    +0.000 OA
ATOM     14  O   UNL     1     -12.909 -41.767  34.002  0.00  0.00    +0.000 OA
ENDBRANCH   8  12
BRANCH   9  15
ATOM     15  N   UNL     1     -14.740 -44.834  33.602  0.00  0.00    +0.000 N 
ATOM     16  H   UNL     1     -15.613 -45.386  33.511  0.00  0.00    +0.000 HD
ATOM     17  H   UNL     1     -14.447 -44.540  34.555  0.00  0.00    +0.000 HD
ENDBRANCH   9  15
ENDBRANCH   3   6
ENDBRANCH   1   3
BRANCH   1  18
ATOM     18  C   UNL     1      -9.039 -43.204  29.029  0.00  0.00    +0.000 C 
BRANCH  18  19
ATOM     19  C   UNL     1      -8.475 -43.572  30.358  0.00  0.00    +0.000 C 
ATOM     20  C   UNL     1      -9.407 -43.615  31.517  0.00  0.00    +0.000 C 
ATOM     21  N   UNL     1      -9.297 -44.878  32.253  0.00  0.00    +0.000 NA
ATOM     22  C   UNL     1      -9.736 -45.915  31.344  0.00  0.00    +0.000 C 
ATOM     23  C   UNL     1      -8.805 -45.917  30.152  0.00  0.00    +0.000 C 
ATOM     24  N   UNL     1      -7.839 -44.876  30.225  0.00  0.00    +0.000 NA
ATOM     25  N   UNL     1      -9.156 -42.524  32.476  0.00  0.00    +0.000 NA
ATOM     26  C   UNL     1      -7.814 -42.687  33.049  0.00  0.00    +0.000 C 
ATOM     27  C   UNL     1      -6.788 -42.832  31.919  0.00  0.00    +0.000 C 
ATOM     28  N   UNL     1      -7.461 -42.563  30.690  0.00  0.00    +0.000 NA
ATOM     29  H   UNL     1      -8.308 -45.059  32.485  0.00  0.00    +0.000 HD
ATOM     30  H   UNL     1      -7.155 -44.926  29.466  0.00  0.00    +0.000 HD
ATOM     31  H   UNL     1      -9.101 -41.639  31.900  0.00  0.00    +0.000 HD
ATOM     32  H   UNL     1      -6.821 -42.399  29.883  0.00  0.00    +0.000 HD
ENDBRANCH  18  19
ENDBRANCH   1  18
TORSDOF 6
ENDMDL
