MODEL 1
REMARK VINA RESULT:    -8.690      0.000      0.000
REMARK INTER + INTRA:          -9.423
REMARK INTER:                 -10.976
REMARK INTRA:                   1.553
REMARK UNBOUND:                 1.553
REMARK  Name = 
REMARK  6 active torsions:
REMARK  status: ('A' for Active; 'I' for Inactive)
REMARK    1  A    between atoms: N_1  and  C_14
REMARK    2  A    between atoms: C_10  and  C_13
REMARK    3  A    between atoms: C_16  and  C_32
REMARK    4  A    between atoms: C_20  and  N_30
REMARK    5  A    between atoms: C_25  and  N_26
REMARK    6  A    between atoms: C_32  and  O_34
REMARK                            x       y       z     vdW  Elec       q    Type
REMARK                         _______ _______ _______ _____ _____    ______ ____
ROOT
ATOM      1  C   UNL     1     -12.030 -44.167  28.672  0.00  0.00    +0.000 C 
ATOM      2  C   UNL     1     -11.540 -45.337  28.833  0.00  0.00    +0.000 C 
ATOM      3  C   UNL     1     -10.504 -44.931  29.811  0.00  0.00    +0.000 C 
ATOM      4  C   UNL     1     -11.067 -43.643  29.721  0.00  0.00    +0.000 C 
ATOM      5  C   UNL     1     -10.271 -42.586  29.042  0.00  0.00    +0.000 C 
ATOM      6  O   UNL     1     -10.856 -41.860  28.292  0.00  0.00    +0.000 OA
ATOM      7  C   UNL     1      -8.847 -42.366  29.213  0.00  0.00    +0.000 C 
ATOM      8  N   UNL     1      -8.733 -42.058  30.655  0.00  0.00    +0.000 N 
ATOM      9  C   UNL     1      -8.640 -43.072  31.591  0.00  0.00    +0.000 C 
ATOM     10  C   UNL     1      -9.263 -42.989  32.987  0.00  0.00    +0.000 C 
ATOM     11  C   UNL     1     -10.603 -42.859  33.129  0.00  0.00    +0.000 C 
ATOM     12  C   UNL     1     -11.631 -42.788  32.137  0.00  0.00    +0.000 C 
ATOM     13  C   UNL     1     -11.773 -43.088  30.883  0.00  0.00    +0.000 C 
ATOM     14  C   UNL     1      -9.132 -45.233  29.283  0.00  0.00    +0.000 C 
ATOM     15  C   UNL     1      -8.041 -44.957  30.060  0.00  0.00    +0.000 C 
ATOM     16  C   UNL     1      -8.310 -44.371  31.368  0.00  0.00    +0.000 C 
ATOM     17  H   UNL     1      -8.709 -40.969  30.718  0.00  0.00    +0.000 HD
ENDROOT
BRANCH   1  18
ATOM     18  N   UNL     1     -13.090 -43.681  27.858  0.00  0.00    +0.000 N 
ATOM     19  C   UNL     1     -13.106 -43.164  26.538  0.00  0.00    +0.000 C 
ATOM     20  O   UNL     1     -12.229 -42.522  25.919  0.00  0.00    +0.000 OA
ATOM     21  C   UNL     1     -14.414 -43.500  25.900  0.00  0.00    +0.000 C 
ATOM     22  C   UNL     1     -15.363 -43.729  27.059  0.00  0.00    +0.000 C 
ATOM     23  C   UNL     1     -14.501 -43.626  28.234  0.00  0.00    +0.000 C 
ATOM     24  O   UNL     1     -14.909 -43.505  29.432  0.00  0.00    +0.000 OA
ATOM     25  C   UNL     1     -16.278 -42.550  26.933  0.00  0.00    +0.000 C 
ATOM     26  O   UNL     1     -16.381 -42.476  25.516  0.00  0.00    +0.000 OA
ATOM     27  C   UNL     1     -15.025 -42.275  25.251  0.00  0.00    +0.000 C 
ATOM     28  C   UNL     1     -14.784 -41.076  26.119  0.00  0.00    +0.000 C 
ATOM     29  C   UNL     1     -15.518 -41.318  27.210  0.00  0.00    +0.000 C 
ATOM     30  C   UNL     1     -14.682 -42.083  23.835  0.00  0.00    +0.000 C 
ENDBRANCH   1  18
BRANCH  12  31
ATOM     31  N   UNL     1     -12.909 -42.204  32.666  0.00  0.00    +0.000 N 
ATOM     32  O   UNL     1     -13.914 -42.382  32.024  0.00  0.00    +0.000 OA
ATOM     33  O   UNL     1     -12.821 -41.531  33.816  0.00  0.00    +0.000 OA
ENDBRANCH  12  31
BRANCH   7  34
ATOM     34  N   UNL     1      -8.501 -41.157  28.427  0.00  0.00    +0.000 NA
ATOM     35  O   UNL     1      -8.262 -41.256  27.284  0.00  0.00    +0.000 OA
ENDBRANCH   7  34
BRANCH   3  36
ATOM     36  C   UNL     1     -10.750 -45.824  30.989  0.00  0.00    +0.000 C 
ATOM     37  O   UNL     1      -9.876 -46.559  31.507  0.00  0.00    +0.000 OA
BRANCH  36  38
ATOM     38  O   UNL     1     -12.017 -45.881  31.589  0.00  0.00    +0.000 OA
ATOM     39  H   UNL     1     -12.836 -45.638  31.059  0.00  0.00    +0.000 HD
ENDBRANCH  36  38
ENDBRANCH   3  36
TORSDOF 5
ENDMDL
