MODEL 1
REMARK VINA RESULT:   -10.163      0.000      0.000
REMARK INTER + INTRA:         -11.316
REMARK INTER:                 -12.540
REMARK INTRA:                   1.224
REMARK UNBOUND:                 1.224
REMARK  Name = 
REMARK  5 active torsions:
REMARK  status: ('A' for Active; 'I' for Inactive)
REMARK    1  A    between atoms: C_17  and  C_18
REMARK    2  A    between atoms: C_18  and  C_29
REMARK    3  A    between atoms: C_29  and  O_31
REMARK    4  A    between atoms: O_31  and  C_32
REMARK    5  A    between atoms: C_32  and  C_33
REMARK                            x       y       z     vdW  Elec       q    Type
REMARK                         _______ _______ _______ _____ _____    ______ ____
ROOT
ATOM      1  S   UNL     1     -11.449 -42.752  31.449  0.00  0.00    +0.000 S 
ATOM      2  O   UNL     1     -12.222 -41.499  31.175  0.00  0.00    +0.000 OA
ATOM      3  O   UNL     1     -12.401 -43.699  32.135  0.00  0.00    +0.000 OA
ATOM      4  N   UNL     1     -10.720 -43.458  30.121  0.00  0.00    +0.000 NA
ATOM      5  C   UNL     1      -9.635 -42.756  29.522  0.00  0.00    +0.000 C 
ATOM      6  C   UNL     1      -8.435 -42.495  30.238  0.00  0.00    +0.000 C 
ATOM      7  O   UNL     1      -7.448 -42.169  29.497  0.00  0.00    +0.000 OA
ATOM      8  N   UNL     1      -8.092 -42.520  31.610  0.00  0.00    +0.000 N 
ATOM      9  C   UNL     1      -8.975 -42.296  32.698  0.00  0.00    +0.000 A 
ATOM     10  C   UNL     1     -10.324 -42.361  32.739  0.00  0.00    +0.000 A 
ATOM     11  C   UNL     1     -11.041 -42.103  33.923  0.00  0.00    +0.000 A 
ATOM     12  C   UNL     1     -10.331 -41.779  35.047  0.00  0.00    +0.000 A 
ATOM     13  C   UNL     1      -8.953 -41.701  35.054  0.00  0.00    +0.000 A 
ATOM     14  C   UNL     1      -8.291 -41.962  33.874  0.00  0.00    +0.000 A 
ATOM     15  C   UNL     1     -10.342 -41.567  28.901  0.00  0.00    +0.000 C 
ATOM     16  C   UNL     1     -11.670 -42.171  28.479  0.00  0.00    +0.000 C 
ATOM     17  C   UNL     1     -11.502 -43.598  28.942  0.00  0.00    +0.000 C 
ATOM     18  H   UNL     1      -7.106 -42.717  31.886  0.00  0.00    +0.000 HD
ENDROOT
BRANCH  17  19
ATOM     19  C   UNL     1     -12.686 -44.434  28.884  0.00  0.00    +0.000 C 
ATOM     20  S   UNL     1     -14.294 -43.667  29.013  0.00  0.00    +0.000 S 
ATOM     21  C   UNL     1     -14.816 -43.130  27.409  0.00  0.00    +0.000 A 
ATOM     22  C   UNL     1     -14.216 -43.659  26.282  0.00  0.00    +0.000 A 
ATOM     23  N   UNL     1     -13.190 -44.634  26.370  0.00  0.00    +0.000 N 
ATOM     24  C   UNL     1     -12.676 -45.163  27.582  0.00  0.00    +0.000 C 
ATOM     25  O   UNL     1     -12.187 -46.344  27.475  0.00  0.00    +0.000 OA
ATOM     26  C   UNL     1     -14.665 -43.198  25.050  0.00  0.00    +0.000 A 
ATOM     27  C   UNL     1     -15.654 -42.261  24.898  0.00  0.00    +0.000 A 
ATOM     28  C   UNL     1     -16.229 -41.756  26.046  0.00  0.00    +0.000 A 
ATOM     29  C   UNL     1     -15.805 -42.196  27.298  0.00  0.00    +0.000 A 
ATOM     30  H   UNL     1     -12.801 -44.970  25.436  0.00  0.00    +0.000 HD
BRANCH  19  31
ATOM     31  C   UNL     1     -12.504 -45.521  29.920  0.00  0.00    +0.000 C 
ATOM     32  O   UNL     1     -13.389 -45.930  30.673  0.00  0.00    +0.000 OA
BRANCH  31  33
ATOM     33  O   UNL     1     -11.234 -46.069  29.993  0.00  0.00    +0.000 OA
BRANCH  33  34
ATOM     34  C   UNL     1     -10.495 -46.202  31.170  0.00  0.00    +0.000 C 
ATOM     35  C   UNL     1      -9.009 -46.246  30.961  0.00  0.00    +0.000 C 
ENDBRANCH  33  34
ENDBRANCH  31  33
ENDBRANCH  19  31
ENDBRANCH  17  19
TORSDOF 4
ENDMDL
