MODEL 1
REMARK VINA RESULT:    -8.337      0.000      0.000
REMARK INTER + INTRA:         -12.191
REMARK INTER:                 -10.530
REMARK INTRA:                  -1.661
REMARK UNBOUND:                -1.661
REMARK  Name = 
REMARK  5 active torsions:
REMARK  status: ('A' for Active; 'I' for Inactive)
REMARK    1  A    between atoms: C_1  and  C_3
REMARK    2  A    between atoms: N_8  and  C_9
REMARK    3  A    between atoms: C_13  and  C_39
REMARK    4  A    between atoms: C_34  and  C_37
REMARK    5  A    between atoms: C_37  and  N_38
REMARK                            x       y       z     vdW  Elec       q    Type
REMARK                         _______ _______ _______ _____ _____    ______ ____
ROOT
ATOM      1  C   UNL     1     -23.908 -45.139  23.974  0.00  0.00    +0.000 C 
ATOM      2  C   UNL     1     -23.394 -44.182  25.031  0.00  0.00    +0.000 C 
ATOM      3  C   UNL     1     -22.016 -43.665  24.943  0.00  0.00    +0.000 C 
ATOM      4  N   UNL     1     -21.692 -42.319  24.797  0.00  0.00    +0.000 NA
ATOM      5  C   UNL     1     -21.924 -41.385  23.844  0.00  0.00    +0.000 C 
ATOM      6  N   UNL     1     -21.858 -41.714  22.393  0.00  0.00    +0.000 N 
ATOM      7  C   UNL     1     -22.196 -43.032  22.121  0.00  0.00    +0.000 C 
ATOM      8  O   UNL     1     -21.685 -44.118  21.666  0.00  0.00    +0.000 OA
ATOM      9  C   UNL     1     -23.662 -43.254  22.494  0.00  0.00    +0.000 C 
ATOM     10  C   UNL     1     -23.983 -44.687  22.574  0.00  0.00    +0.000 C 
ATOM     11  C   UNL     1     -25.204 -44.932  21.772  0.00  0.00    +0.000 C 
ATOM     12  C   UNL     1     -25.526 -43.930  20.695  0.00  0.00    +0.000 C 
ATOM     13  C   UNL     1     -24.540 -43.698  19.623  0.00  0.00    +0.000 C 
ATOM     14  C   UNL     1     -24.286 -42.239  19.236  0.00  0.00    +0.000 C 
ATOM     15  C   UNL     1     -22.871 -41.796  19.379  0.00  0.00    +0.000 C 
ATOM     16  C   UNL     1     -21.538 -40.736  21.383  0.00  0.00    +0.000 C 
ATOM     17  C   UNL     1     -22.651 -40.662  20.351  0.00  0.00    +0.000 C 
ATOM     18  N   UNL     1     -23.561 -39.850  19.998  0.00  0.00    +0.000 NA
ATOM     19  C   UNL     1     -24.064 -38.581  20.351  0.00  0.00    +0.000 C 
ATOM     20  C   UNL     1     -23.695 -37.710  21.293  0.00  0.00    +0.000 C 
ATOM     21  C   UNL     1     -22.670 -37.670  22.325  0.00  0.00    +0.000 C 
ATOM     22  C   UNL     1     -21.567 -38.396  22.445  0.00  0.00    +0.000 C 
ATOM     23  C   UNL     1     -20.916 -39.455  21.704  0.00  0.00    +0.000 C 
ATOM     24  C   UNL     1     -19.468 -39.531  22.122  0.00  0.00    +0.000 C 
ATOM     25  C   UNL     1     -18.853 -40.878  21.994  0.00  0.00    +0.000 C 
ATOM     26  C   UNL     1     -17.606 -41.059  22.804  0.00  0.00    +0.000 C 
ATOM     27  C   UNL     1     -17.809 -41.022  24.285  0.00  0.00    +0.000 C 
ATOM     28  C   UNL     1     -17.968 -42.343  24.950  0.00  0.00    +0.000 C 
ATOM     29  C   UNL     1     -20.416 -42.062  25.521  0.00  0.00    +0.000 C 
ATOM     30  C   UNL     1     -19.335 -42.921  24.975  0.00  0.00    +0.000 C 
ENDROOT
BRANCH   5  31
ATOM     31  C   UNL     1     -23.131 -40.604  24.200  0.00  0.00    +0.000 A 
ATOM     32  N   UNL     1     -24.314 -40.518  23.615  0.00  0.00    +0.000 NA
ATOM     33  C   UNL     1     -25.343 -39.779  24.022  0.00  0.00    +0.000 A 
ATOM     34  C   UNL     1     -25.246 -39.000  25.155  0.00  0.00    +0.000 A 
ATOM     35  C   UNL     1     -24.023 -39.046  25.817  0.00  0.00    +0.000 A 
ATOM     36  C   UNL     1     -22.987 -39.830  25.351  0.00  0.00    +0.000 A 
ENDBRANCH   5  31
BRANCH   1  39
ATOM     37  C   UNL     1     -23.914 -47.670  24.149  0.00  0.00    +0.000 C 
ATOM     38  O   UNL     1     -25.166 -47.673  24.080  0.00  0.00    +0.000 OA
ATOM     39  N   UNL     1     -23.225 -46.420  24.101  0.00  0.00    +0.000 N 
ATOM     40  H   UNL     1     -22.193 -46.444  24.160  0.00  0.00    +0.000 HD
BRANCH  37  41
ATOM     41  C   UNL     1     -23.211 -48.964  24.277  0.00  0.00    +0.000 C 
ATOM     42  C   UNL     1     -22.490 -49.365  23.008  0.00  0.00    +0.000 C 
ATOM     43  N   UNL     1     -22.463 -50.814  22.986  0.00  0.00    +0.000 NA
ATOM     44  C   UNL     1     -23.249 -51.293  24.080  0.00  0.00    +0.000 C 
ATOM     45  C   UNL     1     -24.159 -50.126  24.487  0.00  0.00    +0.000 C 
ATOM     46  H   UNL     1     -22.770 -51.214  22.073  0.00  0.00    +0.000 HD
ENDBRANCH  37  41
ENDBRANCH   1  39
BRANCH  26  47
ATOM     47  C   UNL     1     -16.561 -40.034  22.367  0.00  0.00    +0.000 C 
BRANCH  47  48
ATOM     48  N   UNL     1     -15.268 -40.643  22.430  0.00  0.00    +0.000 NA
ATOM     49  H   UNL     1     -15.137 -41.162  23.326  0.00  0.00    +0.000 HD
ATOM     50  H   UNL     1     -15.121 -41.247  21.592  0.00  0.00    +0.000 HD
ENDBRANCH  47  48
ENDBRANCH  26  47
TORSDOF 5
ENDMDL
