MODEL 1
REMARK VINA RESULT:    -9.404      0.000      0.000
REMARK INTER + INTRA:         -17.005
REMARK INTER:                 -16.276
REMARK INTRA:                  -0.729
REMARK UNBOUND:                -0.729
REMARK  Name = 
REMARK  16 active torsions:
REMARK  status: ('A' for Active; 'I' for Inactive)
REMARK    1  A    between atoms: N_1  and  C_2
REMARK    2  A    between atoms: C_2  and  C_3
REMARK    3  A    between atoms: C_2  and  C_8
REMARK    4  A    between atoms: C_8  and  N_9
REMARK    5  A    between atoms: C_12  and  C_15
REMARK    6  A    between atoms: C_15  and  C_16
REMARK    7  A    between atoms: C_17  and  O_35
REMARK    8  A    between atoms: C_18  and  C_26
REMARK    9  A    between atoms: C_20  and  O_24
REMARK   10  A    between atoms: C_21  and  O_22
REMARK   11  A    between atoms: O_22  and  C_23
REMARK   12  A    between atoms: O_24  and  C_25
REMARK   13  A    between atoms: C_26  and  N_27
REMARK   14  A    between atoms: N_27  and  C_28
REMARK   15  A    between atoms: C_28  and  C_29
REMARK   16  A    between atoms: O_35  and  C_36
REMARK                            x       y       z     vdW  Elec       q    Type
REMARK                         _______ _______ _______ _____ _____    ______ ____
ROOT
ATOM      1  C   UNL     1     -16.109 -42.105  26.482  0.00  0.00    +0.000 A 
ATOM      2  C   UNL     1     -16.241 -42.296  25.114  0.00  0.00    +0.000 A 
ATOM      3  C   UNL     1     -17.490 -42.112  24.473  0.00  0.00    +0.000 A 
ATOM      4  C   UNL     1     -18.554 -41.739  25.237  0.00  0.00    +0.000 A 
ATOM      5  C   UNL     1     -18.443 -41.543  26.596  0.00  0.00    +0.000 A 
ATOM      6  C   UNL     1     -17.198 -41.736  27.196  0.00  0.00    +0.000 A 
ENDROOT
BRANCH   6   7
ATOM      7  O   UNL     1     -17.138 -41.535  28.603  0.00  0.00    +0.000 OA
ATOM      8  C   UNL     1     -17.526 -42.588  29.473  0.00  0.00    +0.000 C 
ENDBRANCH   6   7
BRANCH   5   9
ATOM      9  O   UNL     1     -19.475 -41.163  27.428  0.00  0.00    +0.000 OA
ATOM     10  C   UNL     1     -20.673 -40.662  26.879  0.00  0.00    +0.000 C 
ENDBRANCH   5   9
BRANCH   2  11
ATOM     11  O   UNL     1     -15.141 -42.681  24.309  0.00  0.00    +0.000 OA
ATOM     12  C   UNL     1     -14.323 -41.592  23.887  0.00  0.00    +0.000 C 
ENDBRANCH   2  11
BRANCH   1  13
ATOM     13  C   UNL     1     -14.753 -42.341  27.008  0.00  0.00    +0.000 C 
BRANCH  13  17
ATOM     14  N   UNL     1     -12.200 -44.914  28.848  0.00  0.00    +0.000 NA
ATOM     15  C   UNL     1     -12.592 -45.394  27.601  0.00  0.00    +0.000 C 
ATOM     16  C   UNL     1     -13.419 -44.430  26.805  0.00  0.00    +0.000 C 
ATOM     17  C   UNL     1     -14.501 -43.715  27.557  0.00  0.00    +0.000 C 
ATOM     18  C   UNL     1     -14.327 -43.777  29.030  0.00  0.00    +0.000 C 
ATOM     19  C   UNL     1     -12.831 -43.790  29.394  0.00  0.00    +0.000 C 
BRANCH  14  20
ATOM     20  C   UNL     1     -11.077 -45.438  29.499  0.00  0.00    +0.000 C 
BRANCH  20  21
ATOM     21  C   UNL     1     -10.468 -44.578  30.517  0.00  0.00    +0.000 A 
ATOM     22  S   UNL     1      -9.347 -43.222  30.039  0.00  0.00    +0.000 S 
ATOM     23  C   UNL     1      -9.024 -42.659  31.733  0.00  0.00    +0.000 A 
ATOM     24  C   UNL     1      -9.775 -43.527  32.484  0.00  0.00    +0.000 A 
ATOM     25  C   UNL     1     -10.481 -44.470  31.861  0.00  0.00    +0.000 A 
ENDBRANCH  20  21
BRANCH  20  26
ATOM     26  C   UNL     1     -10.137 -46.140  28.579  0.00  0.00    +0.000 C 
BRANCH  26  27
ATOM     27  N   UNL     1      -9.050 -46.767  29.330  0.00  0.00    +0.000 NA
ATOM     28  H   UNL     1      -8.757 -46.067  30.061  0.00  0.00    +0.000 HD
ATOM     29  H   UNL     1      -9.402 -47.647  29.734  0.00  0.00    +0.000 HD
ENDBRANCH  26  27
ENDBRANCH  20  26
ENDBRANCH  14  20
ENDBRANCH  13  17
ENDBRANCH   1  13
BRANCH   3  30
ATOM     30  C   UNL     1     -17.529 -42.386  23.077  0.00  0.00    +0.000 C 
BRANCH  30  31
ATOM     31  N   UNL     1     -18.582 -41.928  22.219  0.00  0.00    +0.000 NA
ATOM     32  H   UNL     1     -18.610 -42.316  21.274  0.00  0.00    +0.000 HD
BRANCH  31  33
ATOM     33  C   UNL     1     -18.313 -40.472  22.151  0.00  0.00    +0.000 C 
BRANCH  33  34
ATOM     34  C   UNL     1     -19.378 -39.637  21.653  0.00  0.00    +0.000 A 
ATOM     35  C   UNL     1     -19.189 -39.198  20.325  0.00  0.00    +0.000 A 
ATOM     36  N   UNL     1     -19.998 -38.293  19.790  0.00  0.00    +0.000 NA
ATOM     37  C   UNL     1     -21.013 -37.799  20.541  0.00  0.00    +0.000 A 
ATOM     38  C   UNL     1     -21.237 -38.200  21.830  0.00  0.00    +0.000 A 
ATOM     39  C   UNL     1     -20.404 -39.140  22.396  0.00  0.00    +0.000 A 
ENDBRANCH  33  34
ENDBRANCH  31  33
ENDBRANCH  30  31
ENDBRANCH   3  30
TORSDOF 13
ENDMDL
