MODEL 1
REMARK VINA RESULT:   -12.467      0.000      0.000
REMARK INTER + INTRA:         -14.798
REMARK INTER:                 -14.290
REMARK INTRA:                  -0.509
REMARK UNBOUND:                -0.509
REMARK  Name = 
REMARK  5 active torsions:
REMARK  status: ('A' for Active; 'I' for Inactive)
REMARK    1  A    between atoms: C_1  and  C_16
REMARK    2  A    between atoms: C_5  and  N_6
REMARK    3  A    between atoms: C_13  and  C_15
REMARK    4  A    between atoms: C_16  and  C_18
REMARK    5  A    between atoms: C_21  and  C_24
REMARK                            x       y       z     vdW  Elec       q    Type
REMARK                         _______ _______ _______ _____ _____    ______ ____
ROOT
ATOM      1  C   UNL     1     -12.925 -44.689  29.692  0.00  0.00    +0.000 A 
ATOM      2  S   UNL     1     -12.237 -45.069  28.063  0.00  0.00    +0.000 S 
ATOM      3  C   UNL     1     -13.527 -44.191  27.146  0.00  0.00    +0.000 A 
ATOM      4  C   UNL     1     -14.325 -43.712  28.126  0.00  0.00    +0.000 A 
ATOM      5  C   UNL     1     -14.047 -43.945  29.417  0.00  0.00    +0.000 A 
ATOM      6  C   UNL     1     -15.435 -42.969  27.620  0.00  0.00    +0.000 A 
ATOM      7  C   UNL     1     -15.569 -42.827  26.261  0.00  0.00    +0.000 A 
ATOM      8  C   UNL     1     -14.697 -43.355  25.332  0.00  0.00    +0.000 A 
ATOM      9  N   UNL     1     -13.667 -44.047  25.829  0.00  0.00    +0.000 NA
ATOM     10  C   UNL     1     -14.845 -43.205  23.976  0.00  0.00    +0.000 A 
ATOM     11  C   UNL     1     -15.926 -42.484  23.516  0.00  0.00    +0.000 A 
ATOM     12  C   UNL     1     -16.829 -41.930  24.399  0.00  0.00    +0.000 A 
ATOM     13  C   UNL     1     -16.647 -42.103  25.738  0.00  0.00    +0.000 A 
ATOM     14  C   UNL     1     -17.995 -41.150  23.852  0.00  0.00    +0.000 C 
ENDROOT
BRANCH   5  15
ATOM     15  N   UNL     1     -14.843 -43.474  30.552  0.00  0.00    +0.000 N 
ATOM     16  H   UNL     1     -15.079 -42.458  30.502  0.00  0.00    +0.000 HD
ATOM     17  H   UNL     1     -15.123 -44.110  31.307  0.00  0.00    +0.000 HD
ENDBRANCH   5  15
BRANCH   1  18
ATOM     18  C   UNL     1     -12.373 -45.129  30.980  0.00  0.00    +0.000 C 
ATOM     19  O   UNL     1     -13.132 -45.544  31.897  0.00  0.00    +0.000 OA
BRANCH  18  20
ATOM     20  C   UNL     1     -10.951 -45.117  31.269  0.00  0.00    +0.000 A 
ATOM     21  C   UNL     1     -10.362 -44.021  31.900  0.00  0.00    +0.000 A 
ATOM     22  C   UNL     1      -9.016 -43.967  32.171  0.00  0.00    +0.000 A 
ATOM     23  C   UNL     1      -8.230 -45.037  31.802  0.00  0.00    +0.000 A 
ATOM     24  C   UNL     1      -8.741 -46.149  31.177  0.00  0.00    +0.000 A 
ATOM     25  C   UNL     1     -10.117 -46.149  30.926  0.00  0.00    +0.000 A 
ATOM     26  C   UNL     1      -6.783 -44.973  32.096  0.00  0.00    +0.000 C 
ENDBRANCH  18  20
ENDBRANCH   1  18
TORSDOF 3
ENDMDL
