MODEL 1
REMARK VINA RESULT:    -8.453      0.000      0.000
REMARK INTER + INTRA:         -11.660
REMARK INTER:                 -10.924
REMARK INTRA:                  -0.736
REMARK UNBOUND:                -0.736
REMARK  Name = 
REMARK  9 active torsions:
REMARK  status: ('A' for Active; 'I' for Inactive)
REMARK    1  A    between atoms: N_1  and  C_2
REMARK    2  A    between atoms: C_3  and  C_9
REMARK    3  A    between atoms: C_5  and  C_8
REMARK    4  A    between atoms: C_12  and  O_30
REMARK    5  A    between atoms: C_13  and  O_28
REMARK    6  A    between atoms: C_17  and  O_18
REMARK    7  A    between atoms: O_18  and  C_19
REMARK    8  A    between atoms: O_28  and  C_29
REMARK    9  A    between atoms: O_30  and  C_31
REMARK                            x       y       z     vdW  Elec       q    Type
REMARK                         _______ _______ _______ _____ _____    ______ ____
ROOT
ATOM      1  N   UNL     1     -20.048 -41.214  23.396  0.00  0.00    +0.000 N 
ATOM      2  N   UNL     1     -20.253 -40.660  22.003  0.00  0.00    +0.000 N 
ATOM      3  C   UNL     1     -21.305 -41.197  22.592  0.00  0.00    +0.000 C 
ATOM      4  C   UNL     1     -22.362 -40.687  23.481  0.00  0.00    +0.000 C 
ATOM      5  C   UNL     1     -23.257 -39.769  23.457  0.00  0.00    +0.000 C 
ATOM      6  C   UNL     1     -23.721 -38.730  22.562  0.00  0.00    +0.000 C 
ATOM      7  C   UNL     1     -23.183 -37.693  21.986  0.00  0.00    +0.000 C 
ATOM      8  C   UNL     1     -23.675 -37.173  20.617  0.00  0.00    +0.000 C 
ATOM      9  C   UNL     1     -25.218 -39.095  22.333  0.00  0.00    +0.000 C 
ATOM     10  N   UNL     1     -25.143 -39.787  21.077  0.00  0.00    +0.000 NA
ATOM     11  C   UNL     1     -25.261 -38.945  19.907  0.00  0.00    +0.000 C 
ATOM     12  C   UNL     1     -24.033 -38.063  19.714  0.00  0.00    +0.000 C 
ATOM     13  O   UNL     1     -23.489 -38.418  18.521  0.00  0.00    +0.000 OA
ATOM     14  C   UNL     1     -22.480 -37.930  17.723  0.00  0.00    +0.000 C 
ATOM     15  C   UNL     1     -21.377 -37.319  18.107  0.00  0.00    +0.000 C 
ATOM     16  C   UNL     1     -20.891 -36.984  19.416  0.00  0.00    +0.000 C 
ATOM     17  C   UNL     1     -19.613 -40.087  20.904  0.00  0.00    +0.000 C 
ATOM     18  C   UNL     1     -19.554 -38.970  20.259  0.00  0.00    +0.000 C 
ATOM     19  C   UNL     1     -20.141 -37.663  20.302  0.00  0.00    +0.000 C 
ATOM     20  H   UNL     1     -25.709 -40.635  20.997  0.00  0.00    +0.000 HD
ENDROOT
BRANCH   1  21
ATOM     21  C   UNL     1     -19.226 -41.448  24.517  0.00  0.00    +0.000 A 
ATOM     22  C   UNL     1     -17.920 -41.887  24.408  0.00  0.00    +0.000 A 
ATOM     23  C   UNL     1     -17.126 -42.074  25.550  0.00  0.00    +0.000 A 
ATOM     24  C   UNL     1     -17.647 -41.819  26.798  0.00  0.00    +0.000 A 
ATOM     25  C   UNL     1     -18.945 -41.382  26.917  0.00  0.00    +0.000 A 
ATOM     26  C   UNL     1     -19.697 -41.207  25.798  0.00  0.00    +0.000 A 
ATOM     27  C   UNL     1     -16.871 -41.991  28.054  0.00  0.00    +0.000 C 
BRANCH  22  28
ATOM     28  C   UNL     1     -17.321 -42.230  23.147  0.00  0.00    +0.000 C 
ATOM     29  O   UNL     1     -16.325 -41.564  22.739  0.00  0.00    +0.000 OA
ENDBRANCH  22  28
ENDBRANCH   1  21
BRANCH   8  30
ATOM     30  O   UNL     1     -23.674 -35.770  20.528  0.00  0.00    +0.000 OA
ATOM     31  C   UNL     1     -24.323 -35.101  19.463  0.00  0.00    +0.000 C 
ENDBRANCH   8  30
BRANCH   4  32
ATOM     32  O   UNL     1     -22.329 -41.476  24.702  0.00  0.00    +0.000 OA
ATOM     33  C   UNL     1     -23.477 -42.033  25.247  0.00  0.00    +0.000 C 
ENDBRANCH   4  32
BRANCH   3  34
ATOM     34  O   UNL     1     -21.586 -42.604  22.263  0.00  0.00    +0.000 OA
ATOM     35  C   UNL     1     -22.486 -42.790  21.296  0.00  0.00    +0.000 C 
ENDBRANCH   3  34
TORSDOF 5
ENDMDL
