MODEL 1
REMARK VINA RESULT:   -11.170      0.000      0.000
REMARK INTER + INTRA:         -16.917
REMARK INTER:                 -15.741
REMARK INTRA:                  -1.176
REMARK UNBOUND:                -1.176
REMARK  Name = 
REMARK  8 active torsions:
REMARK  status: ('A' for Active; 'I' for Inactive)
REMARK    1  A    between atoms: C_2  and  C_13
REMARK    2  A    between atoms: N_3  and  C_10
REMARK    3  A    between atoms: C_10  and  C_11
REMARK    4  A    between atoms: C_11  and  C_12
REMARK    5  A    between atoms: C_13  and  O_14
REMARK    6  A    between atoms: O_14  and  C_15
REMARK    7  A    between atoms: C_15  and  N_16
REMARK    8  A    between atoms: C_17  and  C_30
REMARK                            x       y       z     vdW  Elec       q    Type
REMARK                         _______ _______ _______ _____ _____    ______ ____
ROOT
ATOM      1  N   UNL     1     -11.862 -44.198  28.691  0.00  0.00    +0.000 N 
ATOM      2  C   UNL     1     -11.846 -44.970  29.926  0.00  0.00    +0.000 C 
ATOM      3  C   UNL     1     -10.439 -45.418  30.139  0.00  0.00    +0.000 C 
ATOM      4  C   UNL     1      -9.377 -44.383  30.098  0.00  0.00    +0.000 C 
ATOM      5  C   UNL     1      -9.670 -43.257  29.227  0.00  0.00    +0.000 A 
ATOM      6  C   UNL     1     -10.901 -43.160  28.561  0.00  0.00    +0.000 A 
ATOM      7  C   UNL     1     -11.202 -42.081  27.766  0.00  0.00    +0.000 A 
ATOM      8  C   UNL     1     -10.275 -41.055  27.606  0.00  0.00    +0.000 A 
ATOM      9  C   UNL     1      -9.069 -41.131  28.245  0.00  0.00    +0.000 A 
ATOM     10  C   UNL     1      -8.788 -42.220  29.037  0.00  0.00    +0.000 A 
ATOM     11  O   UNL     1      -8.189 -45.024  29.715  0.00  0.00    +0.000 OA
ATOM     12  C   UNL     1      -7.905 -46.032  30.584  0.00  0.00    +0.000 C 
ATOM     13  C   UNL     1      -8.806 -46.190  31.759  0.00  0.00    +0.000 C 
ATOM     14  C   UNL     1     -10.269 -46.273  31.386  0.00  0.00    +0.000 C 
ENDROOT
BRANCH   2  15
ATOM     15  C   UNL     1     -12.529 -44.367  31.058  0.00  0.00    +0.000 A 
ATOM     16  C   UNL     1     -13.550 -45.067  31.725  0.00  0.00    +0.000 A 
ATOM     17  C   UNL     1     -14.240 -44.554  32.795  0.00  0.00    +0.000 A 
ATOM     18  C   UNL     1     -13.913 -43.285  33.235  0.00  0.00    +0.000 A 
ATOM     19  C   UNL     1     -12.927 -42.550  32.627  0.00  0.00    +0.000 A 
ATOM     20  C   UNL     1     -12.258 -43.110  31.552  0.00  0.00    +0.000 A 
ATOM     21  F   UNL     1     -14.567 -42.749  34.282  0.00  0.00    +0.000 F 
ENDBRANCH   2  15
BRANCH   1  22
ATOM     22  C   UNL     1     -12.816 -44.510  27.671  0.00  0.00    +0.000 C 
BRANCH  22  23
ATOM     23  O   UNL     1     -14.017 -43.870  27.720  0.00  0.00    +0.000 OA
BRANCH  23  24
ATOM     24  C   UNL     1     -14.214 -43.085  26.620  0.00  0.00    +0.000 C 
BRANCH  24  26
ATOM     25  N   UNL     1     -16.446 -42.279  27.558  0.00  0.00    +0.000 NA
ATOM     26  C   UNL     1     -15.624 -42.564  26.539  0.00  0.00    +0.000 A 
ATOM     27  N   UNL     1     -16.252 -42.313  25.396  0.00  0.00    +0.000 N 
ATOM     28  C   UNL     1     -17.492 -41.861  25.695  0.00  0.00    +0.000 A 
ATOM     29  C   UNL     1     -17.601 -41.846  27.065  0.00  0.00    +0.000 A 
ATOM     30  C   UNL     1     -18.770 -41.426  27.658  0.00  0.00    +0.000 A 
ATOM     31  C   UNL     1     -19.814 -41.028  26.852  0.00  0.00    +0.000 A 
ATOM     32  C   UNL     1     -19.745 -41.029  25.478  0.00  0.00    +0.000 A 
ATOM     33  C   UNL     1     -18.561 -41.455  24.919  0.00  0.00    +0.000 A 
BRANCH  27  34
ATOM     34  C   UNL     1     -15.773 -42.465  24.060  0.00  0.00    +0.000 C 
BRANCH  34  35
ATOM     35  C   UNL     1     -15.121 -41.177  23.543  0.00  0.00    +0.000 C 
ATOM     36  C   UNL     1     -15.942 -40.607  22.412  0.00  0.00    +0.000 C 
ENDBRANCH  34  35
ENDBRANCH  27  34
ENDBRANCH  24  26
ENDBRANCH  23  24
ENDBRANCH  22  23
ENDBRANCH   1  22
TORSDOF 7
ENDMDL
