MODEL 1
REMARK VINA RESULT:    -8.426      0.000      0.000
REMARK INTER + INTRA:         -13.068
REMARK INTER:                 -12.613
REMARK INTRA:                  -0.455
REMARK UNBOUND:                -0.455
REMARK  Name = 
REMARK  12 active torsions:
REMARK  status: ('A' for Active; 'I' for Inactive)
REMARK    1  A    between atoms: N_1  and  C_21
REMARK    2  A    between atoms: C_6  and  C_7
REMARK    3  A    between atoms: C_9  and  O_17
REMARK    4  A    between atoms: C_10  and  O_15
REMARK    5  A    between atoms: C_11  and  O_13
REMARK    6  A    between atoms: O_13  and  C_14
REMARK    7  A    between atoms: O_15  and  C_16
REMARK    8  A    between atoms: O_17  and  C_18
REMARK    9  A    between atoms: C_21  and  C_22
REMARK   10  A    between atoms: C_22  and  C_23
REMARK   11  A    between atoms: C_23  and  C_24
REMARK   12  A    between atoms: C_24  and  O_26
REMARK                            x       y       z     vdW  Elec       q    Type
REMARK                         _______ _______ _______ _____ _____    ______ ____
ROOT
ATOM      1  N   UNL     1     -17.514 -42.163  25.113  0.00  0.00    +0.000 N 
ATOM      2  C   UNL     1     -17.737 -41.920  26.486  0.00  0.00    +0.000 C 
ATOM      3  S   UNL     1     -19.077 -41.398  27.220  0.00  0.00    +0.000 S 
ATOM      4  S   UNL     1     -16.226 -42.308  27.335  0.00  0.00    +0.000 S 
ATOM      5  C   UNL     1     -15.303 -42.778  25.884  0.00  0.00    +0.000 C 
ATOM      6  C   UNL     1     -14.055 -43.176  25.870  0.00  0.00    +0.000 C 
ATOM      7  C   UNL     1     -16.233 -42.618  24.772  0.00  0.00    +0.000 C 
ATOM      8  O   UNL     1     -15.827 -42.897  23.575  0.00  0.00    +0.000 OA
ENDROOT
BRANCH   6   9
ATOM      9  C   UNL     1     -13.308 -43.265  27.105  0.00  0.00    +0.000 A 
ATOM     10  C   UNL     1     -13.521 -44.190  28.090  0.00  0.00    +0.000 A 
ATOM     11  C   UNL     1     -12.759 -44.171  29.221  0.00  0.00    +0.000 A 
ATOM     12  C   UNL     1     -11.758 -43.217  29.393  0.00  0.00    +0.000 A 
ATOM     13  C   UNL     1     -11.532 -42.279  28.410  0.00  0.00    +0.000 A 
ATOM     14  C   UNL     1     -12.299 -42.305  27.280  0.00  0.00    +0.000 A 
BRANCH  13  15
ATOM     15  O   UNL     1     -10.518 -41.320  28.594  0.00  0.00    +0.000 OA
ATOM     16  C   UNL     1      -9.240 -41.518  28.020  0.00  0.00    +0.000 C 
ENDBRANCH  13  15
BRANCH  12  17
ATOM     17  O   UNL     1     -10.975 -43.200  30.558  0.00  0.00    +0.000 OA
ATOM     18  C   UNL     1     -11.287 -42.276  31.579  0.00  0.00    +0.000 C 
ENDBRANCH  12  17
BRANCH  11  19
ATOM     19  O   UNL     1     -12.949 -45.105  30.251  0.00  0.00    +0.000 OA
ATOM     20  C   UNL     1     -13.923 -44.800  31.224  0.00  0.00    +0.000 C 
ENDBRANCH  11  19
ENDBRANCH   6   9
BRANCH   1  21
ATOM     21  C   UNL     1     -18.517 -41.983  24.055  0.00  0.00    +0.000 C 
BRANCH  21  22
ATOM     22  C   UNL     1     -18.733 -40.617  23.587  0.00  0.00    +0.000 C 
BRANCH  22  23
ATOM     23  C   UNL     1     -17.966 -40.272  22.329  0.00  0.00    +0.000 C 
BRANCH  23  24
ATOM     24  C   UNL     1     -18.815 -39.451  21.400  0.00  0.00    +0.000 C 
ATOM     25  O   UNL     1     -19.646 -38.676  21.926  0.00  0.00    +0.000 OA
BRANCH  24  26
ATOM     26  O   UNL     1     -18.695 -39.535  20.034  0.00  0.00    +0.000 OA
ATOM     27  H   UNL     1     -19.226 -40.216  19.491  0.00  0.00    +0.000 HD
ENDBRANCH  24  26
ENDBRANCH  23  24
ENDBRANCH  22  23
ENDBRANCH  21  22
ENDBRANCH   1  21
TORSDOF 9
ENDMDL
