MODEL 1
REMARK VINA RESULT:    -9.910      0.000      0.000
REMARK INTER + INTRA:         -16.979
REMARK INTER:                 -15.414
REMARK INTRA:                  -1.566
REMARK UNBOUND:                -1.566
REMARK  Name = 
REMARK  14 active torsions:
REMARK  status: ('A' for Active; 'I' for Inactive)
REMARK    1  A    between atoms: C_1  and  C_2
REMARK    2  A    between atoms: C_2  and  C_3
REMARK    3  A    between atoms: C_4  and  O_11
REMARK    4  A    between atoms: C_7  and  C_9
REMARK    5  A    between atoms: O_11  and  C_12
REMARK    6  A    between atoms: C_13  and  C_18
REMARK    7  A    between atoms: C_16  and  C_17
REMARK    8  A    between atoms: C_18  and  C_19
REMARK    9  A    between atoms: C_20  and  C_25
REMARK   10  A    between atoms: C_23  and  N_24
REMARK   11  A    between atoms: C_27  and  O_33
REMARK   12  A    between atoms: C_28  and  O_31
REMARK   13  A    between atoms: O_31  and  C_32
REMARK   14  A    between atoms: O_33  and  C_34
REMARK                            x       y       z     vdW  Elec       q    Type
REMARK                         _______ _______ _______ _____ _____    ______ ____
ROOT
ATOM      1  C   UNL     1      -9.110 -43.701  31.899  0.00  0.00    +0.000 C 
ENDROOT
BRANCH   1   3
ATOM      2  C   UNL     1      -9.892 -42.601  29.656  0.00  0.00    +0.000 A 
ATOM      3  C   UNL     1      -8.939 -42.969  30.616  0.00  0.00    +0.000 A 
ATOM      4  N   UNL     1      -7.763 -42.522  30.133  0.00  0.00    +0.000 N 
ATOM      5  N   UNL     1      -7.936 -41.926  28.978  0.00  0.00    +0.000 NA
ATOM      6  C   UNL     1      -9.259 -41.948  28.629  0.00  0.00    +0.000 A 
ATOM      7  C   UNL     1      -9.776 -41.359  27.367  0.00  0.00    +0.000 C 
ATOM      8  H   UNL     1      -6.831 -42.619  30.590  0.00  0.00    +0.000 HD
BRANCH   2   9
ATOM      9  C   UNL     1     -11.317 -42.902  29.802  0.00  0.00    +0.000 C 
BRANCH   9  10
ATOM     10  C   UNL     1     -11.956 -43.682  28.744  0.00  0.00    +0.000 A 
ATOM     11  C   UNL     1     -11.711 -45.033  28.637  0.00  0.00    +0.000 A 
ATOM     12  C   UNL     1     -12.326 -45.718  27.614  0.00  0.00    +0.000 A 
ATOM     13  C   UNL     1     -13.164 -45.105  26.708  0.00  0.00    +0.000 A 
ATOM     14  C   UNL     1     -13.423 -43.756  26.796  0.00  0.00    +0.000 A 
ATOM     15  C   UNL     1     -12.802 -43.066  27.828  0.00  0.00    +0.000 A 
BRANCH  14  16
ATOM     16  C   UNL     1     -14.307 -43.086  25.851  0.00  0.00    +0.000 C 
ATOM     17  O   UNL     1     -14.310 -43.519  24.658  0.00  0.00    +0.000 OA
ENDBRANCH  14  16
BRANCH  11  18
ATOM     18  O   UNL     1     -10.860 -45.691  29.544  0.00  0.00    +0.000 OA
ATOM     19  C   UNL     1      -9.639 -46.253  29.144  0.00  0.00    +0.000 C 
ENDBRANCH  11  18
ENDBRANCH   9  10
ENDBRANCH   2   9
ENDBRANCH   1   3
BRANCH   1  20
ATOM     20  C   UNL     1      -8.856 -42.855  33.080  0.00  0.00    +0.000 A 
ATOM     21  C   UNL     1      -9.779 -42.170  33.833  0.00  0.00    +0.000 A 
ATOM     22  N   UNL     1      -9.082 -41.515  34.821  0.00  0.00    +0.000 NA
ATOM     23  N   UNL     1      -7.811 -41.780  34.683  0.00  0.00    +0.000 N 
ATOM     24  C   UNL     1      -7.605 -42.594  33.637  0.00  0.00    +0.000 A 
ATOM     25  H   UNL     1      -7.065 -41.401  35.314  0.00  0.00    +0.000 HD
BRANCH  21  26
ATOM     26  C   UNL     1     -11.229 -42.126  33.682  0.00  0.00    +0.000 A 
ATOM     27  C   UNL     1     -11.926 -42.923  32.816  0.00  0.00    +0.000 A 
ATOM     28  C   UNL     1     -13.332 -42.820  32.745  0.00  0.00    +0.000 A 
ATOM     29  C   UNL     1     -14.029 -41.936  33.526  0.00  0.00    +0.000 A 
ATOM     30  C   UNL     1     -13.337 -41.132  34.397  0.00  0.00    +0.000 A 
ATOM     31  C   UNL     1     -11.944 -41.240  34.461  0.00  0.00    +0.000 A 
BRANCH  29  32
ATOM     32  O   UNL     1     -15.429 -41.869  33.417  0.00  0.00    +0.000 OA
ATOM     33  C   UNL     1     -16.117 -40.777  32.884  0.00  0.00    +0.000 C 
ENDBRANCH  29  32
BRANCH  28  34
ATOM     34  O   UNL     1     -14.011 -43.628  31.872  0.00  0.00    +0.000 OA
ATOM     35  C   UNL     1     -13.872 -45.007  31.709  0.00  0.00    +0.000 C 
ENDBRANCH  28  34
ENDBRANCH  21  26
BRANCH  24  36
ATOM     36  N   UNL     1      -6.364 -43.098  33.159  0.00  0.00    +0.000 N 
ATOM     37  H   UNL     1      -5.489 -42.558  33.269  0.00  0.00    +0.000 HD
ATOM     38  H   UNL     1      -6.350 -44.025  32.693  0.00  0.00    +0.000 HD
ENDBRANCH  24  36
ENDBRANCH   1  20
TORSDOF 10
ENDMDL
