MODEL 1
REMARK VINA RESULT:    -7.579      0.000      0.000
REMARK INTER + INTRA:         -12.195
REMARK INTER:                 -11.124
REMARK INTRA:                  -1.072
REMARK UNBOUND:                -1.072
REMARK  Name = 
REMARK  11 active torsions:
REMARK  status: ('A' for Active; 'I' for Inactive)
REMARK    1  A    between atoms: C_4  and  O_31
REMARK    2  A    between atoms: C_5  and  C_26
REMARK    3  A    between atoms: C_6  and  C_25
REMARK    4  A    between atoms: C_16  and  O_17
REMARK    5  A    between atoms: O_17  and  C_18
REMARK    6  A    between atoms: C_18  and  C_19
REMARK    7  A    between atoms: C_26  and  C_27
REMARK    8  A    between atoms: C_27  and  C_28
REMARK    9  A    between atoms: C_28  and  O_30
REMARK   10  A    between atoms: C_35  and  O_36
REMARK   11  A    between atoms: O_36  and  C_37
REMARK                            x       y       z     vdW  Elec       q    Type
REMARK                         _______ _______ _______ _____ _____    ______ ____
ROOT
ATOM      1  N   UNL     1     -18.657 -40.381  23.335  0.00  0.00    +0.000 NA
ATOM      2  C   UNL     1     -18.323 -41.021  24.546  0.00  0.00    +0.000 A 
ATOM      3  C   UNL     1     -19.116 -41.090  25.653  0.00  0.00    +0.000 A 
ATOM      4  C   UNL     1     -20.409 -40.471  25.881  0.00  0.00    +0.000 C 
ATOM      5  C   UNL     1     -21.409 -40.132  25.100  0.00  0.00    +0.000 C 
ATOM      6  C   UNL     1     -21.634 -40.242  23.602  0.00  0.00    +0.000 C 
ATOM      7  S   UNL     1     -20.072 -39.887  22.605  0.00  0.00    +0.000 S 
ATOM      8  C   UNL     1     -20.322 -40.105  20.775  0.00  0.00    +0.000 C 
ATOM      9  C   UNL     1     -20.697 -41.276  20.211  0.00  0.00    +0.000 C 
ATOM     10  C   UNL     1     -22.117 -41.792  20.026  0.00  0.00    +0.000 C 
ATOM     11  C   UNL     1     -23.084 -41.157  19.385  0.00  0.00    +0.000 C 
ATOM     12  C   UNL     1     -20.188 -38.827  20.009  0.00  0.00    +0.000 C 
ATOM     13  N   UNL     1     -21.398 -38.427  19.484  0.00  0.00    +0.000 NA
ATOM     14  C   UNL     1     -22.246 -38.927  18.507  0.00  0.00    +0.000 C 
ATOM     15  C   UNL     1     -23.440 -39.696  19.171  0.00  0.00    +0.000 C 
ATOM     16  C   UNL     1     -24.452 -39.086  19.779  0.00  0.00    +0.000 C 
ATOM     17  C   UNL     1     -25.261 -39.795  20.850  0.00  0.00    +0.000 C 
ATOM     18  C   UNL     1     -24.930 -39.769  22.187  0.00  0.00    +0.000 C 
ATOM     19  C   UNL     1     -23.829 -39.099  22.837  0.00  0.00    +0.000 C 
ATOM     20  C   UNL     1     -22.685 -39.244  23.327  0.00  0.00    +0.000 C 
ATOM     21  C   UNL     1     -22.032 -41.620  23.282  0.00  0.00    +0.000 C 
ATOM     22  C   UNL     1     -18.688 -41.824  26.754  0.00  0.00    +0.000 A 
ATOM     23  C   UNL     1     -17.485 -42.470  26.726  0.00  0.00    +0.000 A 
ATOM     24  C   UNL     1     -16.669 -42.410  25.614  0.00  0.00    +0.000 A 
ATOM     25  C   UNL     1     -17.099 -41.677  24.521  0.00  0.00    +0.000 A 
ATOM     26  H   UNL     1     -21.467 -37.390  19.540  0.00  0.00    +0.000 HD
ENDROOT
BRANCH   4  27
ATOM     27  O   UNL     1     -20.597 -40.188  27.273  0.00  0.00    +0.000 OA
ATOM     28  H   UNL     1     -20.471 -40.847  27.992  0.00  0.00    +0.000 HD
ENDBRANCH   4  27
BRANCH  25  29
ATOM     29  O   UNL     1     -16.313 -41.579  23.382  0.00  0.00    +0.000 OA
ATOM     30  C   UNL     1     -15.020 -41.069  23.325  0.00  0.00    +0.000 C 
ENDBRANCH  25  29
BRANCH  16  31
ATOM     31  O   UNL     1     -24.998 -37.732  19.681  0.00  0.00    +0.000 OA
BRANCH  31  32
ATOM     32  C   UNL     1     -24.373 -36.710  20.432  0.00  0.00    +0.000 C 
BRANCH  32  33
ATOM     33  C   UNL     1     -24.181 -35.465  19.721  0.00  0.00    +0.000 C 
ATOM     34  C   UNL     1     -23.037 -35.230  19.078  0.00  0.00    +0.000 C 
ENDBRANCH  32  33
ENDBRANCH  31  32
ENDBRANCH  16  31
BRANCH   5  35
ATOM     35  C   UNL     1     -22.488 -39.491  25.896  0.00  0.00    +0.000 C 
BRANCH  35  36
ATOM     36  C   UNL     1     -23.683 -40.221  26.286  0.00  0.00    +0.000 C 
BRANCH  36  37
ATOM     37  C   UNL     1     -23.587 -41.632  26.653  0.00  0.00    +0.000 C 
ATOM     38  O   UNL     1     -24.115 -42.560  25.991  0.00  0.00    +0.000 OA
BRANCH  37  39
ATOM     39  O   UNL     1     -22.884 -42.058  27.794  0.00  0.00    +0.000 OA
ATOM     40  H   UNL     1     -22.249 -42.840  27.715  0.00  0.00    +0.000 HD
ENDBRANCH  37  39
ENDBRANCH  36  37
ENDBRANCH  35  36
ENDBRANCH   5  35
TORSDOF 9
ENDMDL
