MODEL 1
REMARK VINA RESULT:    -9.265      0.000      0.000
REMARK INTER + INTRA:         -14.094
REMARK INTER:                 -13.327
REMARK INTRA:                  -0.766
REMARK UNBOUND:                -0.766
REMARK  Name = 
REMARK  10 active torsions:
REMARK  status: ('A' for Active; 'I' for Inactive)
REMARK    1  A    between atoms: C_1  and  C_2
REMARK    2  A    between atoms: C_1  and  C_6
REMARK    3  A    between atoms: N_4  and  C_5
REMARK    4  A    between atoms: N_8  and  C_9
REMARK    5  A    between atoms: C_9  and  C_10
REMARK    6  A    between atoms: C_10  and  C_11
REMARK    7  A    between atoms: C_10  and  C_19
REMARK    8  A    between atoms: C_10  and  N_25
REMARK    9  A    between atoms: C_14  and  O_17
REMARK   10  A    between atoms: O_17  and  C_18
REMARK                            x       y       z     vdW  Elec       q    Type
REMARK                         _______ _______ _______ _____ _____    ______ ____
ROOT
ATOM      1  C   UNL     1     -13.044 -44.289  28.572  0.00  0.00    +0.000 C 
ENDROOT
BRANCH   1   2
ATOM      2  C   UNL     1     -13.869 -43.688  27.446  0.00  0.00    +0.000 A 
ATOM      3  C   UNL     1     -13.556 -43.896  26.141  0.00  0.00    +0.000 A 
ATOM      4  C   UNL     1     -14.356 -43.320  25.130  0.00  0.00    +0.000 A 
ATOM      5  C   UNL     1     -15.449 -42.552  25.461  0.00  0.00    +0.000 A 
ATOM      6  C   UNL     1     -15.767 -42.342  26.786  0.00  0.00    +0.000 A 
ATOM      7  C   UNL     1     -14.974 -42.912  27.755  0.00  0.00    +0.000 A 
BRANCH   5   8
ATOM      8  O   UNL     1     -16.198 -42.012  24.437  0.00  0.00    +0.000 OA
ATOM      9  C   UNL     1     -15.611 -41.363  23.322  0.00  0.00    +0.000 C 
ENDBRANCH   5   8
ENDBRANCH   1   2
BRANCH   1  10
ATOM     10  C   UNL     1     -11.803 -43.495  28.541  0.00  0.00    +0.000 A 
ATOM     11  C   UNL     1     -10.582 -44.086  28.743  0.00  0.00    +0.000 A 
ATOM     12  C   UNL     1      -9.424 -43.341  28.746  0.00  0.00    +0.000 A 
ATOM     13  N   UNL     1      -9.470 -42.029  28.552  0.00  0.00    +0.000 NA
ATOM     14  C   UNL     1     -10.645 -41.409  28.350  0.00  0.00    +0.000 A 
ATOM     15  C   UNL     1     -11.834 -42.139  28.342  0.00  0.00    +0.000 A 
ENDBRANCH   1  10
BRANCH   1  16
ATOM     16  N   UNL     1     -12.777 -45.686  28.257  0.00  0.00    +0.000 NA
ATOM     17  H   UNL     1     -12.858 -46.305  29.070  0.00  0.00    +0.000 HD
ATOM     18  H   UNL     1     -11.795 -45.725  27.912  0.00  0.00    +0.000 HD
ENDBRANCH   1  16
BRANCH   1  19
ATOM     19  C   UNL     1     -13.856 -44.264  29.807  0.00  0.00    +0.000 C 
BRANCH  19  22
ATOM     20  C   UNL     1     -13.781 -43.356  32.173  0.00  0.00    +0.000 C 
ATOM     21  O   UNL     1     -14.269 -44.368  32.697  0.00  0.00    +0.000 OA
ATOM     22  N   UNL     1     -13.565 -43.279  30.801  0.00  0.00    +0.000 N 
ATOM     23  H   UNL     1     -13.118 -42.336  30.471  0.00  0.00    +0.000 HD
BRANCH  20  24
ATOM     24  C   UNL     1     -13.447 -42.240  33.113  0.00  0.00    +0.000 C 
BRANCH  24  25
ATOM     25  C   UNL     1     -11.961 -42.137  33.310  0.00  0.00    +0.000 C 
ATOM     26  O   UNL     1     -11.158 -42.715  32.536  0.00  0.00    +0.000 OA
ATOM     27  N   UNL     1     -11.410 -41.390  34.370  0.00  0.00    +0.000 N 
ATOM     28  C   UNL     1      -9.976 -41.298  34.553  0.00  0.00    +0.000 C 
ATOM     29  H   UNL     1     -12.018 -40.881  35.056  0.00  0.00    +0.000 HD
ENDBRANCH  24  25
ENDBRANCH  20  24
ENDBRANCH  19  22
ENDBRANCH   1  19
TORSDOF 8
ENDMDL
