MODEL 1
REMARK VINA RESULT:    -8.461      0.000      0.000
REMARK INTER + INTRA:         -12.828
REMARK INTER:                 -13.408
REMARK INTRA:                   0.579
REMARK UNBOUND:                 0.579
REMARK  Name = 
REMARK  13 active torsions:
REMARK  status: ('A' for Active; 'I' for Inactive)
REMARK    1  A    between atoms: C_1  and  C_2
REMARK    2  A    between atoms: C_1  and  C_10
REMARK    3  A    between atoms: C_5  and  O_8
REMARK    4  A    between atoms: O_8  and  C_9
REMARK    5  A    between atoms: C_10  and  N_11
REMARK    6  A    between atoms: C_15  and  C_16
REMARK    7  A    between atoms: C_16  and  C_17
REMARK    8  A    between atoms: C_16  and  C_22
REMARK    9  A    between atoms: C_16  and  C_30
REMARK   10  A    between atoms: C_23  and  O_24
REMARK   11  A    between atoms: O_24  and  C_25
REMARK   12  A    between atoms: C_30  and  C_31
REMARK   13  A    between atoms: C_31  and  O_33
REMARK                            x       y       z     vdW  Elec       q    Type
REMARK                         _______ _______ _______ _____ _____    ______ ____
ROOT
ATOM      1  C   UNL     1     -11.043 -43.537  31.086  0.00  0.00    +0.000 C 
ENDROOT
BRANCH   1   2
ATOM      2  C   UNL     1     -10.306 -42.886  32.192  0.00  0.00    +0.000 A 
ATOM      3  C   UNL     1     -11.062 -42.163  33.094  0.00  0.00    +0.000 A 
ATOM      4  C   UNL     1     -10.463 -41.624  34.213  0.00  0.00    +0.000 A 
ATOM      5  C   UNL     1      -9.109 -41.794  34.454  0.00  0.00    +0.000 A 
ATOM      6  C   UNL     1      -8.377 -42.519  33.541  0.00  0.00    +0.000 A 
ATOM      7  C   UNL     1      -8.977 -43.054  32.426  0.00  0.00    +0.000 A 
BRANCH   3   8
ATOM      8  O   UNL     1     -12.431 -41.904  32.981  0.00  0.00    +0.000 OA
ATOM      9  C   UNL     1     -13.298 -41.798  34.063  0.00  0.00    +0.000 C 
ENDBRANCH   3   8
ENDBRANCH   1   2
BRANCH   1  14
ATOM     10  C   UNL     1     -13.565 -44.048  30.481  0.00  0.00    +0.000 C 
ATOM     11  C   UNL     1     -14.481 -45.111  31.141  0.00  0.00    +0.000 C 
ATOM     12  C   UNL     1     -13.900 -45.356  32.517  0.00  0.00    +0.000 C 
ATOM     13  C   UNL     1     -12.408 -45.438  32.075  0.00  0.00    +0.000 C 
ATOM     14  C   UNL     1     -12.385 -44.084  31.321  0.00  0.00    +0.000 C 
BRANCH  10  15
ATOM     15  C   UNL     1     -13.605 -44.110  29.044  0.00  0.00    +0.000 A 
ATOM     16  C   UNL     1     -13.027 -45.109  28.313  0.00  0.00    +0.000 A 
ATOM     17  C   UNL     1     -13.106 -45.202  26.931  0.00  0.00    +0.000 A 
ATOM     18  C   UNL     1     -13.785 -44.270  26.213  0.00  0.00    +0.000 A 
ATOM     19  C   UNL     1     -14.383 -43.244  26.907  0.00  0.00    +0.000 A 
ATOM     20  C   UNL     1     -14.295 -43.167  28.280  0.00  0.00    +0.000 A 
BRANCH  18  21
ATOM     21  O   UNL     1     -13.874 -44.350  24.811  0.00  0.00    +0.000 OA
ATOM     22  C   UNL     1     -14.650 -43.360  24.167  0.00  0.00    +0.000 C 
ENDBRANCH  18  21
ENDBRANCH  10  15
BRANCH  10  23
ATOM     23  C   UNL     1     -14.432 -42.777  30.902  0.00  0.00    +0.000 C 
BRANCH  23  24
ATOM     24  N   UNL     1     -15.807 -43.045  30.625  0.00  0.00    +0.000 NA
ATOM     25  H   UNL     1     -15.953 -43.850  29.963  0.00  0.00    +0.000 HD
ATOM     26  H   UNL     1     -16.260 -42.211  30.207  0.00  0.00    +0.000 HD
ENDBRANCH  23  24
ENDBRANCH  10  23
ENDBRANCH   1  14
BRANCH   1  27
ATOM     27  C   UNL     1     -10.183 -44.630  30.482  0.00  0.00    +0.000 A 
ATOM     28  O   UNL     1     -10.067 -45.068  29.271  0.00  0.00    +0.000 OA
ATOM     29  C   UNL     1      -9.221 -46.022  29.119  0.00  0.00    +0.000 A 
ATOM     30  C   UNL     1      -8.666 -46.305  30.346  0.00  0.00    +0.000 A 
ATOM     31  C   UNL     1      -9.283 -45.415  31.214  0.00  0.00    +0.000 A 
ENDBRANCH   1  27
BRANCH   1  32
ATOM     32  C   UNL     1     -11.197 -42.452  30.054  0.00  0.00    +0.000 C 
BRANCH  32  33
ATOM     33  C   UNL     1     -10.166 -42.293  29.036  0.00  0.00    +0.000 C 
ATOM     34  O   UNL     1     -10.553 -42.275  27.785  0.00  0.00    +0.000 OA
BRANCH  33  35
ATOM     35  O   UNL     1      -8.808 -42.149  29.140  0.00  0.00    +0.000 OA
ATOM     36  H   UNL     1      -8.110 -42.710  28.699  0.00  0.00    +0.000 HD
ENDBRANCH  33  35
ENDBRANCH  32  33
ENDBRANCH   1  32
TORSDOF 11
ENDMDL
