MODEL 1
REMARK VINA RESULT:    -9.749      0.000      0.000
REMARK INTER + INTRA:         -16.049
REMARK INTER:                 -14.593
REMARK INTRA:                  -1.456
REMARK UNBOUND:                -1.456
REMARK  Name = 
REMARK  10 active torsions:
REMARK  status: ('A' for Active; 'I' for Inactive)
REMARK    1  A    between atoms: N_1  and  C_7
REMARK    2  A    between atoms: C_4  and  N_6
REMARK    3  A    between atoms: C_7  and  C_8
REMARK    4  A    between atoms: N_10  and  C_11
REMARK    5  A    between atoms: C_15  and  N_16
REMARK    6  A    between atoms: N_16  and  C_17
REMARK    7  A    between atoms: N_16  and  C_26
REMARK    8  A    between atoms: C_17  and  C_18
REMARK    9  A    between atoms: C_21  and  O_24
REMARK   10  A    between atoms: O_24  and  C_25
REMARK                            x       y       z     vdW  Elec       q    Type
REMARK                         _______ _______ _______ _____ _____    ______ ____
ROOT
ATOM      1  C   UNL     1      -9.345 -43.302  29.561  0.00  0.00    +0.000 C 
ATOM      2  C   UNL     1      -8.705 -42.956  28.240  0.00  0.00    +0.000 C 
ATOM      3  C   UNL     1      -9.442 -41.847  27.590  0.00  0.00    +0.000 C 
ATOM      4  C   UNL     1     -10.528 -41.460  28.578  0.00  0.00    +0.000 C 
ATOM      5  C   UNL     1     -10.726 -42.631  29.466  0.00  0.00    +0.000 C 
ENDROOT
BRANCH   1   8
ATOM      6  C   UNL     1      -8.361 -43.469  31.896  0.00  0.00    +0.000 C 
ATOM      7  O   UNL     1      -8.872 -44.596  32.013  0.00  0.00    +0.000 OA
ATOM      8  N   UNL     1      -8.569 -42.772  30.677  0.00  0.00    +0.000 N 
ATOM      9  H   UNL     1      -8.144 -41.813  30.558  0.00  0.00    +0.000 HD
BRANCH   6  10
ATOM     10  C   UNL     1      -7.542 -42.801  32.953  0.00  0.00    +0.000 C 
BRANCH  10  11
ATOM     11  N   UNL     1      -8.394 -42.176  33.952  0.00  0.00    +0.000 N 
ATOM     12  N   UNL     1      -8.022 -41.905  35.183  0.00  0.00    +0.000 NA
ATOM     13  C   UNL     1      -9.059 -41.338  35.801  0.00  0.00    +0.000 A 
ATOM     14  C   UNL     1     -10.114 -41.256  34.921  0.00  0.00    +0.000 A 
ATOM     15  C   UNL     1      -9.657 -41.801  33.744  0.00  0.00    +0.000 A 
BRANCH  14  16
ATOM     16  N   UNL     1     -11.417 -40.709  35.191  0.00  0.00    +0.000 N 
ATOM     17  H   UNL     1     -12.123 -41.273  35.697  0.00  0.00    +0.000 HD
ATOM     18  H   UNL     1     -11.616 -39.743  34.861  0.00  0.00    +0.000 HD
ENDBRANCH  14  16
ENDBRANCH  10  11
ENDBRANCH   6  10
ENDBRANCH   1   8
BRANCH   5  19
ATOM     19  N   UNL     1     -11.816 -43.459  29.350  0.00  0.00    +0.000 NA
BRANCH  19  20
ATOM     20  C   UNL     1     -12.324 -44.032  28.231  0.00  0.00    +0.000 C 
ATOM     21  C   UNL     1     -13.702 -43.737  27.736  0.00  0.00    +0.000 C 
ATOM     22  C   UNL     1     -13.651 -44.416  26.357  0.00  0.00    +0.000 C 
ATOM     23  C   UNL     1     -12.868 -45.660  26.611  0.00  0.00    +0.000 C 
ATOM     24  C   UNL     1     -12.310 -45.535  28.055  0.00  0.00    +0.000 C 
ENDBRANCH  19  20
BRANCH  19  25
ATOM     25  C   UNL     1     -12.007 -44.278  30.529  0.00  0.00    +0.000 C 
BRANCH  25  26
ATOM     26  C   UNL     1     -12.788 -43.688  31.599  0.00  0.00    +0.000 A 
ATOM     27  C   UNL     1     -13.680 -44.418  32.346  0.00  0.00    +0.000 A 
ATOM     28  C   UNL     1     -14.389 -43.791  33.342  0.00  0.00    +0.000 A 
ATOM     29  C   UNL     1     -14.248 -42.435  33.637  0.00  0.00    +0.000 A 
ATOM     30  C   UNL     1     -13.352 -41.709  32.882  0.00  0.00    +0.000 A 
ATOM     31  C   UNL     1     -12.648 -42.354  31.886  0.00  0.00    +0.000 A 
BRANCH  29  32
ATOM     32  O   UNL     1     -14.984 -41.850  34.645  0.00  0.00    +0.000 OA
ATOM     33  C   UNL     1     -14.893 -40.538  35.101  0.00  0.00    +0.000 C 
ENDBRANCH  29  32
ENDBRANCH  25  26
ENDBRANCH  19  25
ENDBRANCH   5  19
TORSDOF 9
ENDMDL
