MODEL 1
REMARK VINA RESULT:    -9.372      0.000      0.000
REMARK INTER + INTRA:         -11.441
REMARK INTER:                 -11.289
REMARK INTRA:                  -0.151
REMARK UNBOUND:                -0.151
REMARK  Name = 
REMARK  4 active torsions:
REMARK  status: ('A' for Active; 'I' for Inactive)
REMARK    1  A    between atoms: C_3  and  C_4
REMARK    2  A    between atoms: C_12  and  C_14
REMARK    3  A    between atoms: C_15  and  C_16
REMARK    4  A    between atoms: C_16  and  O_18
REMARK                            x       y       z     vdW  Elec       q    Type
REMARK                         _______ _______ _______ _____ _____    ______ ____
ROOT
ATOM      1  C   UNL     1     -12.371 -43.319  28.720  0.00  0.00    +0.000 A 
ATOM      2  N   UNL     1     -13.068 -43.042  27.824  0.00  0.00    +0.000 NA
ATOM      3  C   UNL     1     -13.521 -43.786  26.868  0.00  0.00    +0.000 A 
ATOM      4  C   UNL     1     -13.124 -45.132  26.904  0.00  0.00    +0.000 A 
ATOM      5  S   UNL     1     -12.093 -45.138  28.389  0.00  0.00    +0.000 S 
ATOM      6  N   UNL     1     -11.802 -42.740  29.893  0.00  0.00    +0.000 N 
ATOM      7  C   UNL     1     -10.841 -43.435  30.668  0.00  0.00    +0.000 C 
ATOM      8  O   UNL     1     -10.434 -44.597  30.234  0.00  0.00    +0.000 OA
ATOM      9  H   UNL     1     -12.144 -41.818  30.188  0.00  0.00    +0.000 HD
ENDROOT
BRANCH   7  10
ATOM     10  C   UNL     1     -10.267 -42.960  31.894  0.00  0.00    +0.000 A 
ATOM     11  C   UNL     1     -11.058 -42.459  32.903  0.00  0.00    +0.000 A 
ATOM     12  C   UNL     1     -10.536 -41.977  34.086  0.00  0.00    +0.000 A 
ATOM     13  C   UNL     1      -9.180 -41.975  34.307  0.00  0.00    +0.000 A 
ATOM     14  C   UNL     1      -8.381 -42.473  33.301  0.00  0.00    +0.000 A 
ATOM     15  C   UNL     1      -8.905 -42.963  32.103  0.00  0.00    +0.000 A 
BRANCH  11  16
ATOM     16  C   UNL     1     -12.493 -42.472  32.738  0.00  0.00    +0.000 C 
ATOM     17  O   UNL     1     -13.220 -43.516  32.859  0.00  0.00    +0.000 OA
BRANCH  16  18
ATOM     18  O   UNL     1     -13.199 -41.310  32.426  0.00  0.00    +0.000 OA
ATOM     19  H   UNL     1     -13.039 -40.452  32.927  0.00  0.00    +0.000 HD
ENDBRANCH  16  18
ENDBRANCH  11  16
ENDBRANCH   7  10
BRANCH   3  20
ATOM     20  C   UNL     1     -14.384 -43.328  25.767  0.00  0.00    +0.000 A 
ATOM     21  S   UNL     1     -15.830 -42.263  25.977  0.00  0.00    +0.000 S 
ATOM     22  C   UNL     1     -16.343 -42.203  24.285  0.00  0.00    +0.000 A 
ATOM     23  C   UNL     1     -15.365 -43.010  23.662  0.00  0.00    +0.000 A 
ATOM     24  C   UNL     1     -14.416 -43.549  24.412  0.00  0.00    +0.000 A 
ENDBRANCH   3  20
TORSDOF 4
ENDMDL
