MODEL 1
REMARK VINA RESULT:   -10.051      0.000      0.000
REMARK INTER + INTRA:         -12.022
REMARK INTER:                 -12.107
REMARK INTRA:                   0.085
REMARK UNBOUND:                 0.085
REMARK  Name = 
REMARK  6 active torsions:
REMARK  status: ('A' for Active; 'I' for Inactive)
REMARK    1  A    between atoms: C_2  and  C_27
REMARK    2  A    between atoms: C_13  and  C_14
REMARK    3  A    between atoms: C_14  and  O_16
REMARK    4  A    between atoms: C_27  and  C_28
REMARK    5  A    between atoms: C_27  and  C_30
REMARK    6  A    between atoms: C_27  and  C_31
REMARK                            x       y       z     vdW  Elec       q    Type
REMARK                         _______ _______ _______ _____ _____    ______ ____
ROOT
ATOM      1  N   UNL     1     -22.278 -41.990  25.296  0.00  0.00    +0.000 NA
ATOM      2  C   UNL     1     -21.913 -43.325  25.193  0.00  0.00    +0.000 C 
ATOM      3  C   UNL     1     -20.976 -42.254  24.899  0.00  0.00    +0.000 C 
ATOM      4  N   UNL     1     -19.935 -41.938  25.859  0.00  0.00    +0.000 N 
ATOM      5  C   UNL     1     -18.492 -41.968  25.758  0.00  0.00    +0.000 A 
ATOM      6  C   UNL     1     -17.695 -41.829  24.652  0.00  0.00    +0.000 A 
ATOM      7  C   UNL     1     -18.149 -41.591  23.261  0.00  0.00    +0.000 C 
ATOM      8  C   UNL     1     -19.462 -40.837  23.396  0.00  0.00    +0.000 C 
ATOM      9  C   UNL     1     -19.477 -39.694  22.531  0.00  0.00    +0.000 C 
ATOM     10  C   UNL     1     -18.057 -39.665  21.997  0.00  0.00    +0.000 C 
ATOM     11  C   UNL     1     -17.371 -40.717  22.423  0.00  0.00    +0.000 C 
ATOM     12  C   UNL     1     -16.329 -41.885  24.728  0.00  0.00    +0.000 A 
ATOM     13  C   UNL     1     -15.737 -42.088  25.966  0.00  0.00    +0.000 A 
ATOM     14  C   UNL     1     -16.516 -42.228  27.083  0.00  0.00    +0.000 A 
ATOM     15  C   UNL     1     -17.874 -42.169  26.979  0.00  0.00    +0.000 A 
ATOM     16  C   UNL     1     -20.591 -41.817  23.508  0.00  0.00    +0.000 C 
ATOM     17  C   UNL     1     -21.145 -42.146  22.377  0.00  0.00    +0.000 C 
ATOM     18  C   UNL     1     -22.279 -42.988  22.030  0.00  0.00    +0.000 C 
ATOM     19  C   UNL     1     -23.569 -42.756  22.121  0.00  0.00    +0.000 C 
ATOM     20  C   UNL     1     -24.363 -41.615  22.581  0.00  0.00    +0.000 C 
ATOM     21  C   UNL     1     -24.348 -40.339  22.455  0.00  0.00    +0.000 C 
ATOM     22 CL   UNL     1     -24.625 -44.149  21.640  0.00  0.00    +0.000 Cl
ATOM     23 CL   UNL     1     -20.234 -41.584  20.903  0.00  0.00    +0.000 Cl
ATOM     24  C   UNL     1     -22.601 -41.147  26.327  0.00  0.00    +0.000 C 
ATOM     25  C   UNL     1     -22.200 -39.689  26.161  0.00  0.00    +0.000 C 
ATOM     26  C   UNL     1     -23.375 -38.740  26.258  0.00  0.00    +0.000 C 
ATOM     27  C   UNL     1     -23.836 -38.260  24.896  0.00  0.00    +0.000 C 
ATOM     28  C   UNL     1     -25.077 -38.892  24.400  0.00  0.00    +0.000 C 
ATOM     29  C   UNL     1     -25.148 -39.171  22.915  0.00  0.00    +0.000 C 
ATOM     30  H   UNL     1     -20.205 -41.626  26.817  0.00  0.00    +0.000 HD
ENDROOT
BRANCH   2  31
ATOM     31  C   UNL     1     -21.850 -44.288  26.325  0.00  0.00    +0.000 C 
ATOM     32  C   UNL     1     -23.172 -45.082  26.255  0.00  0.00    +0.000 C 
ATOM     33  C   UNL     1     -20.788 -45.349  25.962  0.00  0.00    +0.000 C 
BRANCH  31  34
ATOM     34  C   UNL     1     -21.598 -43.785  27.658  0.00  0.00    +0.000 C 
ATOM     35  O   UNL     1     -20.507 -43.941  28.176  0.00  0.00    +0.000 OA
ENDBRANCH  31  34
ENDBRANCH   2  31
BRANCH  13  36
ATOM     36  C   UNL     1     -14.283 -42.144  26.036  0.00  0.00    +0.000 C 
ATOM     37  O   UNL     1     -13.588 -42.441  25.048  0.00  0.00    +0.000 OA
BRANCH  36  38
ATOM     38  O   UNL     1     -13.667 -41.858  27.243  0.00  0.00    +0.000 OA
ATOM     39  H   UNL     1     -13.821 -42.399  28.071  0.00  0.00    +0.000 HD
ENDBRANCH  36  38
ENDBRANCH  13  36
TORSDOF 4
ENDMDL
