MODEL 1
REMARK VINA RESULT:   -12.937      0.000      0.000
REMARK INTER + INTRA:         -18.457
REMARK INTER:                 -17.475
REMARK INTRA:                  -0.982
REMARK UNBOUND:                -0.982
REMARK  Name = 
REMARK  8 active torsions:
REMARK  status: ('A' for Active; 'I' for Inactive)
REMARK    1  A    between atoms: C_7  and  C_8
REMARK    2  A    between atoms: C_8  and  C_9
REMARK    3  A    between atoms: C_8  and  C_10
REMARK    4  A    between atoms: C_17  and  C_19
REMARK    5  A    between atoms: C_19  and  C_20
REMARK    6  A    between atoms: C_20  and  C_21
REMARK    7  A    between atoms: N_24  and  C_26
REMARK    8  A    between atoms: C_26  and  C_27
REMARK                            x       y       z     vdW  Elec       q    Type
REMARK                         _______ _______ _______ _____ _____    ______ ____
ROOT
ATOM      1  C   UNL     1     -13.117 -44.241  28.227  0.00  0.00    +0.000 C 
ENDROOT
BRANCH   1   2
ATOM      2  C   UNL     1     -12.183 -44.019  29.345  0.00  0.00    +0.000 C 
ATOM      3  C   UNL     1     -11.704 -45.243  30.110  0.00  0.00    +0.000 C 
ATOM      4  C   UNL     1     -12.726 -45.535  31.041  0.00  0.00    +0.000 C 
ATOM      5  N   UNL     1     -12.894 -44.182  31.642  0.00  0.00    +0.000 NA
ATOM      6  C   UNL     1     -12.712 -43.274  30.488  0.00  0.00    +0.000 C 
ATOM      7  C   UNL     1     -11.016 -46.005  29.135  0.00  0.00    +0.000 C 
ATOM      8  N   UNL     1     -10.553 -45.008  28.176  0.00  0.00    +0.000 NA
ATOM      9  C   UNL     1     -10.865 -43.685  28.783  0.00  0.00    +0.000 C 
ATOM     10  C   UNL     1     -10.864 -42.612  27.772  0.00  0.00    +0.000 C 
ATOM     11  C   UNL     1     -10.469 -41.274  28.424  0.00  0.00    +0.000 C 
ATOM     12  C   UNL     1      -8.958 -41.340  28.534  0.00  0.00    +0.000 C 
ATOM     13  C   UNL     1      -8.617 -42.735  28.894  0.00  0.00    +0.000 C 
ATOM     14  C   UNL     1      -9.717 -43.452  29.715  0.00  0.00    +0.000 C 
ATOM     15  H   UNL     1      -9.522 -45.096  27.996  0.00  0.00    +0.000 HD
BRANCH   5  16
ATOM     16  C   UNL     1     -14.155 -44.060  32.298  0.00  0.00    +0.000 C 
BRANCH  16  17
ATOM     17  C   UNL     1     -14.340 -42.772  32.999  0.00  0.00    +0.000 A 
ATOM     18  C   UNL     1     -13.497 -42.326  33.985  0.00  0.00    +0.000 A 
ATOM     19  C   UNL     1     -13.726 -41.093  34.595  0.00  0.00    +0.000 A 
ATOM     20  C   UNL     1     -14.817 -40.350  34.178  0.00  0.00    +0.000 A 
ATOM     21  C   UNL     1     -15.674 -40.759  33.211  0.00  0.00    +0.000 A 
ATOM     22  C   UNL     1     -15.417 -42.008  32.610  0.00  0.00    +0.000 A 
ENDBRANCH  16  17
ENDBRANCH   5  16
ENDBRANCH   1   2
BRANCH   1  23
ATOM     23  C   UNL     1     -14.486 -43.709  28.244  0.00  0.00    +0.000 C 
BRANCH  23  37
ATOM     24  N   UNL     1     -18.013 -41.767  25.841  0.00  0.00    +0.000 NA
ATOM     25  C   UNL     1     -16.772 -42.174  25.554  0.00  0.00    +0.000 A 
ATOM     26  C   UNL     1     -16.160 -41.972  24.346  0.00  0.00    +0.000 A 
ATOM     27  C   UNL     1     -16.882 -41.299  23.344  0.00  0.00    +0.000 A 
ATOM     28  C   UNL     1     -18.157 -40.884  23.633  0.00  0.00    +0.000 A 
ATOM     29  C   UNL     1     -18.703 -41.119  24.868  0.00  0.00    +0.000 A 
ATOM     30  C   UNL     1     -20.041 -40.787  25.153  0.00  0.00    +0.000 A 
ATOM     31  C   UNL     1     -20.757 -40.223  24.122  0.00  0.00    +0.000 A 
ATOM     32  C   UNL     1     -20.219 -39.985  22.886  0.00  0.00    +0.000 A 
ATOM     33  C   UNL     1     -18.912 -40.309  22.620  0.00  0.00    +0.000 A 
ATOM     34  C   UNL     1     -14.788 -42.354  23.824  0.00  0.00    +0.000 C 
ATOM     35  N   UNL     1     -14.131 -43.166  24.786  0.00  0.00    +0.000 NA
ATOM     36  C   UNL     1     -13.853 -42.551  26.043  0.00  0.00    +0.000 C 
ATOM     37  C   UNL     1     -14.828 -42.778  27.107  0.00  0.00    +0.000 C 
ATOM     38  O   UNL     1     -16.133 -42.837  26.611  0.00  0.00    +0.000 OA
ATOM     39  H   UNL     1     -14.612 -44.059  24.897  0.00  0.00    +0.000 HD
BRANCH  30  40
ATOM     40  C   UNL     1     -20.577 -40.870  26.527  0.00  0.00    +0.000 C 
ATOM     41  C   UNL     1     -21.696 -39.926  26.853  0.00  0.00    +0.000 C 
ATOM     42  C   UNL     1     -20.484 -42.153  27.259  0.00  0.00    +0.000 C 
ENDBRANCH  30  40
ENDBRANCH  23  37
ENDBRANCH   1  23
TORSDOF 6
ENDMDL
