MODEL 1
REMARK VINA RESULT:    -9.912      0.000      0.000
REMARK INTER + INTRA:         -16.675
REMARK INTER:                 -15.127
REMARK INTRA:                  -1.548
REMARK UNBOUND:                -1.548
REMARK  Name = 
REMARK  12 active torsions:
REMARK  status: ('A' for Active; 'I' for Inactive)
REMARK    1  A    between atoms: C_2  and  C_3
REMARK    2  A    between atoms: C_3  and  N_4
REMARK    3  A    between atoms: C_3  and  C_17
REMARK    4  A    between atoms: N_4  and  C_5
REMARK    5  A    between atoms: C_5  and  C_6
REMARK    6  A    between atoms: C_8  and  O_14
REMARK    7  A    between atoms: C_9  and  O_12
REMARK    8  A    between atoms: O_12  and  C_13
REMARK    9  A    between atoms: O_14  and  C_15
REMARK   10  A    between atoms: C_15  and  C_16
REMARK   11  A    between atoms: C_17  and  C_18
REMARK   12  A    between atoms: C_25  and  C_27
REMARK                            x       y       z     vdW  Elec       q    Type
REMARK                         _______ _______ _______ _____ _____    ______ ____
ROOT
ATOM      1  C   UNL     1     -13.188 -44.799  28.502  0.00  0.00    +0.000 C 
ENDROOT
BRANCH   1   3
ATOM      2  N   UNL     1     -14.998 -43.207  27.987  0.00  0.00    +0.000 NA
ATOM      3  C   UNL     1     -14.047 -44.021  27.538  0.00  0.00    +0.000 A 
ATOM      4  C   UNL     1     -13.891 -44.119  26.173  0.00  0.00    +0.000 A 
ATOM      5  C   UNL     1     -14.709 -43.382  25.310  0.00  0.00    +0.000 A 
ATOM      6  C   UNL     1     -15.666 -42.563  25.840  0.00  0.00    +0.000 A 
ATOM      7  C   UNL     1     -15.804 -42.483  27.200  0.00  0.00    +0.000 A 
ATOM      8  C   UNL     1     -16.524 -41.791  24.924  0.00  0.00    +0.000 C 
ENDBRANCH   1   3
BRANCH   1   9
ATOM      9  N   UNL     1     -13.542 -44.602  29.838  0.00  0.00    +0.000 NA
ATOM     10  H   UNL     1     -14.368 -44.011  30.054  0.00  0.00    +0.000 HD
BRANCH   9  11
ATOM     11  C   UNL     1     -13.003 -45.403  30.852  0.00  0.00    +0.000 C 
BRANCH  11  12
ATOM     12  C   UNL     1     -11.657 -44.997  31.323  0.00  0.00    +0.000 A 
ATOM     13  C   UNL     1     -11.550 -43.743  31.885  0.00  0.00    +0.000 A 
ATOM     14  C   UNL     1     -10.367 -43.227  32.375  0.00  0.00    +0.000 A 
ATOM     15  C   UNL     1      -9.247 -44.028  32.290  0.00  0.00    +0.000 A 
ATOM     16  C   UNL     1      -9.330 -45.282  31.734  0.00  0.00    +0.000 A 
ATOM     17  C   UNL     1     -10.538 -45.763  31.251  0.00  0.00    +0.000 A 
BRANCH  15  18
ATOM     18  O   UNL     1      -8.028 -43.565  32.767  0.00  0.00    +0.000 OA
ATOM     19  C   UNL     1      -7.080 -42.978  31.905  0.00  0.00    +0.000 C 
ENDBRANCH  15  18
BRANCH  14  20
ATOM     20  O   UNL     1     -10.263 -41.962  32.940  0.00  0.00    +0.000 OA
BRANCH  20  21
ATOM     21  C   UNL     1     -10.673 -41.747  34.277  0.00  0.00    +0.000 C 
ATOM     22  C   UNL     1      -9.483 -41.543  35.176  0.00  0.00    +0.000 C 
ENDBRANCH  20  21
ENDBRANCH  14  20
ENDBRANCH  11  12
ENDBRANCH   9  11
ENDBRANCH   1   9
BRANCH   1  23
ATOM     23  C   UNL     1     -11.825 -44.737  28.010  0.00  0.00    +0.000 C 
BRANCH  23  24
ATOM     24  C   UNL     1     -10.999 -43.515  28.282  0.00  0.00    +0.000 A 
ATOM     25  C   UNL     1      -9.635 -43.734  28.548  0.00  0.00    +0.000 A 
ATOM     26  S   UNL     1      -8.984 -42.099  28.753  0.00  0.00    +0.000 S 
ATOM     27  C   UNL     1     -10.519 -41.207  28.482  0.00  0.00    +0.000 A 
ATOM     28  C   UNL     1     -11.417 -42.244  28.254  0.00  0.00    +0.000 A 
ENDBRANCH  23  24
ENDBRANCH   1  23
TORSDOF 9
ENDMDL
