MODEL 1
REMARK VINA RESULT:   -10.877      0.000      0.000
REMARK INTER + INTRA:         -14.813
REMARK INTER:                 -14.056
REMARK INTRA:                  -0.757
REMARK UNBOUND:                -0.757
REMARK  Name = 
REMARK  7 active torsions:
REMARK  status: ('A' for Active; 'I' for Inactive)
REMARK    1  A    between atoms: C_2  and  C_4
REMARK    2  A    between atoms: C_4  and  C_5
REMARK    3  A    between atoms: C_8  and  O_11
REMARK    4  A    between atoms: O_11  and  C_12
REMARK    5  A    between atoms: C_15  and  C_17
REMARK    6  A    between atoms: C_19  and  O_20
REMARK    7  A    between atoms: O_20  and  C_21
REMARK                            x       y       z     vdW  Elec       q    Type
REMARK                         _______ _______ _______ _____ _____    ______ ____
ROOT
ATOM      1  N   UNL     1     -11.849 -44.080  28.708  0.00  0.00    +0.000 N 
ATOM      2  C   UNL     1     -12.793 -43.948  27.687  0.00  0.00    +0.000 C 
ATOM      3  O   UNL     1     -13.633 -44.857  27.490  0.00  0.00    +0.000 OA
ATOM      4  C   UNL     1     -10.827 -43.151  29.065  0.00  0.00    +0.000 C 
ATOM      5  C   UNL     1     -10.625 -43.267  30.555  0.00  0.00    +0.000 C 
ATOM      6  C   UNL     1     -11.267 -44.611  30.927  0.00  0.00    +0.000 C 
ATOM      7  C   UNL     1     -11.732 -45.198  29.611  0.00  0.00    +0.000 C 
ATOM      8  N   UNL     1      -9.257 -43.355  30.941  0.00  0.00    +0.000 NA
ATOM      9  C   UNL     1      -8.333 -42.512  30.274  0.00  0.00    +0.000 C 
ATOM     10  C   UNL     1      -8.588 -42.237  28.836  0.00  0.00    +0.000 C 
ATOM     11  C   UNL     1      -9.529 -43.325  28.310  0.00  0.00    +0.000 C 
ATOM     12  H   UNL     1      -8.939 -44.303  31.159  0.00  0.00    +0.000 HD
ENDROOT
BRANCH   6  13
ATOM     13  C   UNL     1     -12.428 -44.394  31.812  0.00  0.00    +0.000 A 
ATOM     14  C   UNL     1     -12.662 -43.182  32.420  0.00  0.00    +0.000 A 
ATOM     15  C   UNL     1     -13.750 -42.959  33.258  0.00  0.00    +0.000 A 
ATOM     16  C   UNL     1     -14.645 -43.977  33.505  0.00  0.00    +0.000 A 
ATOM     17  C   UNL     1     -14.428 -45.197  32.905  0.00  0.00    +0.000 A 
ATOM     18  C   UNL     1     -13.339 -45.401  32.075  0.00  0.00    +0.000 A 
BRANCH  15  19
ATOM     19  O   UNL     1     -13.945 -41.714  33.852  0.00  0.00    +0.000 OA
ATOM     20  C   UNL     1     -15.076 -40.956  33.476  0.00  0.00    +0.000 C 
ENDBRANCH  15  19
ENDBRANCH   6  13
BRANCH   2  21
ATOM     21  C   UNL     1     -12.812 -42.746  26.838  0.00  0.00    +0.000 C 
BRANCH  21  22
ATOM     22  C   UNL     1     -14.058 -42.615  26.053  0.00  0.00    +0.000 A 
ATOM     23  C   UNL     1     -15.263 -42.221  26.593  0.00  0.00    +0.000 A 
ATOM     24  C   UNL     1     -16.413 -42.106  25.842  0.00  0.00    +0.000 A 
ATOM     25  C   UNL     1     -16.402 -42.385  24.491  0.00  0.00    +0.000 A 
ATOM     26  C   UNL     1     -15.205 -42.781  23.931  0.00  0.00    +0.000 A 
ATOM     27  C   UNL     1     -14.053 -42.892  24.705  0.00  0.00    +0.000 A 
BRANCH  25  28
ATOM     28  O   UNL     1     -17.564 -42.272  23.714  0.00  0.00    +0.000 OA
ATOM     29  C   UNL     1     -17.889 -40.990  23.212  0.00  0.00    +0.000 C 
ENDBRANCH  25  28
ENDBRANCH  21  22
ENDBRANCH   2  21
TORSDOF 5
ENDMDL
