MODEL 1
REMARK VINA RESULT:    -9.575      0.000      0.000
REMARK INTER + INTRA:         -16.422
REMARK INTER:                 -14.333
REMARK INTRA:                  -2.089
REMARK UNBOUND:                -2.089
REMARK  Name = 
REMARK  11 active torsions:
REMARK  status: ('A' for Active; 'I' for Inactive)
REMARK    1  A    between atoms: N_1  and  C_21
REMARK    2  A    between atoms: C_2  and  S_15
REMARK    3  A    between atoms: C_5  and  C_6
REMARK    4  A    between atoms: C_6  and  O_7
REMARK    5  A    between atoms: O_7  and  C_8
REMARK    6  A    between atoms: C_11  and  C_14
REMARK    7  A    between atoms: S_15  and  C_16
REMARK    8  A    between atoms: C_16  and  C_17
REMARK    9  A    between atoms: C_16  and  C_20
REMARK   10  A    between atoms: C_17  and  O_19
REMARK   11  A    between atoms: C_21  and  C_22
REMARK                            x       y       z     vdW  Elec       q    Type
REMARK                         _______ _______ _______ _____ _____    ______ ____
ROOT
ATOM      1  N   UNL     1     -13.603 -44.056  28.574  0.00  0.00    +0.000 N 
ATOM      2  C   UNL     1     -14.516 -43.490  27.736  0.00  0.00    +0.000 A 
ATOM      3  N   UNL     1     -15.601 -43.123  28.424  0.00  0.00    +0.000 NA
ATOM      4  N   UNL     1     -15.408 -43.441  29.673  0.00  0.00    +0.000 NA
ATOM      5  C   UNL     1     -14.176 -44.020  29.787  0.00  0.00    +0.000 A 
ENDROOT
BRANCH   5   6
ATOM      6  C   UNL     1     -13.628 -44.540  31.074  0.00  0.00    +0.000 C 
BRANCH   6   7
ATOM      7  O   UNL     1     -12.770 -43.578  31.673  0.00  0.00    +0.000 OA
BRANCH   7   8
ATOM      8  C   UNL     1     -11.415 -43.806  31.791  0.00  0.00    +0.000 A 
ATOM      9  C   UNL     1     -10.566 -42.761  32.082  0.00  0.00    +0.000 A 
ATOM     10  C   UNL     1      -9.198 -42.960  32.208  0.00  0.00    +0.000 A 
ATOM     11  C   UNL     1      -8.658 -44.232  32.038  0.00  0.00    +0.000 A 
ATOM     12  C   UNL     1      -9.516 -45.271  31.746  0.00  0.00    +0.000 A 
ATOM     13  C   UNL     1     -10.877 -45.061  31.624  0.00  0.00    +0.000 A 
ATOM     14  C   UNL     1      -7.189 -44.452  32.171  0.00  0.00    +0.000 C 
ENDBRANCH   7   8
ENDBRANCH   6   7
ENDBRANCH   5   6
BRANCH   2  15
ATOM     15  S   UNL     1     -14.333 -43.269  25.979  0.00  0.00    +0.000 S 
BRANCH  15  16
ATOM     16  C   UNL     1     -15.366 -41.885  25.397  0.00  0.00    +0.000 C 
ATOM     17  C   UNL     1     -16.822 -42.143  25.659  0.00  0.00    +0.000 C 
BRANCH  16  18
ATOM     18  C   UNL     1     -15.168 -41.712  23.945  0.00  0.00    +0.000 C 
ATOM     19  O   UNL     1     -15.821 -42.394  23.130  0.00  0.00    +0.000 OA
BRANCH  18  20
ATOM     20  O   UNL     1     -14.253 -40.791  23.480  0.00  0.00    +0.000 OA
ATOM     21  H   UNL     1     -13.636 -40.279  24.085  0.00  0.00    +0.000 HD
ENDBRANCH  18  20
ENDBRANCH  16  18
ENDBRANCH  15  16
ENDBRANCH   2  15
BRANCH   1  22
ATOM     22  C   UNL     1     -12.310 -44.595  28.215  0.00  0.00    +0.000 C 
BRANCH  22  23
ATOM     23  C   UNL     1     -11.178 -43.657  28.327  0.00  0.00    +0.000 A 
ATOM     24  C   UNL     1     -11.387 -42.272  28.325  0.00  0.00    +0.000 A 
ATOM     25  C   UNL     1     -10.361 -41.362  28.422  0.00  0.00    +0.000 A 
ATOM     26  C   UNL     1      -9.047 -41.800  28.527  0.00  0.00    +0.000 A 
ATOM     27  C   UNL     1      -8.806 -43.136  28.532  0.00  0.00    +0.000 A 
ATOM     28  C   UNL     1      -9.862 -44.039  28.433  0.00  0.00    +0.000 A 
ENDBRANCH  22  23
ENDBRANCH   1  22
TORSDOF 9
ENDMDL
