MODEL 1
REMARK VINA RESULT:    -8.634      0.000      0.000
REMARK INTER + INTRA:         -11.058
REMARK INTER:                 -10.653
REMARK INTRA:                  -0.404
REMARK UNBOUND:                -0.404
REMARK  Name = 
REMARK  7 active torsions:
REMARK  status: ('A' for Active; 'I' for Inactive)
REMARK    1  A    between atoms: S_1  and  N_4
REMARK    2  A    between atoms: S_1  and  C_34
REMARK    3  A    between atoms: C_6  and  C_33
REMARK    4  A    between atoms: C_23  and  C_24
REMARK    5  A    between atoms: C_24  and  O_26
REMARK    6  A    between atoms: C_30  and  C_32
REMARK    7  A    between atoms: C_37  and  N_38
REMARK                            x       y       z     vdW  Elec       q    Type
REMARK                         _______ _______ _______ _____ _____    ______ ____
ROOT
ATOM      1  N   UNL     1     -23.015 -42.985  21.610  0.00  0.00    +0.000 NA
ATOM      2  C   UNL     1     -24.390 -42.654  22.026  0.00  0.00    +0.000 C 
ATOM      3  C   UNL     1     -23.755 -41.597  22.881  0.00  0.00    +0.000 C 
ATOM      4  C   UNL     1     -22.425 -41.807  22.161  0.00  0.00    +0.000 C 
ATOM      5  O   UNL     1     -22.179 -40.936  21.180  0.00  0.00    +0.000 OA
ATOM      6  C   UNL     1     -21.556 -39.818  20.787  0.00  0.00    +0.000 A 
ATOM      7  C   UNL     1     -20.170 -39.530  20.833  0.00  0.00    +0.000 A 
ATOM      8  O   UNL     1     -19.275 -40.414  21.312  0.00  0.00    +0.000 OA
ATOM      9  C   UNL     1     -18.469 -40.895  22.246  0.00  0.00    +0.000 C 
ATOM     10  C   UNL     1     -19.773 -38.281  20.355  0.00  0.00    +0.000 A 
ATOM     11  C   UNL     1     -20.600 -37.310  19.846  0.00  0.00    +0.000 A 
ATOM     12  C   UNL     1     -21.934 -37.603  19.808  0.00  0.00    +0.000 A 
ATOM     13  C   UNL     1     -22.370 -38.830  20.272  0.00  0.00    +0.000 A 
ATOM     14  C   UNL     1     -21.356 -42.027  23.211  0.00  0.00    +0.000 C 
ATOM     15  O   UNL     1     -21.416 -43.288  23.515  0.00  0.00    +0.000 OA
ATOM     16  N   UNL     1     -20.474 -41.064  23.756  0.00  0.00    +0.000 N 
ATOM     17  C   UNL     1     -19.030 -41.170  23.646  0.00  0.00    +0.000 C 
ATOM     18  C   UNL     1     -18.146 -41.506  24.564  0.00  0.00    +0.000 C 
ATOM     19  C   UNL     1     -18.190 -41.847  25.957  0.00  0.00    +0.000 C 
ATOM     20  C   UNL     1     -18.972 -41.506  26.990  0.00  0.00    +0.000 C 
ATOM     21  C   UNL     1     -20.096 -40.631  27.073  0.00  0.00    +0.000 C 
ATOM     22  C   UNL     1     -21.379 -40.614  26.841  0.00  0.00    +0.000 C 
ATOM     23  C   UNL     1     -23.792 -42.056  24.306  0.00  0.00    +0.000 C 
ATOM     24  C   UNL     1     -23.353 -41.138  25.374  0.00  0.00    +0.000 C 
ATOM     25  C   UNL     1     -22.299 -41.648  26.330  0.00  0.00    +0.000 C 
ATOM     26  C   UNL     1     -24.534 -40.739  26.301  0.00  0.00    +0.000 C 
ATOM     27  C   UNL     1     -24.361 -40.227  22.734  0.00  0.00    +0.000 C 
ATOM     28  H   UNL     1     -20.838 -40.162  24.301  0.00  0.00    +0.000 HD
ENDROOT
BRANCH   1  29
ATOM     29  S   UNL     1     -23.026 -43.171  19.916  0.00  0.00    +0.000 S 
ATOM     30  O   UNL     1     -21.596 -43.155  19.437  0.00  0.00    +0.000 OA
ATOM     31  O   UNL     1     -23.770 -42.118  19.184  0.00  0.00    +0.000 OA
BRANCH  29  32
ATOM     32  C   UNL     1     -23.701 -44.713  19.423  0.00  0.00    +0.000 A 
ATOM     33  C   UNL     1     -23.332 -45.879  20.072  0.00  0.00    +0.000 A 
ATOM     34  C   UNL     1     -23.817 -47.118  19.742  0.00  0.00    +0.000 A 
ATOM     35  C   UNL     1     -24.714 -47.227  18.720  0.00  0.00    +0.000 A 
ATOM     36  C   UNL     1     -25.105 -46.085  18.050  0.00  0.00    +0.000 A 
ATOM     37  C   UNL     1     -24.604 -44.830  18.397  0.00  0.00    +0.000 A 
BRANCH  35  38
ATOM     38  N   UNL     1     -25.207 -48.517  18.388  0.00  0.00    +0.000 N 
ATOM     39  H   UNL     1     -25.222 -48.809  17.389  0.00  0.00    +0.000 HD
ATOM     40  H   UNL     1     -25.558 -49.191  19.094  0.00  0.00    +0.000 HD
ENDBRANCH  35  38
ENDBRANCH  29  32
ENDBRANCH   1  29
BRANCH  20  41
ATOM     41  C   UNL     1     -18.566 -42.167  28.289  0.00  0.00    +0.000 C 
ATOM     42  O   UNL     1     -17.383 -42.087  28.729  0.00  0.00    +0.000 OA
BRANCH  41  43
ATOM     43  O   UNL     1     -19.431 -42.890  29.083  0.00  0.00    +0.000 OA
ATOM     44  H   UNL     1     -20.144 -42.431  29.642  0.00  0.00    +0.000 HD
ENDBRANCH  41  43
ENDBRANCH  20  41
TORSDOF 5
ENDMDL
