MODEL 1
REMARK VINA RESULT:    -8.168      0.000      0.000
REMARK INTER + INTRA:          -9.318
REMARK INTER:                 -11.511
REMARK INTRA:                   2.193
REMARK UNBOUND:                 2.193
REMARK  Name = 
REMARK  12 active torsions:
REMARK  status: ('A' for Active; 'I' for Inactive)
REMARK    1  A    between atoms: C_1  and  C_24
REMARK    2  A    between atoms: C_2  and  O_3
REMARK    3  A    between atoms: O_3  and  C_4
REMARK    4  A    between atoms: C_4  and  C_5
REMARK    5  A    between atoms: C_4  and  C_6
REMARK    6  A    between atoms: C_9  and  C_22
REMARK    7  A    between atoms: C_10  and  N_18
REMARK    8  A    between atoms: C_13  and  C_16
REMARK    9  A    between atoms: N_18  and  C_19
REMARK   10  A    between atoms: N_18  and  C_20
REMARK   11  A    between atoms: C_24  and  O_25
REMARK   12  A    between atoms: O_25  and  C_26
REMARK                            x       y       z     vdW  Elec       q    Type
REMARK                         _______ _______ _______ _____ _____    ______ ____
ROOT
ATOM      1  C   UNL     1     -11.496 -43.094  31.522  0.00  0.00    +0.000 C 
ATOM      2  C   UNL     1     -10.398 -43.447  32.165  0.00  0.00    +0.000 C 
ATOM      3  C   UNL     1      -9.378 -44.327  31.614  0.00  0.00    +0.000 C 
ATOM      4  C   UNL     1      -9.545 -44.790  30.407  0.00  0.00    +0.000 C 
ATOM      5  C   UNL     1     -10.695 -44.468  29.577  0.00  0.00    +0.000 C 
ATOM      6  C   UNL     1     -11.792 -43.667  30.204  0.00  0.00    +0.000 C 
ATOM      7  N   UNL     1     -12.094 -42.552  29.287  0.00  0.00    +0.000 NA
ATOM      8  C   UNL     1     -12.579 -42.533  28.075  0.00  0.00    +0.000 C 
ATOM      9  C   UNL     1     -13.008 -43.621  27.167  0.00  0.00    +0.000 C 
ATOM     10  C   UNL     1     -12.831 -44.935  27.134  0.00  0.00    +0.000 C 
ATOM     11  N   UNL     1     -12.129 -45.817  28.002  0.00  0.00    +0.000 NA
ATOM     12  C   UNL     1     -11.278 -45.737  28.983  0.00  0.00    +0.000 C 
ENDROOT
BRANCH   6  13
ATOM     13  N   UNL     1     -12.988 -44.475  30.204  0.00  0.00    +0.000 NA
ATOM     14  C   UNL     1     -12.976 -45.532  31.163  0.00  0.00    +0.000 C 
ATOM     15  C   UNL     1     -14.213 -43.789  30.055  0.00  0.00    +0.000 C 
ENDBRANCH   6  13
BRANCH   9  16
ATOM     16  C   UNL     1     -13.814 -43.151  26.048  0.00  0.00    +0.000 C 
ATOM     17  O   UNL     1     -14.288 -43.982  25.244  0.00  0.00    +0.000 OA
ENDBRANCH   9  16
BRANCH   5  18
ATOM     18  C   UNL     1     -10.123 -43.734  28.382  0.00  0.00    +0.000 C 
ATOM     19  O   UNL     1      -9.000 -43.315  28.436  0.00  0.00    +0.000 OA
ENDBRANCH   5  18
BRANCH   2  20
ATOM     20  O   UNL     1     -10.190 -42.941  33.454  0.00  0.00    +0.000 OA
BRANCH  20  21
ATOM     21  C   UNL     1      -9.278 -41.945  33.793  0.00  0.00    +0.000 C 
ATOM     22  C   UNL     1      -9.383 -41.462  35.222  0.00  0.00    +0.000 C 
ATOM     23  C   UNL     1      -7.882 -42.557  33.617  0.00  0.00    +0.000 C 
ENDBRANCH  20  21
ENDBRANCH   2  20
BRANCH   1  24
ATOM     24  C   UNL     1     -12.425 -42.170  32.227  0.00  0.00    +0.000 C 
BRANCH  24  25
ATOM     25  O   UNL     1     -13.220 -42.839  33.155  0.00  0.00    +0.000 OA
ATOM     26  C   UNL     1     -13.879 -41.847  33.895  0.00  0.00    +0.000 C 
ENDBRANCH  24  25
ENDBRANCH   1  24
TORSDOF 7
ENDMDL
