MODEL 1
REMARK VINA RESULT:   -10.630      0.000      0.000
REMARK INTER + INTRA:         -16.831
REMARK INTER:                 -15.601
REMARK INTRA:                  -1.230
REMARK UNBOUND:                -1.230
REMARK  Name = 
REMARK  11 active torsions:
REMARK  status: ('A' for Active; 'I' for Inactive)
REMARK    1  A    between atoms: C_10  and  C_13
REMARK    2  A    between atoms: C_11  and  C_12
REMARK    3  A    between atoms: C_13  and  C_14
REMARK    4  A    between atoms: C_14  and  C_15
REMARK    5  A    between atoms: C_14  and  C_19
REMARK    6  A    between atoms: C_15  and  O_17
REMARK    7  A    between atoms: O_17  and  C_18
REMARK    8  A    between atoms: C_19  and  C_21
REMARK    9  A    between atoms: C_21  and  C_22
REMARK   10  A    between atoms: C_25  and  O_28
REMARK   11  A    between atoms: O_28  and  C_29
REMARK                            x       y       z     vdW  Elec       q    Type
REMARK                         _______ _______ _______ _____ _____    ______ ____
ROOT
ATOM      1  C   UNL     1     -13.393 -42.909  28.342  0.00  0.00    +0.000 C 
ENDROOT
BRANCH   1   2
ATOM      2  C   UNL     1     -11.942 -42.528  28.323  0.00  0.00    +0.000 C 
ATOM      3  O   UNL     1     -11.335 -42.566  27.240  0.00  0.00    +0.000 OA
BRANCH   2   4
ATOM      4  O   UNL     1     -11.273 -42.140  29.475  0.00  0.00    +0.000 OA
ATOM      5  C   UNL     1      -9.864 -42.265  29.472  0.00  0.00    +0.000 C 
ENDBRANCH   2   4
ENDBRANCH   1   2
BRANCH   1   6
ATOM      6  C   UNL     1     -13.532 -44.098  29.206  0.00  0.00    +0.000 C 
ATOM      7  O   UNL     1     -14.164 -44.024  30.237  0.00  0.00    +0.000 OA
BRANCH   6   8
ATOM      8  C   UNL     1     -12.908 -45.384  28.831  0.00  0.00    +0.000 C 
BRANCH   8   9
ATOM      9  C   UNL     1     -11.604 -45.597  29.504  0.00  0.00    +0.000 A 
ATOM     10  C   UNL     1     -10.535 -45.977  28.720  0.00  0.00    +0.000 A 
ATOM     11  C   UNL     1      -9.284 -46.199  29.266  0.00  0.00    +0.000 A 
ATOM     12  C   UNL     1      -9.068 -46.046  30.613  0.00  0.00    +0.000 A 
ATOM     13  C   UNL     1     -10.159 -45.661  31.392  0.00  0.00    +0.000 A 
ATOM     14  C   UNL     1     -11.405 -45.438  30.861  0.00  0.00    +0.000 A 
BRANCH  12  15
ATOM     15  O   UNL     1      -7.843 -46.251  31.236  0.00  0.00    +0.000 OA
ATOM     16  C   UNL     1      -7.111 -45.168  31.754  0.00  0.00    +0.000 C 
ENDBRANCH  12  15
ENDBRANCH   8   9
ENDBRANCH   6   8
ENDBRANCH   1   6
BRANCH   1  17
ATOM     17  C   UNL     1     -13.718 -43.202  26.900  0.00  0.00    +0.000 C 
BRANCH  17  27
ATOM     18  C   UNL     1     -16.559 -42.359  24.639  0.00  0.00    +0.000 A 
ATOM     19  N   UNL     1     -17.076 -42.319  23.304  0.00  0.00    +0.000 N 
ATOM     20  C   UNL     1     -18.398 -41.794  23.297  0.00  0.00    +0.000 C 
ATOM     21  O   UNL     1     -19.091 -41.647  22.265  0.00  0.00    +0.000 OA
ATOM     22  C   UNL     1     -18.711 -41.496  24.682  0.00  0.00    +0.000 C 
ATOM     23  O   UNL     1     -19.784 -41.015  25.110  0.00  0.00    +0.000 OA
ATOM     24  C   UNL     1     -17.541 -41.862  25.483  0.00  0.00    +0.000 A 
ATOM     25  C   UNL     1     -17.250 -41.808  26.836  0.00  0.00    +0.000 A 
ATOM     26  C   UNL     1     -16.011 -42.243  27.303  0.00  0.00    +0.000 A 
ATOM     27  C   UNL     1     -15.047 -42.731  26.478  0.00  0.00    +0.000 A 
ATOM     28  C   UNL     1     -15.335 -42.784  25.127  0.00  0.00    +0.000 A 
ATOM     29  C   UNL     1     -14.323 -43.308  24.164  0.00  0.00    +0.000 C 
ATOM     30  H   UNL     1     -16.553 -42.634  22.462  0.00  0.00    +0.000 HD
ENDBRANCH  17  27
ENDBRANCH   1  17
TORSDOF 8
ENDMDL
