MODEL 1
REMARK VINA RESULT:   -11.235      0.000      0.000
REMARK INTER + INTRA:         -14.841
REMARK INTER:                 -14.847
REMARK INTRA:                   0.006
REMARK UNBOUND:                 0.006
REMARK  Name = 
REMARK  8 active torsions:
REMARK  status: ('A' for Active; 'I' for Inactive)
REMARK    1  A    between atoms: C_1  and  C_10
REMARK    2  A    between atoms: C_13  and  C_15
REMARK    3  A    between atoms: C_18  and  C_19
REMARK    4  A    between atoms: C_19  and  C_20
REMARK    5  A    between atoms: C_19  and  C_28
REMARK    6  A    between atoms: C_19  and  N_34
REMARK    7  A    between atoms: C_23  and  O_26
REMARK    8  A    between atoms: O_26  and  C_27
REMARK                            x       y       z     vdW  Elec       q    Type
REMARK                         _______ _______ _______ _____ _____    ______ ____
ROOT
ATOM      1  C   UNL     1     -12.357 -43.311  28.001  0.00  0.00    +0.000 C 
ATOM      2  C   UNL     1     -11.274 -42.255  27.709  0.00  0.00    +0.000 C 
ATOM      3  N   UNL     1     -10.305 -42.157  28.732  0.00  0.00    +0.000 N 
ATOM      4  C   UNL     1      -8.935 -42.153  28.421  0.00  0.00    +0.000 C 
ATOM      5  O   UNL     1      -8.093 -42.066  29.346  0.00  0.00    +0.000 OA
ATOM      6  C   UNL     1      -8.423 -42.250  27.034  0.00  0.00    +0.000 C 
ATOM      7  C   UNL     1     -10.753 -42.059  30.091  0.00  0.00    +0.000 C 
ATOM      8  C   UNL     1     -12.244 -42.089  30.090  0.00  0.00    +0.000 C 
ATOM      9  C   UNL     1     -12.850 -43.273  29.386  0.00  0.00    +0.000 C 
ENDROOT
BRANCH   1  10
ATOM     10  C   UNL     1     -13.376 -42.900  26.977  0.00  0.00    +0.000 A 
ATOM     11  N   UNL     1     -14.698 -42.829  27.275  0.00  0.00    +0.000 NA
ATOM     12  C   UNL     1     -15.360 -42.437  26.173  0.00  0.00    +0.000 A 
ATOM     13  C   UNL     1     -14.400 -42.272  25.199  0.00  0.00    +0.000 A 
ATOM     14  N   UNL     1     -13.181 -42.560  25.705  0.00  0.00    +0.000 N 
ATOM     15  C   UNL     1     -14.753 -41.873  23.947  0.00  0.00    +0.000 A 
ATOM     16  C   UNL     1     -16.086 -41.637  23.674  0.00  0.00    +0.000 A 
ATOM     17  C   UNL     1     -17.061 -41.801  24.649  0.00  0.00    +0.000 A 
ATOM     18  C   UNL     1     -16.685 -42.201  25.894  0.00  0.00    +0.000 A 
ATOM     19  H   UNL     1     -12.257 -42.535  25.238  0.00  0.00    +0.000 HD
ENDBRANCH   1  10
BRANCH   9  20
ATOM     20  C   UNL     1     -12.793 -44.538  30.194  0.00  0.00    +0.000 C 
BRANCH  20  21
ATOM     21  C   UNL     1     -11.387 -44.967  30.406  0.00  0.00    +0.000 A 
ATOM     22  C   UNL     1     -10.732 -44.685  31.586  0.00  0.00    +0.000 A 
ATOM     23  C   UNL     1      -9.432 -45.038  31.863  0.00  0.00    +0.000 A 
ATOM     24  C   UNL     1      -8.749 -45.729  30.857  0.00  0.00    +0.000 A 
ATOM     25  C   UNL     1      -9.363 -46.034  29.661  0.00  0.00    +0.000 A 
ATOM     26  C   UNL     1     -10.685 -45.650  29.436  0.00  0.00    +0.000 A 
BRANCH  24  27
ATOM     27  O   UNL     1      -7.436 -46.106  31.087  0.00  0.00    +0.000 OA
ATOM     28  C   UNL     1      -6.592 -45.267  31.843  0.00  0.00    +0.000 C 
ENDBRANCH  24  27
ENDBRANCH  20  21
BRANCH  20  29
ATOM     29  C   UNL     1     -13.469 -44.494  31.495  0.00  0.00    +0.000 A 
ATOM     30  C   UNL     1     -13.673 -43.346  32.226  0.00  0.00    +0.000 A 
ATOM     31  C   UNL     1     -14.303 -43.338  33.437  0.00  0.00    +0.000 A 
ATOM     32  N   UNL     1     -14.748 -44.499  33.947  0.00  0.00    +0.000 NA
ATOM     33  C   UNL     1     -14.578 -45.653  33.281  0.00  0.00    +0.000 A 
ATOM     34  C   UNL     1     -13.937 -45.667  32.045  0.00  0.00    +0.000 A 
ENDBRANCH  20  29
BRANCH  20  35
ATOM     35  N   UNL     1     -13.482 -45.530  29.407  0.00  0.00    +0.000 NA
ATOM     36  H   UNL     1     -14.399 -45.313  29.057  0.00  0.00    +0.000 HD
ATOM     37  H   UNL     1     -12.927 -46.005  28.707  0.00  0.00    +0.000 HD
ENDBRANCH  20  35
ENDBRANCH   9  20
TORSDOF 6
ENDMDL
