MODEL 1
REMARK VINA RESULT:   -10.183      0.000      0.000
REMARK INTER + INTRA:         -11.491
REMARK INTER:                 -11.969
REMARK INTRA:                   0.479
REMARK UNBOUND:                 0.479
REMARK  Name = 
REMARK  4 active torsions:
REMARK  status: ('A' for Active; 'I' for Inactive)
REMARK    1  A    between atoms: C_5  and  C_9
REMARK    2  A    between atoms: C_10  and  C_11
REMARK    3  A    between atoms: N_13  and  C_14
REMARK    4  A    between atoms: C_14  and  C_15
REMARK                            x       y       z     vdW  Elec       q    Type
REMARK                         _______ _______ _______ _____ _____    ______ ____
ROOT
ATOM      1  C   UNL     1     -13.433 -43.480  28.504  0.00  0.00    +0.000 A 
ATOM      2  N   UNL     1     -13.077 -43.205  27.155  0.00  0.00    +0.000 N 
ATOM      3  C   UNL     1     -14.079 -42.802  26.249  0.00  0.00    +0.000 A 
ATOM      4  N   UNL     1     -15.346 -42.675  26.636  0.00  0.00    +0.000 NA
ATOM      5  C   UNL     1     -16.340 -42.291  25.806  0.00  0.00    +0.000 A 
ATOM      6  C   UNL     1     -16.037 -42.015  24.490  0.00  0.00    +0.000 A 
ATOM      7  C   UNL     1     -14.733 -42.133  24.041  0.00  0.00    +0.000 A 
ATOM      8  C   UNL     1     -13.748 -42.534  24.945  0.00  0.00    +0.000 A 
ATOM      9  C   UNL     1     -17.751 -42.151  26.241  0.00  0.00    +0.000 C 
ATOM     10  C   UNL     1     -12.466 -43.875  29.413  0.00  0.00    +0.000 A 
ATOM     11  N   UNL     1     -12.801 -44.142  30.699  0.00  0.00    +0.000 NA
ATOM     12  C   UNL     1     -14.064 -44.038  31.140  0.00  0.00    +0.000 A 
ATOM     13  C   UNL     1     -15.027 -43.645  30.235  0.00  0.00    +0.000 A 
ATOM     14  N   UNL     1     -14.691 -43.379  28.959  0.00  0.00    +0.000 NA
ATOM     15  H   UNL     1     -12.103 -43.292  26.804  0.00  0.00    +0.000 HD
ENDROOT
BRANCH  10  16
ATOM     16  C   UNL     1     -11.050 -43.997  28.971  0.00  0.00    +0.000 C 
ATOM     17  C   UNL     1     -10.231 -44.326  30.197  0.00  0.00    +0.000 C 
ATOM     18  N   UNL     1      -8.799 -44.427  29.905  0.00  0.00    +0.000 NA
ATOM     19  C   UNL     1      -8.306 -43.127  29.486  0.00  0.00    +0.000 C 
ATOM     20  C   UNL     1      -9.415 -42.115  29.299  0.00  0.00    +0.000 C 
ATOM     21  C   UNL     1     -10.526 -42.688  28.421  0.00  0.00    +0.000 C 
BRANCH  18  22
ATOM     22  C   UNL     1      -8.198 -44.843  31.160  0.00  0.00    +0.000 C 
BRANCH  22  23
ATOM     23  C   UNL     1      -8.142 -43.768  32.163  0.00  0.00    +0.000 A 
ATOM     24  N   UNL     1      -9.232 -43.228  32.775  0.00  0.00    +0.000 NA
ATOM     25  C   UNL     1      -8.817 -42.280  33.629  0.00  0.00    +0.000 A 
ATOM     26  N   UNL     1      -7.477 -42.173  33.602  0.00  0.00    +0.000 N 
ATOM     27  C   UNL     1      -7.067 -43.100  32.690  0.00  0.00    +0.000 A 
ATOM     28  H   UNL     1      -6.880 -41.523  34.158  0.00  0.00    +0.000 HD
ENDBRANCH  22  23
ENDBRANCH  18  22
ENDBRANCH  10  16
TORSDOF 3
ENDMDL
