MODEL 1
REMARK VINA RESULT:   -10.551      0.000      0.000
REMARK INTER + INTRA:         -14.064
REMARK INTER:                 -13.634
REMARK INTRA:                  -0.430
REMARK UNBOUND:                -0.430
REMARK  Name = 
REMARK  5 active torsions:
REMARK  status: ('A' for Active; 'I' for Inactive)
REMARK    1  A    between atoms: C_1  and  C_3
REMARK    2  A    between atoms: C_3  and  C_8
REMARK    3  A    between atoms: C_8  and  C_9
REMARK    4  A    between atoms: C_12  and  C_13
REMARK    5  A    between atoms: N_21  and  C_22
REMARK                            x       y       z     vdW  Elec       q    Type
REMARK                         _______ _______ _______ _____ _____    ______ ____
ROOT
ATOM      1  C   UNL     1     -11.840 -44.170  28.953  0.00  0.00    +0.000 C 
ATOM      2  N   UNL     1     -11.574 -42.901  28.374  0.00  0.00    +0.000 NA
ATOM      3  C   UNL     1     -10.210 -42.557  28.750  0.00  0.00    +0.000 C 
ATOM      4  C   UNL     1      -9.526 -43.821  29.149  0.00  0.00    +0.000 C 
ATOM      5  C   UNL     1     -10.507 -44.901  28.738  0.00  0.00    +0.000 C 
ATOM      6  H   UNL     1     -11.616 -42.857  27.345  0.00  0.00    +0.000 HD
ENDROOT
BRANCH   1   7
ATOM      7  C   UNL     1     -12.031 -44.014  30.416  0.00  0.00    +0.000 C 
ATOM      8  O   UNL     1     -11.560 -44.894  31.210  0.00  0.00    +0.000 OA
ATOM      9  N   UNL     1     -12.713 -42.938  31.007  0.00  0.00    +0.000 N 
ATOM     10  H   UNL     1     -13.111 -42.203  30.394  0.00  0.00    +0.000 HD
BRANCH   9  11
ATOM     11  C   UNL     1     -12.863 -42.847  32.430  0.00  0.00    +0.000 C 
ATOM     12  C   UNL     1     -13.680 -41.779  33.054  0.00  0.00    +0.000 C 
ATOM     13  C   UNL     1     -14.191 -43.177  33.065  0.00  0.00    +0.000 C 
ENDBRANCH   9  11
ENDBRANCH   1   7
BRANCH   1  14
ATOM     14  C   UNL     1     -12.956 -44.934  28.318  0.00  0.00    +0.000 C 
BRANCH  14  15
ATOM     15  C   UNL     1     -13.781 -44.171  27.395  0.00  0.00    +0.000 A 
ATOM     16  C   UNL     1     -14.696 -43.259  27.850  0.00  0.00    +0.000 A 
ATOM     17  C   UNL     1     -15.451 -42.564  26.936  0.00  0.00    +0.000 A 
ATOM     18  C   UNL     1     -15.322 -42.750  25.580  0.00  0.00    +0.000 A 
ATOM     19  C   UNL     1     -14.395 -43.676  25.106  0.00  0.00    +0.000 A 
ATOM     20  C   UNL     1     -13.650 -44.360  26.045  0.00  0.00    +0.000 A 
BRANCH  18  21
ATOM     21  C   UNL     1     -16.127 -42.009  24.615  0.00  0.00    +0.000 A 
ATOM     22  C   UNL     1     -15.503 -41.434  23.544  0.00  0.00    +0.000 A 
ATOM     23  C   UNL     1     -16.258 -40.725  22.618  0.00  0.00    +0.000 A 
ATOM     24  N   UNL     1     -17.591 -40.622  22.802  0.00  0.00    +0.000 NA
ATOM     25  C   UNL     1     -18.244 -41.172  23.842  0.00  0.00    +0.000 A 
ATOM     26  C   UNL     1     -17.473 -41.881  24.764  0.00  0.00    +0.000 A 
ENDBRANCH  18  21
ENDBRANCH  14  15
ENDBRANCH   1  14
TORSDOF 5
ENDMDL
