MODEL 1
REMARK VINA RESULT:    -9.104      0.000      0.000
REMARK INTER + INTRA:         -12.884
REMARK INTER:                 -12.297
REMARK INTRA:                  -0.587
REMARK UNBOUND:                -0.587
REMARK  Name = 
REMARK  7 active torsions:
REMARK  status: ('A' for Active; 'I' for Inactive)
REMARK    1  A    between atoms: N_1  and  C_16
REMARK    2  A    between atoms: C_2  and  C_4
REMARK    3  A    between atoms: C_4  and  O_5
REMARK    4  A    between atoms: O_5  and  C_6
REMARK    5  A    between atoms: C_7  and  O_14
REMARK    6  A    between atoms: C_9  and  C_10
REMARK    7  A    between atoms: O_14  and  C_15
REMARK                            x       y       z     vdW  Elec       q    Type
REMARK                         _______ _______ _______ _____ _____    ______ ____
ROOT
ATOM      1  C   UNL     1     -13.931 -44.041  26.386  0.00  0.00    +0.000 C 
ENDROOT
BRANCH   1   3
ATOM      2  N   UNL     1     -12.550 -45.315  28.010  0.00  0.00    +0.000 N 
ATOM      3  C   UNL     1     -12.861 -44.079  27.418  0.00  0.00    +0.000 C 
ATOM      4  O   UNL     1     -12.271 -43.037  27.732  0.00  0.00    +0.000 OA
ATOM      5  H   UNL     1     -13.097 -46.178  27.694  0.00  0.00    +0.000 HD
BRANCH   2   6
ATOM      6  C   UNL     1     -11.557 -45.552  29.016  0.00  0.00    +0.000 A 
ATOM      7  C   UNL     1     -11.920 -45.362  30.339  0.00  0.00    +0.000 A 
ATOM      8 CL   UNL     1     -13.545 -44.847  30.764  0.00  0.00    +0.000 Cl
ATOM      9  C   UNL     1     -11.008 -45.576  31.332  0.00  0.00    +0.000 A 
ATOM     10  C   UNL     1      -9.711 -45.983  31.070  0.00  0.00    +0.000 A 
ATOM     11  C   UNL     1      -9.363 -46.168  29.750  0.00  0.00    +0.000 A 
ATOM     12  C   UNL     1     -10.279 -45.954  28.742  0.00  0.00    +0.000 A 
ENDBRANCH   2   6
ENDBRANCH   1   3
BRANCH   1  13
ATOM     13  O   UNL     1     -14.292 -42.712  26.064  0.00  0.00    +0.000 OA
BRANCH  13  14
ATOM     14  C   UNL     1     -15.615 -42.350  26.273  0.00  0.00    +0.000 A 
ATOM     15  C   UNL     1     -16.470 -42.141  25.195  0.00  0.00    +0.000 A 
ATOM     16  C   UNL     1     -17.785 -41.782  25.375  0.00  0.00    +0.000 A 
ATOM     17  C   UNL     1     -18.322 -41.609  26.642  0.00  0.00    +0.000 A 
ATOM     18  C   UNL     1     -17.475 -41.814  27.715  0.00  0.00    +0.000 A 
ATOM     19  C   UNL     1     -16.162 -42.175  27.525  0.00  0.00    +0.000 A 
BRANCH  17  20
ATOM     20  C   UNL     1     -19.718 -41.227  26.832  0.00  0.00    +0.000 C 
ATOM     21  O   UNL     1     -20.270 -40.536  25.951  0.00  0.00    +0.000 OA
ENDBRANCH  17  20
BRANCH  15  22
ATOM     22  O   UNL     1     -15.981 -42.302  23.912  0.00  0.00    +0.000 OA
ATOM     23  C   UNL     1     -15.868 -41.191  23.045  0.00  0.00    +0.000 C 
ENDBRANCH  15  22
ENDBRANCH  13  14
ENDBRANCH   1  13
TORSDOF 6
ENDMDL
