MODEL 1
REMARK VINA RESULT:   -11.262      0.000      0.000
REMARK INTER + INTRA:         -13.371
REMARK INTER:                 -13.237
REMARK INTRA:                  -0.134
REMARK UNBOUND:                -0.134
REMARK  Name = 
REMARK  4 active torsions:
REMARK  status: ('A' for Active; 'I' for Inactive)
REMARK    1  A    between atoms: C_2  and  C_4
REMARK    2  A    between atoms: N_7  and  C_10
REMARK    3  A    between atoms: C_11  and  C_12
REMARK    4  A    between atoms: C_13  and  C_14
REMARK                            x       y       z     vdW  Elec       q    Type
REMARK                         _______ _______ _______ _____ _____    ______ ____
ROOT
ATOM      1  C   UNL     1      -9.691 -43.533  30.697  0.00  0.00    +0.000 A 
ATOM      2  C   UNL     1     -10.426 -43.350  31.827  0.00  0.00    +0.000 A 
ATOM      3  C   UNL     1      -9.828 -42.877  33.015  0.00  0.00    +0.000 A 
ATOM      4  N   UNL     1      -8.522 -42.618  32.992  0.00  0.00    +0.000 NA
ATOM      5  C   UNL     1      -7.774 -42.791  31.891  0.00  0.00    +0.000 A 
ATOM      6  N   UNL     1      -8.359 -43.238  30.781  0.00  0.00    +0.000 NA
ATOM      7  N   UNL     1      -6.376 -42.503  31.903  0.00  0.00    +0.000 N 
ATOM      8  H   UNL     1      -6.052 -41.731  32.522  0.00  0.00    +0.000 HD
ATOM      9  H   UNL     1      -5.765 -43.078  31.297  0.00  0.00    +0.000 HD
ENDROOT
BRANCH   1  13
ATOM     10  N   UNL     1     -11.227 -43.030  28.857  0.00  0.00    +0.000 N 
ATOM     11  C   UNL     1     -12.415 -43.474  28.273  0.00  0.00    +0.000 C 
ATOM     12  O   UNL     1     -12.574 -44.759  28.299  0.00  0.00    +0.000 OA
ATOM     13  C   UNL     1     -10.256 -43.997  29.443  0.00  0.00    +0.000 C 
ATOM     14  C   UNL     1      -9.156 -44.016  28.391  0.00  0.00    +0.000 C 
ATOM     15  C   UNL     1      -8.613 -42.682  28.061  0.00  0.00    +0.000 C 
ATOM     16  C   UNL     1      -9.400 -41.482  28.342  0.00  0.00    +0.000 C 
ATOM     17  C   UNL     1     -10.744 -41.689  28.987  0.00  0.00    +0.000 C 
BRANCH  11  18
ATOM     18  C   UNL     1     -13.493 -42.732  27.646  0.00  0.00    +0.000 C 
ATOM     19  C   UNL     1     -13.236 -42.628  26.159  0.00  0.00    +0.000 C 
ATOM     20  C   UNL     1     -14.489 -42.856  25.340  0.00  0.00    +0.000 C 
ATOM     21  N   UNL     1     -15.605 -42.088  25.861  0.00  0.00    +0.000 NA
ATOM     22  C   UNL     1     -15.918 -42.393  27.221  0.00  0.00    +0.000 C 
ATOM     23  C   UNL     1     -14.882 -43.275  27.883  0.00  0.00    +0.000 C 
ATOM     24  C   UNL     1     -16.766 -42.369  25.039  0.00  0.00    +0.000 C 
ENDBRANCH  11  18
ENDBRANCH   1  13
BRANCH   2  25
ATOM     25  C   UNL     1     -11.840 -43.647  31.872  0.00  0.00    +0.000 A 
ATOM     26  C   UNL     1     -12.868 -42.773  32.035  0.00  0.00    +0.000 A 
ATOM     27  C   UNL     1     -14.192 -43.181  32.077  0.00  0.00    +0.000 A 
ATOM     28  F   UNL     1     -15.199 -42.291  32.241  0.00  0.00    +0.000 F 
ATOM     29  C   UNL     1     -14.519 -44.514  31.953  0.00  0.00    +0.000 A 
ATOM     30  C   UNL     1     -13.498 -45.426  31.786  0.00  0.00    +0.000 A 
ATOM     31  C   UNL     1     -12.186 -44.998  31.747  0.00  0.00    +0.000 A 
ENDBRANCH   2  25
TORSDOF 3
ENDMDL
