MODEL 1
REMARK VINA RESULT:   -10.210      0.000      0.000
REMARK INTER + INTRA:         -16.623
REMARK INTER:                 -14.687
REMARK INTRA:                  -1.936
REMARK UNBOUND:                -1.936
REMARK  Name = 
REMARK  8 active torsions:
REMARK  status: ('A' for Active; 'I' for Inactive)
REMARK    1  A    between atoms: N_1  and  C_15
REMARK    2  A    between atoms: C_3  and  C_8
REMARK    3  A    between atoms: C_15  and  C_16
REMARK    4  A    between atoms: C_21  and  C_22
REMARK    5  A    between atoms: C_22  and  C_23
REMARK    6  A    between atoms: C_23  and  O_25
REMARK    7  A    between atoms: N_27  and  C_28
REMARK    8  A    between atoms: C_28  and  C_29
REMARK                            x       y       z     vdW  Elec       q    Type
REMARK                         _______ _______ _______ _____ _____    ______ ____
ROOT
ATOM      1  C   UNL     1     -18.574 -41.695  25.417  0.00  0.00    +0.000 C 
ATOM      2  C   UNL     1     -18.626 -42.312  26.798  0.00  0.00    +0.000 C 
ATOM      3  C   UNL     1     -19.985 -42.893  27.132  0.00  0.00    +0.000 C 
ATOM      4  N   UNL     1     -21.011 -41.913  26.947  0.00  0.00    +0.000 NA
ATOM      5  C   UNL     1     -20.505 -40.619  26.575  0.00  0.00    +0.000 C 
ATOM      6  C   UNL     1     -19.667 -40.680  25.312  0.00  0.00    +0.000 C 
ATOM      7  H   UNL     1     -21.544 -41.792  27.837  0.00  0.00    +0.000 HD
ENDROOT
BRANCH   6   8
ATOM      8  C   UNL     1     -20.570 -40.809  24.129  0.00  0.00    +0.000 C 
ATOM      9  C   UNL     1     -20.172 -39.826  23.067  0.00  0.00    +0.000 C 
ATOM     10  N   UNL     1     -21.176 -39.531  22.111  0.00  0.00    +0.000 NA
ATOM     11  C   UNL     1     -22.518 -39.628  22.584  0.00  0.00    +0.000 C 
ATOM     12  C   UNL     1     -22.452 -39.451  24.107  0.00  0.00    +0.000 C 
ATOM     13  O   UNL     1     -21.873 -40.590  24.605  0.00  0.00    +0.000 OA
BRANCH   8  14
ATOM     14  C   UNL     1     -20.571 -42.158  23.512  0.00  0.00    +0.000 C 
ATOM     15  O   UNL     1     -21.345 -43.097  23.908  0.00  0.00    +0.000 OA
BRANCH  14  16
ATOM     16  O   UNL     1     -19.735 -42.504  22.458  0.00  0.00    +0.000 OA
ATOM     17  H   UNL     1     -18.846 -42.015  22.401  0.00  0.00    +0.000 HD
ENDBRANCH  14  16
ENDBRANCH   8  14
BRANCH  10  18
ATOM     18  C   UNL     1     -20.944 -40.002  20.787  0.00  0.00    +0.000 C 
BRANCH  18  19
ATOM     19  C   UNL     1     -21.225 -38.906  19.823  0.00  0.00    +0.000 A 
ATOM     20  C   UNL     1     -22.084 -39.123  18.754  0.00  0.00    +0.000 A 
ATOM     21  C   UNL     1     -22.373 -38.124  17.831  0.00  0.00    +0.000 A 
ATOM     22  C   UNL     1     -21.800 -36.877  17.967  0.00  0.00    +0.000 A 
ATOM     23  F   UNL     1     -22.059 -35.879  17.085  0.00  0.00    +0.000 F 
ATOM     24  C   UNL     1     -20.940 -36.643  19.028  0.00  0.00    +0.000 A 
ATOM     25  C   UNL     1     -20.670 -37.651  19.928  0.00  0.00    +0.000 A 
ENDBRANCH  18  19
ENDBRANCH  10  18
ENDBRANCH   6   8
BRANCH   1  26
ATOM     26  C   UNL     1     -17.217 -41.031  25.284  0.00  0.00    +0.000 C 
BRANCH  26  27
ATOM     27  N   UNL     1     -16.223 -42.094  25.078  0.00  0.00    +0.000 N 
ATOM     28  N   UNL     1     -15.557 -42.614  26.087  0.00  0.00    +0.000 NA
ATOM     29  C   UNL     1     -14.626 -43.602  25.901  0.00  0.00    +0.000 A 
ATOM     30  C   UNL     1     -14.437 -44.008  24.604  0.00  0.00    +0.000 A 
ATOM     31  C   UNL     1     -15.136 -43.465  23.524  0.00  0.00    +0.000 A 
ATOM     32  C   UNL     1     -16.052 -42.477  23.801  0.00  0.00    +0.000 A 
ATOM     33  O   UNL     1     -16.708 -41.956  22.861  0.00  0.00    +0.000 OA
BRANCH  29  34
ATOM     34  C   UNL     1     -13.913 -44.148  27.049  0.00  0.00    +0.000 A 
ATOM     35  C   UNL     1     -14.220 -43.743  28.317  0.00  0.00    +0.000 A 
ATOM     36  C   UNL     1     -13.536 -44.267  29.422  0.00  0.00    +0.000 A 
ATOM     37  C   UNL     1     -12.554 -45.195  29.226  0.00  0.00    +0.000 A 
ATOM     38  C   UNL     1     -12.227 -45.619  27.968  0.00  0.00    +0.000 A 
ATOM     39  C   UNL     1     -12.910 -45.091  26.894  0.00  0.00    +0.000 A 
ATOM     40  F   UNL     1     -11.902 -45.692  30.315  0.00  0.00    +0.000 F 
ENDBRANCH  29  34
ENDBRANCH  26  27
ENDBRANCH   1  26
TORSDOF 8
ENDMDL
