MODEL 1
REMARK VINA RESULT:   -10.150      0.000      0.000
REMARK INTER + INTRA:         -12.648
REMARK INTER:                 -12.227
REMARK INTRA:                  -0.421
REMARK UNBOUND:                -0.421
REMARK  Name = 
REMARK  6 active torsions:
REMARK  status: ('A' for Active; 'I' for Inactive)
REMARK    1  A    between atoms: C_2  and  N_3
REMARK    2  A    between atoms: N_3  and  C_4
REMARK    3  A    between atoms: C_7  and  S_8
REMARK    4  A    between atoms: S_8  and  N_11
REMARK    5  A    between atoms: C_17  and  C_21
REMARK    6  A    between atoms: C_17  and  C_22
REMARK                            x       y       z     vdW  Elec       q    Type
REMARK                         _______ _______ _______ _____ _____    ______ ____
ROOT
ATOM      1  N   UNL     1     -13.894 -42.952  27.900  0.00  0.00    +0.000 N 
ATOM      2  H   UNL     1     -14.288 -43.413  28.749  0.00  0.00    +0.000 HD
ENDROOT
BRANCH   1   4
ATOM      3  C   UNL     1     -11.703 -43.514  28.586  0.00  0.00    +0.000 C 
ATOM      4  C   UNL     1     -12.493 -42.715  27.896  0.00  0.00    +0.000 C 
ATOM      5  C   UNL     1     -12.236 -44.631  29.351  0.00  0.00    +0.000 C 
ATOM      6  O   UNL     1     -13.464 -44.861  29.323  0.00  0.00    +0.000 OA
ATOM      7  C   UNL     1     -11.384 -45.523  30.172  0.00  0.00    +0.000 C 
ATOM      8  C   UNL     1      -9.955 -45.548  29.692  0.00  0.00    +0.000 C 
ATOM      9  C   UNL     1      -9.365 -44.193  29.446  0.00  0.00    +0.000 C 
ATOM     10  C   UNL     1     -10.260 -43.319  28.618  0.00  0.00    +0.000 C 
ATOM     11  O   UNL     1      -9.711 -42.409  27.952  0.00  0.00    +0.000 OA
ATOM     12  C   UNL     1      -9.824 -46.395  28.443  0.00  0.00    +0.000 C 
ATOM     13  C   UNL     1      -9.140 -46.188  30.818  0.00  0.00    +0.000 C 
ENDBRANCH   1   4
BRANCH   1  14
ATOM     14  C   UNL     1     -14.724 -42.592  26.829  0.00  0.00    +0.000 A 
ATOM     15  C   UNL     1     -16.033 -42.211  26.997  0.00  0.00    +0.000 A 
ATOM     16  C   UNL     1     -16.802 -41.868  25.904  0.00  0.00    +0.000 A 
ATOM     17  C   UNL     1     -16.280 -41.900  24.606  0.00  0.00    +0.000 A 
ATOM     18  C   UNL     1     -14.965 -42.283  24.439  0.00  0.00    +0.000 A 
ATOM     19  C   UNL     1     -14.237 -42.614  25.539  0.00  0.00    +0.000 A 
BRANCH  17  20
ATOM     20  S   UNL     1     -17.267 -41.463  23.227  0.00  0.00    +0.000 S 
ATOM     21  O   UNL     1     -16.564 -40.437  22.379  0.00  0.00    +0.000 OA
ATOM     22  O   UNL     1     -18.584 -40.948  23.730  0.00  0.00    +0.000 OA
BRANCH  20  23
ATOM     23  N   UNL     1     -17.524 -42.853  22.243  0.00  0.00    +0.000 NA
ATOM     24  H   UNL     1     -17.506 -43.745  22.810  0.00  0.00    +0.000 HD
ATOM     25  H   UNL     1     -16.753 -42.972  21.526  0.00  0.00    +0.000 HD
ENDBRANCH  20  23
ENDBRANCH  17  20
ENDBRANCH   1  14
TORSDOF 4
ENDMDL
