MODEL 1
REMARK VINA RESULT:   -10.361      0.000      0.000
REMARK INTER + INTRA:         -12.889
REMARK INTER:                 -12.481
REMARK INTRA:                  -0.408
REMARK UNBOUND:                -0.408
REMARK  Name = 
REMARK  6 active torsions:
REMARK  status: ('A' for Active; 'I' for Inactive)
REMARK    1  A    between atoms: C_1  and  C_18
REMARK    2  A    between atoms: C_5  and  N_6
REMARK    3  A    between atoms: C_13  and  O_15
REMARK    4  A    between atoms: O_15  and  C_16
REMARK    5  A    between atoms: C_16  and  C_17
REMARK    6  A    between atoms: C_22  and  C_26
REMARK                            x       y       z     vdW  Elec       q    Type
REMARK                         _______ _______ _______ _____ _____    ______ ____
ROOT
ATOM      1  C   UNL     1     -13.402 -44.289  29.001  0.00  0.00    +0.000 A 
ATOM      2  S   UNL     1     -12.795 -44.476  27.297  0.00  0.00    +0.000 S 
ATOM      3  C   UNL     1     -14.138 -43.643  26.545  0.00  0.00    +0.000 A 
ATOM      4  C   UNL     1     -14.937 -43.284  27.578  0.00  0.00    +0.000 A 
ATOM      5  C   UNL     1     -14.563 -43.613  28.833  0.00  0.00    +0.000 A 
ATOM      6  C   UNL     1     -16.101 -42.583  27.184  0.00  0.00    +0.000 A 
ATOM      7  C   UNL     1     -16.316 -42.335  25.844  0.00  0.00    +0.000 A 
ATOM      8  C   UNL     1     -15.463 -42.727  24.838  0.00  0.00    +0.000 A 
ATOM      9  N   UNL     1     -14.364 -43.391  25.237  0.00  0.00    +0.000 NA
ATOM     10  C   UNL     1     -15.697 -42.465  23.497  0.00  0.00    +0.000 A 
ATOM     11  C   UNL     1     -16.840 -41.777  23.152  0.00  0.00    +0.000 A 
ATOM     12  C   UNL     1     -17.724 -41.364  24.135  0.00  0.00    +0.000 A 
ATOM     13  C   UNL     1     -17.460 -41.643  25.457  0.00  0.00    +0.000 A 
ENDROOT
BRANCH   1  14
ATOM     14  C   UNL     1     -12.755 -44.770  30.200  0.00  0.00    +0.000 C 
ATOM     15  O   UNL     1     -13.353 -45.606  30.959  0.00  0.00    +0.000 OA
ATOM     16  N   UNL     1     -11.462 -44.328  30.548  0.00  0.00    +0.000 N 
ATOM     17  C   UNL     1     -10.744 -43.395  29.743  0.00  0.00    +0.000 C 
ATOM     18  C   UNL     1      -9.411 -42.997  30.371  0.00  0.00    +0.000 C 
ATOM     19  C   UNL     1      -8.607 -44.149  30.861  0.00  0.00    +0.000 C 
ATOM     20  C   UNL     1      -9.449 -45.304  31.342  0.00  0.00    +0.000 C 
ATOM     21  C   UNL     1     -10.834 -44.835  31.766  0.00  0.00    +0.000 C 
ATOM     22  C   UNL     1      -8.629 -42.304  29.253  0.00  0.00    +0.000 C 
ENDBRANCH   1  14
BRANCH   5  23
ATOM     23  N   UNL     1     -15.346 -43.279  30.029  0.00  0.00    +0.000 N 
ATOM     24  H   UNL     1     -16.376 -43.158  29.964  0.00  0.00    +0.000 HD
ATOM     25  H   UNL     1     -14.896 -43.160  30.950  0.00  0.00    +0.000 HD
ENDBRANCH   5  23
BRANCH  12  26
ATOM     26  O   UNL     1     -18.875 -40.669  23.794  0.00  0.00    +0.000 OA
BRANCH  26  27
ATOM     27  C   UNL     1     -19.353 -40.535  22.486  0.00  0.00    +0.000 C 
ATOM     28  C   UNL     1     -19.270 -39.115  22.017  0.00  0.00    +0.000 C 
ENDBRANCH  26  27
ENDBRANCH  12  26
TORSDOF 4
ENDMDL
