MODEL 1
REMARK VINA RESULT:    -9.165      0.000      0.000
REMARK INTER + INTRA:         -12.548
REMARK INTER:                 -11.308
REMARK INTRA:                  -1.239
REMARK UNBOUND:                -1.239
REMARK  Name = =
REMARK  4 active torsions:
REMARK  status: ('A' for Active; 'I' for Inactive)
REMARK    1  A    between atoms: C_1  and  C_18
REMARK    2  A    between atoms: C_1  and  N_23
REMARK    3  A    between atoms: C_3  and  N_30
REMARK    4  A    between atoms: C_35  and  N_36
REMARK                            x       y       z     vdW  Elec       q    Type
REMARK                         _______ _______ _______ _____ _____    ______ ____
ROOT
ATOM      1  C   UNL     1       0.125  -6.211  29.969  0.00  0.00    +0.186 C 
ATOM      2  O   UNL     1       0.327  -5.164  29.096  0.00  0.00    -0.322 OA
ATOM      3  C   UNL     1      -0.071  -3.963  29.556  0.00  0.00    +0.209 C 
ATOM      4  C   UNL     1      -1.541  -3.962  29.849  0.00  0.00    +0.188 C 
ATOM      5  O   UNL     1      -2.013  -2.710  30.096  0.00  0.00    -0.325 OA
ATOM      6  C   UNL     1      -3.411  -2.772  30.265  0.00  0.00    +0.264 C 
ATOM      7  O   UNL     1      -3.806  -1.499  30.646  0.00  0.00    -0.321 OA
ATOM      8  C   UNL     1      -5.128  -1.435  31.083  0.00  0.00    +0.209 C 
ATOM      9  C   UNL     1      -5.198  -2.219  32.332  0.00  0.00    +0.183 C 
ATOM     10  O   UNL     1      -6.055  -2.014  33.144  0.00  0.00    -0.293 OA
ATOM     11  C   UNL     1      -4.179  -3.267  32.556  0.00  0.00    +0.102 C 
ATOM     12  C   UNL     1      -3.827  -3.826  31.212  0.00  0.00    +0.179 C 
ATOM     13  O   UNL     1      -3.145  -4.990  31.193  0.00  0.00    -0.350 OA
ATOM     14  C   UNL     1      -1.797  -4.947  30.961  0.00  0.00    +0.151 C 
ATOM     15  C   UNL     1      -1.330  -6.285  30.412  0.00  0.00    +0.084 C 
ENDROOT
BRANCH   1  18
ATOM     16  F   UNL     1       2.311  -6.499  28.242  0.00  0.00    -0.204 F 
ATOM     17  C   UNL     1       1.450  -7.553  28.278  0.00  0.00    +0.140 C 
ATOM     18  C   UNL     1       0.345  -7.442  29.110  0.00  0.00    +0.048 C 
ATOM     19  C   UNL     1      -0.529  -8.494  29.147  0.00  0.00    +0.002 C 
ATOM     20  C   UNL     1      -0.298  -9.628  28.364  0.00  0.00    -0.000 C 
ATOM     21  C   UNL     1       0.803  -9.728  27.542  0.00  0.00    +0.002 C 
ATOM     22  C   UNL     1       1.683  -8.665  27.508  0.00  0.00    +0.029 C 
ENDBRANCH   1  18
BRANCH   1  23
ATOM     23  N   UNL     1       1.023  -6.306  31.080  0.00  0.00    -0.206 N 
ATOM     24  C   UNL     1       0.936  -7.148  32.256  0.00  0.00    +0.234 C 
ATOM     25  O   UNL     1       0.498  -8.324  32.270  0.00  0.00    -0.274 OA
ATOM     26  C   UNL     1       1.459  -6.329  33.367  0.00  0.00    +0.095 C 
ATOM     27  C   UNL     1       2.432  -5.398  32.741  0.00  0.00    +0.095 C 
ATOM     28  C   UNL     1       2.256  -5.569  31.282  0.00  0.00    +0.234 C 
ATOM     29  O   UNL     1       3.037  -5.150  30.413  0.00  0.00    -0.274 OA
ENDBRANCH   1  23
BRANCH   3  30
ATOM     30  N   UNL     1       0.206  -2.864  28.674  0.00  0.00    -0.231 NA
ATOM     31  C   UNL     1       0.607  -1.648  29.238  0.00  0.00    +0.095 C 
ATOM     32  C   UNL     1       1.802  -1.016  28.535  0.00  0.00    +0.106 C 
ATOM     33  N   UNL     1       2.666  -2.013  27.975  0.00  0.00    -0.213 NA
ATOM     34  C   UNL     1       1.954  -2.754  26.959  0.00  0.00    +0.126 C 
ATOM     35  C   UNL     1       0.573  -3.158  27.350  0.00  0.00    +0.160 C 
BRANCH  35  36
ATOM     36  N   UNL     1      -0.382  -2.524  26.468  0.00  0.00    -0.237 N 
ATOM     37  C   UNL     1      -1.714  -2.475  26.560  0.00  0.00    +0.193 C 
ATOM     38  N   UNL     1      -2.154  -1.776  25.503  0.00  0.00    -0.128 NA
ATOM     39  N   UNL     1      -1.139  -1.390  24.756  0.00  0.00    -0.128 NA
ATOM     40  C   UNL     1      -0.034  -1.856  25.356  0.00  0.00    +0.193 C 
ENDBRANCH  35  36
ENDBRANCH   3  30
TORSDOF 4
ENDMDL
