REMARK  Name = =
REMARK  0 active torsions:
REMARK  status: ('A' for Active; 'I' for Inactive)
REMARK                            x       y       z     vdW  Elec       q    Type
REMARK                         _______ _______ _______ _____ _____    ______ ____
ROOT
ATOM      1  C   UNL     1     -13.116 -44.917  27.327  0.00  0.00    +0.032 C 
ATOM      2  C   UNL     1     -11.953 -44.935  28.057  0.00  0.00    +0.167 C 
ATOM      3  C   UNL     1     -11.363 -43.752  28.435  0.00  0.00    +0.167 C 
ATOM      4  C   UNL     1     -11.950 -42.556  28.074  0.00  0.00    +0.032 C 
ATOM      5  C   UNL     1     -13.109 -42.507  27.345  0.00  0.00    +0.002 C 
ATOM      6  C   UNL     1     -13.699 -43.719  26.967  0.00  0.00    +0.002 C 
ATOM      7  F   UNL     1     -10.221 -43.747  29.154  0.00  0.00    -0.202 F 
ATOM      8  F   UNL     1     -11.375 -46.118  28.414  0.00  0.00    -0.202 F 
ENDROOT
TORSDOF 0
