REMARK  Name = =
REMARK  4 active torsions:
REMARK  status: ('A' for Active; 'I' for Inactive)
REMARK    1  A    between atoms: C_7  and  C_15
REMARK    2  A    between atoms: C_11  and  C_32
REMARK    3  A    between atoms: C_36  and  C_40
REMARK    4  A    between atoms: C_40  and  O_42
REMARK                            x       y       z     vdW  Elec       q    Type
REMARK                         _______ _______ _______ _____ _____    ______ ____
ROOT
ATOM      1  N   UNL     1     -15.097 -41.909  26.355  0.00  0.00    -0.246 NA
ATOM      2  C   UNL     1     -15.582 -41.612  25.137  0.00  0.00    +0.081 C 
ATOM      3  C   UNL     1     -16.946 -41.575  24.891  0.00  0.00    +0.018 C 
ATOM      4  C   UNL     1     -17.795 -41.850  25.939  0.00  0.00    +0.003 C 
ATOM      5  C   UNL     1     -17.286 -42.153  27.191  0.00  0.00    +0.017 C 
ATOM      6  C   UNL     1     -15.902 -42.175  27.367  0.00  0.00    +0.077 C 
ATOM      7  C   UNL     1     -15.365 -42.443  28.579  0.00  0.00    -0.005 C 
ATOM      8  C   UNL     1     -16.265 -42.696  29.634  0.00  0.00    -0.003 C 
ATOM      9  C   UNL     1     -17.626 -42.674  29.448  0.00  0.00    -0.000 C 
ATOM     10  C   UNL     1     -18.166 -42.399  28.209  0.00  0.00    +0.001 C 
ATOM     11  C   UNL     1     -17.489 -41.284  23.650  0.00  0.00    +0.004 C 
ATOM     12  C   UNL     1     -16.613 -41.020  22.621  0.00  0.00    +0.000 C 
ATOM     13  C   UNL     1     -15.227 -41.037  22.799  0.00  0.00    +0.002 C 
ATOM     14  C   UNL     1     -14.744 -41.340  24.076  0.00  0.00    +0.019 C 
ENDROOT
BRANCH   7  15
ATOM     15  C   UNL     1     -13.954 -42.582  28.930  0.00  0.00    +0.028 C 
ATOM     16  C   UNL     1     -13.770 -42.609  30.438  0.00  0.00    +0.005 C 
ATOM     17  C   UNL     1     -12.386 -42.209  30.880  0.00  0.00    +0.004 C 
ATOM     18  C   UNL     1     -11.384 -42.684  29.948  0.00  0.00    +0.018 C 
ATOM     19  C   UNL     1     -10.513 -43.830  30.286  0.00  0.00    +0.004 C 
ATOM     20  C   UNL     1      -9.213 -43.626  29.497  0.00  0.00    +0.005 C 
ATOM     21  C   UNL     1      -8.306 -44.726  29.913  0.00  0.00    +0.000 C 
ATOM     22  C   UNL     1      -8.824 -46.107  29.738  0.00  0.00    +0.000 C 
ATOM     23  C   UNL     1      -8.191 -46.944  30.834  0.00  0.00    +0.000 C 
ATOM     24  C   UNL     1      -7.656 -45.962  31.851  0.00  0.00    +0.000 C 
ATOM     25  C   UNL     1      -8.139 -44.620  31.423  0.00  0.00    +0.000 C 
ATOM     26  C   UNL     1     -10.302 -46.291  29.838  0.00  0.00    +0.000 C 
ATOM     27  C   UNL     1     -11.144 -45.081  29.674  0.00  0.00    +0.000 C 
ATOM     28  C   UNL     1      -9.407 -43.444  28.040  0.00  0.00    +0.025 C 
ATOM     29  C   UNL     1     -10.698 -42.807  27.659  0.00  0.00    -0.035 C 
ATOM     30  C   UNL     1     -11.613 -42.454  28.532  0.00  0.00    -0.048 C 
ATOM     31  C   UNL     1     -12.942 -41.813  28.182  0.00  0.00    +0.026 C 
ENDBRANCH   7  15
BRANCH  11  32
ATOM     32  C   UNL     1     -18.932 -41.221  23.458  0.00  0.00    +0.030 C 
ATOM     33  C   UNL     1     -19.763 -42.270  23.758  0.00  0.00    +0.167 C 
ATOM     34  C   UNL     1     -21.134 -42.210  23.539  0.00  0.00    +0.168 C 
ATOM     35  C   UNL     1     -21.669 -41.043  22.997  0.00  0.00    +0.038 C 
ATOM     36  C   UNL     1     -20.860 -39.974  22.685  0.00  0.00    +0.078 C 
ATOM     37  C   UNL     1     -19.499 -40.081  22.922  0.00  0.00    +0.009 C 
ATOM     38  F   UNL     1     -21.954 -43.222  23.834  0.00  0.00    -0.202 F 
ATOM     39  F   UNL     1     -19.258 -43.412  24.286  0.00  0.00    -0.202 F 
BRANCH  36  40
ATOM     40  C   UNL     1     -21.438 -38.758  22.095  0.00  0.00    +0.338 C 
ATOM     41  O   UNL     1     -22.669 -38.686  21.933  0.00  0.00    -0.245 OA
BRANCH  40  42
ATOM     42  O   UNL     1     -20.647 -37.681  21.712  0.00  0.00    -0.477 OA
ATOM     43  H   UNL     1     -19.718 -37.718  21.827  0.00  0.00    +0.295 HD
ENDBRANCH  40  42
ENDBRANCH  36  40
ENDBRANCH  11  32
TORSDOF 4
