MODEL 1
REMARK VINA RESULT:    -8.217      0.000      0.000
REMARK INTER + INTRA:         -12.525
REMARK INTER:                 -13.261
REMARK INTRA:                   0.736
REMARK UNBOUND:                 0.736
REMARK  Name = =
REMARK  12 active torsions:
REMARK  status: ('A' for Active; 'I' for Inactive)
REMARK    1  A    between atoms: C_1  and  C_8
REMARK    2  A    between atoms: C_1  and  S_19
REMARK    3  A    between atoms: C_8  and  S_15
REMARK    4  A    between atoms: S_15  and  C_16
REMARK    5  A    between atoms: C_16  and  N_18
REMARK    6  A    between atoms: S_19  and  S_20
REMARK    7  A    between atoms: S_19  and  S_25
REMARK    8  A    between atoms: S_20  and  S_21
REMARK    9  A    between atoms: S_21  and  C_22
REMARK   10  A    between atoms: C_22  and  O_24
REMARK   11  A    between atoms: S_25  and  C_26
REMARK   12  A    between atoms: C_26  and  O_28
REMARK                            x       y       z     vdW  Elec       q    Type
REMARK                         _______ _______ _______ _____ _____    ______ ____
ROOT
ATOM      1  C   UNL     1     -11.980 -43.797  30.436  0.00  0.00    +0.065 C 
ATOM      2  C   UNL     1     -12.786 -42.644  30.985  0.00  0.00    +0.012 C 
ATOM      3  C   UNL     1     -14.077 -43.181  31.555  0.00  0.00    +0.001 C 
ATOM      4  C   UNL     1     -14.426 -43.982  30.268  0.00  0.00    +0.001 C 
ATOM      5  C   UNL     1     -13.163 -44.782  30.253  0.00  0.00    +0.011 C 
ATOM      6  C   UNL     1     -13.373 -45.489  31.604  0.00  0.00    +0.001 C 
ATOM      7  C   UNL     1     -13.884 -44.374  32.450  0.00  0.00    +0.000 C 
ENDROOT
BRANCH   1   8
ATOM      8  C   UNL     1     -11.556 -43.563  28.995  0.00  0.00    +0.082 C 
ATOM      9  C   UNL     1     -11.887 -42.194  28.567  0.00  0.00    -0.009 C 
ATOM     10  C   UNL     1     -12.681 -42.216  27.524  0.00  0.00    +0.038 C 
ATOM     11  C   UNL     1     -12.965 -43.594  27.122  0.00  0.00    +0.192 C 
ATOM     12  O   UNL     1     -13.716 -43.886  26.146  0.00  0.00    -0.287 OA
ATOM     13  C   UNL     1     -12.245 -44.470  28.026  0.00  0.00    +0.029 C 
ATOM     14  C   UNL     1     -12.211 -45.772  27.905  0.00  0.00    -0.000 C 
BRANCH   8  15
ATOM     15  S   UNL     1      -9.838 -44.054  28.730  0.00  0.00    -0.155 S 
ATOM     16  H   UNL     1      -9.746 -44.734  27.556  0.00  0.00    +0.099 HD
BRANCH  15  17
ATOM     17  C   UNL     1      -8.771 -42.631  28.664  0.00  0.00    +0.093 C 
ATOM     18  S   UNL     1      -8.712 -41.780  27.263  0.00  0.00    -0.029 S 
BRANCH  17  19
ATOM     19  N   UNL     1      -7.967 -42.166  29.727  0.00  0.00    -0.348 N 
ATOM     20  H   UNL     1      -8.153 -42.457  30.649  0.00  0.00    +0.143 HD
ATOM     21  H   UNL     1      -7.221 -41.550  29.547  0.00  0.00    +0.143 HD
ENDBRANCH  17  19
ENDBRANCH  15  17
ENDBRANCH   8  15
ENDBRANCH   1   8
BRANCH   1  22
ATOM     22  S   UNL     1     -10.793 -44.364  31.436  0.00  0.00    -0.065 S 
BRANCH  22  23
ATOM     23  S   UNL     1     -10.223 -43.579  32.414  0.00  0.00    -0.015 S 
BRANCH  23  24
ATOM     24  S   UNL     1      -8.703 -42.571  33.144  0.00  0.00    -0.001 S 
BRANCH  24  25
ATOM     25  C   UNL     1      -9.133 -41.616  34.582  0.00  0.00    +0.209 C 
ATOM     26  S   UNL     1     -10.684 -41.221  34.835  0.00  0.00    -0.003 S 
BRANCH  25  27
ATOM     27  O   UNL     1      -8.163 -41.213  35.474  0.00  0.00    -0.495 OA
ATOM     28  H   UNL     1      -8.407 -40.918  36.329  0.00  0.00    +0.293 HD
ENDBRANCH  25  27
ENDBRANCH  24  25
ENDBRANCH  23  24
ENDBRANCH  22  23
BRANCH  22  29
ATOM     29  S   UNL     1     -10.041 -45.681  31.297  0.00  0.00    -0.011 S 
BRANCH  29  30
ATOM     30  C   UNL     1      -8.537 -46.301  31.321  0.00  0.00    +0.209 C 
ATOM     31  S   UNL     1      -7.135 -45.416  31.270  0.00  0.00    -0.003 S 
BRANCH  30  32
ATOM     32  O   UNL     1      -8.279 -47.694  31.389  0.00  0.00    -0.495 OA
ATOM     33  H   UNL     1      -7.454 -48.032  31.103  0.00  0.00    +0.293 HD
ENDBRANCH  30  32
ENDBRANCH  29  30
ENDBRANCH  22  29
ENDBRANCH   1  22
TORSDOF 12
ENDMDL
