MODEL 1
REMARK VINA RESULT:    -9.126      0.000      0.000
REMARK INTER + INTRA:         -16.358
REMARK INTER:                 -14.195
REMARK INTRA:                  -2.163
REMARK UNBOUND:                -2.163
REMARK  Name = =
REMARK  10 active torsions:
REMARK  status: ('A' for Active; 'I' for Inactive)
REMARK    1  A    between atoms: C_1  and  N_10
REMARK    2  A    between atoms: C_2  and  C_22
REMARK    3  A    between atoms: C_9  and  S_14
REMARK    4  A    between atoms: S_14  and  S_15
REMARK    5  A    between atoms: S_15  and  N_18
REMARK    6  A    between atoms: C_22  and  C_24
REMARK    7  A    between atoms: C_29  and  C_30
REMARK    8  A    between atoms: C_39  and  O_40
REMARK    9  A    between atoms: O_40  and  C_41
REMARK   10  A    between atoms: C_41  and  O_43
REMARK                            x       y       z     vdW  Elec       q    Type
REMARK                         _______ _______ _______ _____ _____    ______ ____
ROOT
ATOM      1  C   UNL     1      -0.005  -3.229  28.886  0.00  0.00    +0.127 C 
ATOM      2  C   UNL     1       0.295  -3.037  27.609  0.00  0.00    +0.072 C 
ATOM      3  C   UNL     1      -0.665  -2.225  26.831  0.00  0.00    +0.196 C 
ATOM      4  O   UNL     1      -0.449  -1.974  25.635  0.00  0.00    -0.287 OA
ATOM      5  C   UNL     1      -1.881  -1.662  27.394  0.00  0.00    +0.045 C 
ATOM      6  C   UNL     1      -2.174  -1.859  28.651  0.00  0.00    +0.047 C 
ATOM      7  C   UNL     1      -1.246  -2.649  29.444  0.00  0.00    +0.213 C 
ATOM      8  O   UNL     1      -1.514  -2.839  30.647  0.00  0.00    -0.285 OA
ENDROOT
BRANCH   1  10
ATOM      9  C   UNL     1       0.405  -5.193  30.271  0.00  0.00    +0.237 A 
ATOM     10  N   UNL     1       0.755  -3.968  29.822  0.00  0.00    -0.182 N 
ATOM     11  N   UNL     1       1.850  -3.631  30.424  0.00  0.00    -0.038 NA
ATOM     12  N   UNL     1       2.277  -4.567  31.268  0.00  0.00    -0.022 NA
ATOM     13  N   UNL     1       1.376  -5.518  31.160  0.00  0.00    -0.099 NA
BRANCH   9  14
ATOM     14  S   UNL     1      -0.930  -6.198  29.890  0.00  0.00    +0.096 S 
BRANCH  14  15
ATOM     15  S   UNL     1      -1.997  -6.812  31.529  0.00  0.00    +0.108 S 
ATOM     16  O   UNL     1      -1.395  -7.603  32.602  0.00  0.00    -0.143 OA
ATOM     17  O   UNL     1      -2.939  -7.721  30.836  0.00  0.00    -0.143 OA
BRANCH  15  18
ATOM     18  N   UNL     1      -2.687  -5.394  32.184  0.00  0.00    -0.164 N 
ATOM     19  C   UNL     1      -3.747  -5.391  33.121  0.00  0.00    +0.317 C 
ATOM     20  O   UNL     1      -4.216  -6.509  33.505  0.00  0.00    -0.251 OA
ATOM     21  N   UNL     1      -4.262  -4.161  33.610  0.00  0.00    -0.312 N 
ATOM     22  H   UNL     1      -2.325  -4.527  31.892  0.00  0.00    +0.179 HD
ATOM     23  H   UNL     1      -3.882  -3.309  33.297  0.00  0.00    +0.147 HD
ATOM     24  H   UNL     1      -5.000  -4.161  34.262  0.00  0.00    +0.147 HD
ENDBRANCH  15  18
ENDBRANCH  14  15
ENDBRANCH   9  14
ENDBRANCH   1  10
BRANCH   2  25
ATOM     25  C   UNL     1       1.591  -3.381  27.070  0.00  0.00    +0.201 C 
ATOM     26  O   UNL     1       2.621  -2.635  27.335  0.00  0.00    -0.213 OA
BRANCH  25  27
ATOM     27  C   UNL     1       1.813  -4.535  26.228  0.00  0.00    +0.014 C 
ATOM     28  C   UNL     1       1.335  -5.773  26.735  0.00  0.00    -0.001 C 
ATOM     29  C   UNL     1       1.680  -6.941  26.119  0.00  0.00    -0.000 C 
ATOM     30  C   UNL     1       2.487  -6.924  25.010  0.00  0.00    +0.000 C 
ATOM     31  C   UNL     1       2.952  -5.699  24.513  0.00  0.00    +0.001 C 
ATOM     32  C   UNL     1       2.610  -4.512  25.123  0.00  0.00    +0.019 C 
BRANCH  32  33
ATOM     33  C   UNL     1       2.877  -3.212  24.474  0.00  0.00    +0.116 C 
ATOM     34  N   UNL     1       1.810  -2.679  23.799  0.00  0.00    -0.239 NA
ATOM     35  C   UNL     1       1.815  -1.543  23.121  0.00  0.00    +0.118 C 
ATOM     36  C   UNL     1       3.006  -0.810  23.083  0.00  0.00    +0.105 C 
ATOM     37  N   UNL     1       3.000   0.323  22.386  0.00  0.00    -0.222 NA
ATOM     38  C   UNL     1       1.908   0.772  21.730  0.00  0.00    +0.199 C 
ATOM     39  N   UNL     1       0.785   0.066  21.776  0.00  0.00    -0.221 NA
ATOM     40  C   UNL     1       0.700  -1.075  22.448  0.00  0.00    +0.121 C 
ATOM     41  C   UNL     1       4.107  -1.302  23.746  0.00  0.00    +0.060 C 
ATOM     42  C   UNL     1       4.023  -2.517  24.443  0.00  0.00    +0.171 C 
BRANCH  42  43
ATOM     43  O   UNL     1       5.172  -2.921  25.069  0.00  0.00    -0.392 OA
BRANCH  43  44
ATOM     44  C   UNL     1       5.879  -2.221  26.020  0.00  0.00    +0.513 C 
ATOM     45  O   UNL     1       7.049  -1.869  25.694  0.00  0.00    -0.203 OA
BRANCH  44  46
ATOM     46  O   UNL     1       5.352  -1.911  27.265  0.00  0.00    -0.449 OA
ATOM     47  H   UNL     1       4.729  -1.215  27.351  0.00  0.00    +0.299 HD
ENDBRANCH  44  46
ENDBRANCH  43  44
ENDBRANCH  42  43
ENDBRANCH  32  33
ENDBRANCH  25  27
ENDBRANCH   2  25
TORSDOF 10
ENDMDL
