REMARK  Name = =
REMARK  2 active torsions:
REMARK  status: ('A' for Active; 'I' for Inactive)
REMARK    1  A    between atoms: C_1  and  C_3
REMARK    2  A    between atoms: C_1  and  O_5
REMARK                            x       y       z     vdW  Elec       q    Type
REMARK                         _______ _______ _______ _____ _____    ______ ____
ROOT
ATOM      1  C   UNL     1      52.535 155.876  27.936  0.00  0.00    +0.381 C 
ATOM      2  O   UNL     1      52.763 156.508  26.856  0.00  0.00    -0.241 OA
ENDROOT
BRANCH   1   3
ATOM      3  C   UNL     1      51.951 154.568  27.858  0.00  0.00    +0.315 C 
ATOM      4  O   UNL     1      51.802 153.867  28.887  0.00  0.00    -0.276 OA
ENDBRANCH   1   3
BRANCH   1   5
ATOM      5  O   UNL     1      52.870 156.505  29.106  0.00  0.00    -0.475 OA
ATOM      6  H   UNL     1      52.721 156.078  29.927  0.00  0.00    +0.296 HD
ENDBRANCH   1   5
TORSDOF 2
