REMARK  Name = =
REMARK  0 active torsions:
REMARK  status: ('A' for Active; 'I' for Inactive)
REMARK                            x       y       z     vdW  Elec       q    Type
REMARK                         _______ _______ _______ _____ _____    ______ ____
ROOT
ATOM      1  N   UNL     1      52.779 156.751  28.185  0.00  0.00    -0.258 N 
ATOM      2  N   UNL     1      51.815 157.109  29.122  0.00  0.00    -0.189 NA
ATOM      3  C   UNL     1      51.187 156.185  29.753  0.00  0.00    +0.091 C 
ATOM      4  C   UNL     1      51.518 154.777  29.453  0.00  0.00    +0.050 C 
ATOM      5  C   UNL     1      51.785 154.535  27.988  0.00  0.00    +0.029 C 
ATOM      6  C   UNL     1      52.488 155.654  27.294  0.00  0.00    +0.107 C 
ATOM      7  H   UNL     1      53.636 157.233  28.131  0.00  0.00    +0.169 HD
ENDROOT
TORSDOF 0
