REMARK  Name = =
REMARK  3 active torsions:
REMARK  status: ('A' for Active; 'I' for Inactive)
REMARK    1  A    between atoms: C_1  and  C_3
REMARK    2  A    between atoms: C_1  and  C_8
REMARK    3  A    between atoms: C_8  and  O_10
REMARK                            x       y       z     vdW  Elec       q    Type
REMARK                         _______ _______ _______ _____ _____    ______ ____
ROOT
ATOM      1  C   UNL     1      52.368 155.726  27.601  0.00  0.00    +0.247 C 
ATOM      2  O   UNL     1      52.805 156.542  26.753  0.00  0.00    -0.284 OA
ENDROOT
BRANCH   1   3
ATOM      3  C   UNL     1      52.320 156.119  29.026  0.00  0.00    +0.069 C 
ATOM      4  C   UNL     1      50.948 156.104  29.569  0.00  0.00    +0.008 C 
ATOM      5  C   UNL     1      50.520 157.321  29.859  0.00  0.00    +0.000 C 
ATOM      6  C   UNL     1      51.564 158.334  29.545  0.00  0.00    +0.000 C 
ATOM      7  C   UNL     1      52.812 157.552  29.194  0.00  0.00    +0.008 C 
ENDBRANCH   1   3
BRANCH   1   8
ATOM      8  C   UNL     1      51.925 154.419  27.135  0.00  0.00    +0.373 C 
ATOM      9  O   UNL     1      51.714 153.460  27.931  0.00  0.00    -0.242 OA
BRANCH   8  10
ATOM     10  O   UNL     1      51.710 154.158  25.790  0.00  0.00    -0.475 OA
ATOM     11  H   UNL     1      51.850 154.831  25.154  0.00  0.00    +0.295 HD
ENDBRANCH   8  10
ENDBRANCH   1   8
TORSDOF 3
