REMARK  Name = =
REMARK  2 active torsions:
REMARK  status: ('A' for Active; 'I' for Inactive)
REMARK    1  A    between atoms: S_1  and  N_4
REMARK    2  A    between atoms: S_1  and  N_10
REMARK                            x       y       z     vdW  Elec       q    Type
REMARK                         _______ _______ _______ _____ _____    ______ ____
ROOT
ATOM      1  S   UNL     1      51.596 155.243  28.471  0.00  0.00    +0.144 S 
ATOM      2  O   UNL     1      50.141 155.003  28.166  0.00  0.00    -0.133 OA
ATOM      3  O   UNL     1      51.736 156.575  29.118  0.00  0.00    -0.133 OA
ENDROOT
BRANCH   1   4
ATOM      4  N   UNL     1      52.540 155.261  27.009  0.00  0.00    -0.099 N 
ATOM      5  N   UNL     1      52.496 154.183  26.118  0.00  0.00    -0.164 NA
ATOM      6  C   UNL     1      53.142 154.117  25.024  0.00  0.00    +0.093 C 
ATOM      7  C   UNL     1      54.023 155.257  24.629  0.00  0.00    +0.051 C 
ATOM      8  C   UNL     1      53.314 156.512  25.151  0.00  0.00    +0.032 C 
ATOM      9  C   UNL     1      53.393 156.387  26.679  0.00  0.00    +0.139 C 
ENDBRANCH   1   4
BRANCH   1  10
ATOM     10  N   UNL     1      52.201 154.011  29.515  0.00  0.00    -0.164 N 
ATOM     11  C   UNL     1      52.106 152.658  29.106  0.00  0.00    +0.320 C 
ATOM     12  O   UNL     1      51.580 152.423  27.990  0.00  0.00    -0.263 OA
ATOM     13  H   UNL     1      52.606 154.244  30.382  0.00  0.00    +0.178 HD
ENDBRANCH   1  10
TORSDOF 2
