REMARK  Name = =
REMARK  5 active torsions:
REMARK  status: ('A' for Active; 'I' for Inactive)
REMARK    1  A    between atoms: C_1  and  C_3
REMARK    2  A    between atoms: C_1  and  O_10
REMARK    3  A    between atoms: C_3  and  C_5
REMARK    4  A    between atoms: O_10  and  N_11
REMARK    5  A    between atoms: N_14  and  C_15
REMARK                            x       y       z     vdW  Elec       q    Type
REMARK                         _______ _______ _______ _____ _____    ______ ____
ROOT
ATOM      1  C   UNL     1      52.123 154.752  27.019  0.00  0.00    +0.398 C 
ATOM      2  O   UNL     1      51.245 154.034  27.581  0.00  0.00    -0.240 OA
ENDROOT
BRANCH   1   3
ATOM      3  C   UNL     1      52.619 155.965  27.633  0.00  0.00    +0.249 C 
ATOM      4  O   UNL     1      53.628 156.538  27.087  0.00  0.00    -0.284 OA
BRANCH   3   5
ATOM      5  C   UNL     1      52.052 156.591  28.848  0.00  0.00    +0.069 C 
ATOM      6  C   UNL     1      51.992 155.712  30.012  0.00  0.00    +0.008 C 
ATOM      7  C   UNL     1      50.828 155.779  30.623  0.00  0.00    +0.000 C 
ATOM      8  C   UNL     1      49.926 156.728  29.933  0.00  0.00    +0.000 C 
ATOM      9  C   UNL     1      50.646 157.092  28.677  0.00  0.00    +0.008 C 
ENDBRANCH   3   5
ENDBRANCH   1   3
BRANCH   1  10
ATOM     10  O   UNL     1      52.616 154.377  25.796  0.00  0.00    -0.339 OA
BRANCH  10  11
ATOM     11  N   UNL     1      52.500 153.146  25.355  0.00  0.00    -0.128 N 
ATOM     12  C   UNL     1      53.654 152.197  25.309  0.00  0.00    +0.334 C 
ATOM     13  O   UNL     1      54.688 152.657  25.702  0.00  0.00    -0.250 OA
ATOM     14  N   UNL     1      53.166 150.974  24.788  0.00  0.00    -0.259 N 
ATOM     15  H   UNL     1      51.619 152.836  25.043  0.00  0.00    +0.198 HD
ATOM     16  H   UNL     1      52.256 150.664  24.578  0.00  0.00    +0.153 HD
BRANCH  14  17
ATOM     17  C   UNL     1      54.716 150.206  24.646  0.00  0.00    +0.278 C 
ATOM     18  O   UNL     1      55.620 150.883  24.938  0.00  0.00    -0.196 OA
ENDBRANCH  14  17
ENDBRANCH  10  11
ENDBRANCH   1  10
TORSDOF 5
