REMARK  Name = =
REMARK  3 active torsions:
REMARK  status: ('A' for Active; 'I' for Inactive)
REMARK    1  A    between atoms: N_1  and  S_17
REMARK    2  A    between atoms: C_4  and  C_7
REMARK    3  A    between atoms: S_17  and  N_20
REMARK                            x       y       z     vdW  Elec       q    Type
REMARK                         _______ _______ _______ _____ _____    ______ ____
ROOT
ATOM      1  N   UNL     1      52.494 155.257  27.578  0.00  0.00    -0.069 NA
ATOM      2  N   UNL     1      51.450 154.906  28.436  0.00  0.00    -0.125 NA
ATOM      3  C   UNL     1      50.935 155.835  29.162  0.00  0.00    +0.114 C 
ATOM      4  C   UNL     1      51.558 157.178  28.958  0.00  0.00    +0.043 C 
ATOM      5  C   UNL     1      53.039 157.042  29.091  0.00  0.00    +0.027 C 
ATOM      6  C   UNL     1      53.590 155.992  28.170  0.00  0.00    +0.117 C 
ENDROOT
BRANCH   4   7
ATOM      7  C   UNL     1      50.955 158.247  29.735  0.00  0.00    -0.021 C 
ATOM      8  C   UNL     1      51.701 159.358  30.084  0.00  0.00    -0.003 C 
ATOM      9  C   UNL     1      51.154 160.391  30.829  0.00  0.00    +0.019 C 
ATOM     10  C   UNL     1      49.843 160.347  31.252  0.00  0.00    +0.081 C 
ATOM     11  C   UNL     1      49.093 159.224  30.899  0.00  0.00    +0.017 C 
ATOM     12  C   UNL     1      49.648 158.222  30.168  0.00  0.00    -0.003 C 
ATOM     13  C   UNL     1      47.784 159.136  31.300  0.00  0.00    +0.003 C 
ATOM     14  C   UNL     1      47.246 160.165  32.042  0.00  0.00    +0.021 C 
ATOM     15  C   UNL     1      47.978 161.276  32.394  0.00  0.00    +0.099 C 
ATOM     16  N   UNL     1      49.262 161.317  31.976  0.00  0.00    -0.244 NA
ENDBRANCH   4   7
BRANCH   1  17
ATOM     17  S   UNL     1      52.596 154.867  25.913  0.00  0.00    +0.129 S 
ATOM     18  O   UNL     1      53.013 156.118  25.165  0.00  0.00    -0.137 OA
ATOM     19  O   UNL     1      51.245 154.435  25.406  0.00  0.00    -0.137 OA
BRANCH  17  20
ATOM     20  N   UNL     1      53.729 153.610  25.605  0.00  0.00    -0.166 N 
ATOM     21  C   UNL     1      53.583 152.285  26.050  0.00  0.00    +0.320 C 
ATOM     22  O   UNL     1      52.566 151.972  26.718  0.00  0.00    -0.263 OA
ATOM     23  H   UNL     1      54.533 153.834  25.082  0.00  0.00    +0.178 HD
ENDBRANCH  17  20
ENDBRANCH   1  17
TORSDOF 3
