REMARK  Name = =
REMARK  5 active torsions:
REMARK  status: ('A' for Active; 'I' for Inactive)
REMARK    1  A    between atoms: C_1  and  C_3
REMARK    2  A    between atoms: C_1  and  C_14
REMARK    3  A    between atoms: C_3  and  C_8
REMARK    4  A    between atoms: C_14  and  O_16
REMARK    5  A    between atoms: O_16  and  N_17
REMARK                            x       y       z     vdW  Elec       q    Type
REMARK                         _______ _______ _______ _____ _____    ______ ____
ROOT
ATOM      1  C   UNL     1      51.369 154.157  27.704  0.00  0.00    +0.252 C 
ATOM      2  O   UNL     1      50.789 153.045  28.008  0.00  0.00    -0.211 OA
ENDROOT
BRANCH   1   3
ATOM      3  C   UNL     1      51.295 155.226  28.680  0.00  0.00    +0.039 C 
ATOM      4  C   UNL     1      51.903 154.734  29.950  0.00  0.00    +0.003 C 
ATOM      5  C   UNL     1      51.012 154.257  30.764  0.00  0.00    +0.000 C 
ATOM      6  C   UNL     1      49.657 154.374  30.109  0.00  0.00    +0.000 C 
ATOM      7  C   UNL     1      49.842 155.396  29.058  0.00  0.00    +0.003 C 
BRANCH   3   8
ATOM      8  C   UNL     1      51.967 156.509  28.344  0.00  0.00    +0.011 C 
ATOM      9  C   UNL     1      53.203 156.756  29.180  0.00  0.00    +0.065 C 
ATOM     10  C   UNL     1      53.424 158.195  28.944  0.00  0.00    +0.151 C 
ATOM     11  O   UNL     1      54.516 158.814  28.982  0.00  0.00    -0.296 OA
ATOM     12  C   UNL     1      52.090 158.745  28.658  0.00  0.00    +0.065 C 
ATOM     13  C   UNL     1      51.261 157.742  28.312  0.00  0.00    +0.008 C 
ENDBRANCH   3   8
ENDBRANCH   1   3
BRANCH   1  14
ATOM     14  C   UNL     1      52.023 154.231  26.432  0.00  0.00    +0.369 C 
ATOM     15  O   UNL     1      51.530 154.333  25.291  0.00  0.00    -0.245 OA
BRANCH  14  16
ATOM     16  O   UNL     1      53.452 154.165  26.394  0.00  0.00    -0.343 OA
BRANCH  16  17
ATOM     17  N   UNL     1      54.191 154.571  25.427  0.00  0.00    -0.128 N 
ATOM     18  C   UNL     1      54.257 155.878  24.737  0.00  0.00    +0.338 C 
ATOM     19  O   UNL     1      53.494 156.715  25.010  0.00  0.00    -0.249 OA
ATOM     20  N   UNL     1      55.382 155.774  23.810  0.00  0.00    -0.230 N 
ATOM     21  C   UNL     1      55.405 157.464  23.388  0.00  0.00    +0.307 C 
ATOM     22  O   UNL     1      54.656 158.143  23.940  0.00  0.00    -0.265 OA
ATOM     23  H   UNL     1      54.822 153.897  25.086  0.00  0.00    +0.198 HD
ATOM     24  H   UNL     1      55.936 155.012  23.523  0.00  0.00    +0.160 HD
ENDBRANCH  16  17
ENDBRANCH  14  16
ENDBRANCH   1  14
TORSDOF 5
