REMARK  Name = =
REMARK  8 active torsions:
REMARK  status: ('A' for Active; 'I' for Inactive)
REMARK    1  A    between atoms: C_1  and  C_6
REMARK    2  A    between atoms: C_1  and  C_19
REMARK    3  A    between atoms: C_3  and  C_12
REMARK    4  A    between atoms: C_13  and  O_18
REMARK    5  A    between atoms: C_19  and  C_21
REMARK    6  A    between atoms: C_21  and  O_23
REMARK    7  A    between atoms: O_23  and  N_24
REMARK    8  A    between atoms: N_27  and  C_28
REMARK                            x       y       z     vdW  Elec       q    Type
REMARK                         _______ _______ _______ _____ _____    ______ ____
ROOT
ATOM      1  C   UNL     1      51.659 157.838  29.371  0.00  0.00    +0.040 C 
ATOM      2  C   UNL     1      50.615 158.804  29.192  0.00  0.00    +0.007 C 
ATOM      3  C   UNL     1      50.400 159.507  30.324  0.00  0.00    +0.025 C 
ATOM      4  C   UNL     1      51.417 159.097  31.352  0.00  0.00    +0.005 C 
ATOM      5  C   UNL     1      52.511 158.493  30.518  0.00  0.00    +0.003 C 
ENDROOT
BRANCH   1   6
ATOM      6  C   UNL     1      51.159 156.543  29.971  0.00  0.00    +0.011 C 
ATOM      7  C   UNL     1      51.826 155.288  29.521  0.00  0.00    +0.065 C 
ATOM      8  C   UNL     1      50.829 154.300  30.119  0.00  0.00    +0.151 C 
ATOM      9  O   UNL     1      50.940 153.280  30.761  0.00  0.00    -0.296 OA
ATOM     10  C   UNL     1      49.545 154.924  29.702  0.00  0.00    +0.065 C 
ATOM     11  C   UNL     1      49.746 156.251  29.613  0.00  0.00    +0.008 C 
ENDBRANCH   1   6
BRANCH   3  12
ATOM     12  C   UNL     1      49.435 160.560  30.563  0.00  0.00    +0.011 C 
ATOM     13  C   UNL     1      49.168 161.007  31.830  0.00  0.00    +0.130 C 
ATOM     14  C   UNL     1      48.247 162.036  32.080  0.00  0.00    +0.036 C 
ATOM     15  C   UNL     1      47.593 162.613  31.024  0.00  0.00    +0.003 C 
ATOM     16  C   UNL     1      47.833 162.196  29.753  0.00  0.00    -0.000 C 
ATOM     17  C   UNL     1      48.751 161.175  29.542  0.00  0.00    -0.001 C 
BRANCH  13  18
ATOM     18  O   UNL     1      49.781 160.477  32.931  0.00  0.00    -0.506 OA
ATOM     19  H   UNL     1      50.407 159.787  32.832  0.00  0.00    +0.292 HD
ENDBRANCH  13  18
ENDBRANCH   3  12
BRANCH   1  20
ATOM     20  C   UNL     1      52.625 157.551  28.341  0.00  0.00    +0.252 C 
ATOM     21  O   UNL     1      53.787 158.098  28.594  0.00  0.00    -0.211 OA
BRANCH  20  22
ATOM     22  C   UNL     1      52.514 156.785  27.116  0.00  0.00    +0.369 C 
ATOM     23  O   UNL     1      51.979 157.182  26.069  0.00  0.00    -0.245 OA
BRANCH  22  24
ATOM     24  O   UNL     1      53.033 155.508  27.101  0.00  0.00    -0.343 OA
BRANCH  24  25
ATOM     25  N   UNL     1      52.905 154.553  26.258  0.00  0.00    -0.128 N 
ATOM     26  C   UNL     1      53.817 154.592  25.028  0.00  0.00    +0.334 C 
ATOM     27  O   UNL     1      54.527 155.543  24.919  0.00  0.00    -0.250 OA
ATOM     28  N   UNL     1      53.596 153.436  24.305  0.00  0.00    -0.259 N 
ATOM     29  H   UNL     1      52.252 153.829  26.394  0.00  0.00    +0.198 HD
ATOM     30  H   UNL     1      52.944 152.707  24.419  0.00  0.00    +0.153 HD
BRANCH  28  31
ATOM     31  C   UNL     1      54.862 153.697  23.116  0.00  0.00    +0.278 C 
ATOM     32  O   UNL     1      55.454 154.666  23.272  0.00  0.00    -0.196 OA
ENDBRANCH  28  31
ENDBRANCH  24  25
ENDBRANCH  22  24
ENDBRANCH  20  22
ENDBRANCH   1  20
TORSDOF 8
