REMARK  Name = =
REMARK  7 active torsions:
REMARK  status: ('A' for Active; 'I' for Inactive)
REMARK    1  A    between atoms: C_1  and  C_6
REMARK    2  A    between atoms: C_1  and  C_25
REMARK    3  A    between atoms: C_13  and  O_24
REMARK    4  A    between atoms: C_25  and  C_27
REMARK    5  A    between atoms: C_27  and  O_29
REMARK    6  A    between atoms: O_29  and  N_30
REMARK    7  A    between atoms: N_33  and  C_34
REMARK                            x       y       z     vdW  Elec       q    Type
REMARK                         _______ _______ _______ _____ _____    ______ ____
ROOT
ATOM      1  C   UNL     1      52.760 156.691  28.343  0.00  0.00    +0.071 C 
ATOM      2  C   UNL     1      51.827 157.740  28.618  0.00  0.00    +0.052 C 
ATOM      3  C   UNL     1      52.301 158.652  29.459  0.00  0.00    +0.035 C 
ATOM      4  C   UNL     1      53.637 158.112  29.950  0.00  0.00    +0.006 C 
ATOM      5  C   UNL     1      54.108 157.434  28.681  0.00  0.00    +0.009 C 
ATOM      6  C   UNL     1      51.652 159.858  29.988  0.00  0.00    +0.009 C 
ATOM      7  C   UNL     1      52.554 160.756  30.583  0.00  0.00    +0.129 C 
ATOM      8  C   UNL     1      52.138 162.005  31.133  0.00  0.00    +0.036 C 
ATOM      9  C   UNL     1      50.818 162.245  31.030  0.00  0.00    +0.003 C 
ATOM     10  C   UNL     1      49.922 161.372  30.454  0.00  0.00    -0.003 C 
ATOM     11  C   UNL     1      50.297 160.176  29.928  0.00  0.00    -0.006 C 
ATOM     12  C   UNL     1      49.311 159.234  29.425  0.00  0.00    +0.139 C 
ATOM     13  S   UNL     1      49.948 157.508  29.712  0.00  0.00    -0.149 S 
ATOM     14  C   UNL     1      48.315 156.679  29.936  0.00  0.00    +0.140 C 
ATOM     15  N   UNL     1      47.427 157.818  29.845  0.00  0.00    -0.295 N 
ATOM     16  C   UNL     1      48.076 159.047  30.281  0.00  0.00    +0.236 C 
ATOM     17  O   UNL     1      47.575 159.701  31.188  0.00  0.00    -0.274 OA
ATOM     18  H   UNL     1      46.497 157.768  29.527  0.00  0.00    +0.150 HD
ENDROOT
BRANCH   1  19
ATOM     19  C   UNL     1      52.848 155.458  29.160  0.00  0.00    +0.016 C 
ATOM     20  C   UNL     1      52.924 154.287  28.187  0.00  0.00    +0.065 C 
ATOM     21  C   UNL     1      52.080 153.234  28.791  0.00  0.00    +0.151 C 
ATOM     22  O   UNL     1      52.040 152.030  28.452  0.00  0.00    -0.296 OA
ATOM     23  C   UNL     1      51.329 153.885  29.836  0.00  0.00    +0.065 C 
ATOM     24  C   UNL     1      51.750 155.122  30.046  0.00  0.00    +0.009 C 
ENDBRANCH   1  19
BRANCH   7  25
ATOM     25  O   UNL     1      53.873 160.507  30.654  0.00  0.00    -0.506 OA
ATOM     26  H   UNL     1      54.218 159.705  30.312  0.00  0.00    +0.292 HD
ENDBRANCH   7  25
BRANCH   1  27
ATOM     27  C   UNL     1      52.816 156.380  26.882  0.00  0.00    +0.250 C 
ATOM     28  O   UNL     1      53.592 156.961  26.105  0.00  0.00    -0.284 OA
BRANCH  27  29
ATOM     29  C   UNL     1      51.927 155.352  26.415  0.00  0.00    +0.398 C 
ATOM     30  O   UNL     1      50.758 155.180  26.873  0.00  0.00    -0.240 OA
BRANCH  29  31
ATOM     31  O   UNL     1      52.294 154.413  25.407  0.00  0.00    -0.339 OA
BRANCH  31  32
ATOM     32  N   UNL     1      51.981 153.125  25.638  0.00  0.00    -0.128 N 
ATOM     33  C   UNL     1      53.197 152.195  25.436  0.00  0.00    +0.334 C 
ATOM     34  O   UNL     1      54.185 152.806  25.056  0.00  0.00    -0.250 OA
ATOM     35  N   UNL     1      52.823 150.956  25.748  0.00  0.00    -0.259 N 
ATOM     36  H   UNL     1      51.086 152.813  25.904  0.00  0.00    +0.198 HD
ATOM     37  H   UNL     1      52.056 150.615  26.263  0.00  0.00    +0.153 HD
BRANCH  35  38
ATOM     38  C   UNL     1      54.138 150.132  24.946  0.00  0.00    +0.278 C 
ATOM     39  O   UNL     1      54.866 150.857  24.356  0.00  0.00    -0.196 OA
ENDBRANCH  35  38
ENDBRANCH  31  32
ENDBRANCH  29  31
ENDBRANCH  27  29
ENDBRANCH   1  27
TORSDOF 7
