REMARK  Name = =
REMARK  11 active torsions:
REMARK  status: ('A' for Active; 'I' for Inactive)
REMARK    1  A    between atoms: C_1  and  C_6
REMARK    2  A    between atoms: C_1  and  C_33
REMARK    3  A    between atoms: C_3  and  C_20
REMARK    4  A    between atoms: C_6  and  C_12
REMARK    5  A    between atoms: C_12  and  C_14
REMARK    6  A    between atoms: C_21  and  O_32
REMARK    7  A    between atoms: C_25  and  C_26
REMARK    8  A    between atoms: C_33  and  C_35
REMARK    9  A    between atoms: C_35  and  O_37
REMARK   10  A    between atoms: O_37  and  N_38
REMARK   11  A    between atoms: N_41  and  C_42
REMARK                            x       y       z     vdW  Elec       q    Type
REMARK                         _______ _______ _______ _____ _____    ______ ____
ROOT
ATOM      1  C   UNL     1      61.192 164.093  38.925  0.00  0.00    +0.046 C 
ATOM      2  C   UNL     1      60.860 164.951  40.087  0.00  0.00    +0.008 C 
ATOM      3  C   UNL     1      61.307 166.177  40.005  0.00  0.00    +0.025 C 
ATOM      4  C   UNL     1      61.925 166.286  38.660  0.00  0.00    +0.005 C 
ATOM      5  C   UNL     1      62.459 164.896  38.450  0.00  0.00    +0.004 C 
ENDROOT
BRANCH   1   6
ATOM      6  C   UNL     1      61.658 162.702  39.303  0.00  0.00    +0.061 C 
ATOM      7  C   UNL     1      60.890 162.033  40.373  0.00  0.00    +0.076 C 
ATOM      8  C   UNL     1      60.389 160.766  39.822  0.00  0.00    +0.173 C 
ATOM      9  O   UNL     1      59.809 159.788  40.396  0.00  0.00    -0.291 OA
ATOM     10  C   UNL     1      60.675 160.775  38.400  0.00  0.00    +0.033 C 
ATOM     11  C   UNL     1      61.375 161.828  38.078  0.00  0.00    -0.021 C 
BRANCH   6  12
ATOM     12  C   UNL     1      63.097 162.691  39.543  0.00  0.00    +0.178 C 
ATOM     13  O   UNL     1      63.804 162.190  38.586  0.00  0.00    -0.218 OA
BRANCH  12  14
ATOM     14  C   UNL     1      63.821 163.177  40.699  0.00  0.00    +0.008 C 
ATOM     15  C   UNL     1      63.054 163.354  41.854  0.00  0.00    -0.002 C 
ATOM     16  C   UNL     1      63.642 163.807  43.005  0.00  0.00    -0.000 C 
ATOM     17  C   UNL     1      65.016 164.102  43.019  0.00  0.00    -0.000 C 
ATOM     18  C   UNL     1      65.758 163.931  41.901  0.00  0.00    -0.000 C 
ATOM     19  C   UNL     1      65.161 163.470  40.742  0.00  0.00    -0.002 C 
ENDBRANCH  12  14
ENDBRANCH   6  12
ENDBRANCH   1   6
BRANCH   3  20
ATOM     20  C   UNL     1      61.166 167.290  40.982  0.00  0.00    +0.008 C 
ATOM     21  C   UNL     1      62.244 167.549  41.834  0.00  0.00    +0.129 C 
ATOM     22  C   UNL     1      62.188 168.558  42.794  0.00  0.00    +0.036 C 
ATOM     23  C   UNL     1      61.064 169.312  42.911  0.00  0.00    +0.003 C 
ATOM     24  C   UNL     1      60.003 169.062  42.069  0.00  0.00    -0.003 C 
ATOM     25  C   UNL     1      60.055 168.028  41.078  0.00  0.00    -0.005 C 
BRANCH  25  26
ATOM     26  C   UNL     1      58.921 167.991  40.124  0.00  0.00    +0.147 C 
ATOM     27  S   UNL     1      58.472 169.727  39.581  0.00  0.00    -0.106 S 
ATOM     28  C   UNL     1      57.625 170.120  41.143  0.00  0.00    +0.150 C 
ATOM     29  N   UNL     1      56.967 168.846  41.339  0.00  0.00    -0.294 N 
ATOM     30  C   UNL     1      57.629 167.736  40.878  0.00  0.00    +0.237 C 
ATOM     31  O   UNL     1      57.226 166.559  41.052  0.00  0.00    -0.274 OA
ATOM     32  H   UNL     1      56.090 168.779  41.780  0.00  0.00    +0.150 HD
ENDBRANCH  25  26
BRANCH  21  33
ATOM     33  O   UNL     1      63.376 166.833  41.768  0.00  0.00    -0.506 OA
ATOM     34  H   UNL     1      63.459 166.144  41.138  0.00  0.00    +0.292 HD
ENDBRANCH  21  33
ENDBRANCH   3  20
BRANCH   1  35
ATOM     35  C   UNL     1      60.306 164.102  37.811  0.00  0.00    +0.252 C 
ATOM     36  O   UNL     1      59.024 164.049  38.154  0.00  0.00    -0.211 OA
BRANCH  35  37
ATOM     37  C   UNL     1      60.560 164.152  36.368  0.00  0.00    +0.369 C 
ATOM     38  O   UNL     1      60.023 163.453  35.508  0.00  0.00    -0.245 OA
BRANCH  37  39
ATOM     39  O   UNL     1      61.483 165.077  35.930  0.00  0.00    -0.343 OA
BRANCH  39  40
ATOM     40  N   UNL     1      61.559 165.765  34.843  0.00  0.00    -0.128 N 
ATOM     41  C   UNL     1      60.458 166.787  34.561  0.00  0.00    +0.334 C 
ATOM     42  O   UNL     1      59.667 166.946  35.363  0.00  0.00    -0.250 OA
ATOM     43  N   UNL     1      60.763 167.276  33.247  0.00  0.00    -0.259 N 
ATOM     44  H   UNL     1      62.304 165.636  34.213  0.00  0.00    +0.198 HD
ATOM     45  H   UNL     1      61.520 167.118  32.637  0.00  0.00    +0.153 HD
BRANCH  43  46
ATOM     46  C   UNL     1      59.318 168.251  33.110  0.00  0.00    +0.278 C 
ATOM     47  O   UNL     1      58.623 168.180  34.031  0.00  0.00    -0.196 OA
ENDBRANCH  43  46
ENDBRANCH  39  40
ENDBRANCH  37  39
ENDBRANCH  35  37
ENDBRANCH   1  35
TORSDOF 11
