REMARK  Name = =
REMARK  0 active torsions:
REMARK  status: ('A' for Active; 'I' for Inactive)
REMARK                            x       y       z     vdW  Elec       q    Type
REMARK                         _______ _______ _______ _____ _____    ______ ____
ROOT
ATOM      1  N   UNL     1      51.660 155.024  28.489  0.00  0.00    -0.242 NA
ATOM      2  C   UNL     1      52.467 155.492  27.545  0.00  0.00    +0.099 C 
ATOM      3  C   UNL     1      52.875 156.807  27.614  0.00  0.00    +0.021 C 
ATOM      4  C   UNL     1      52.448 157.616  28.649  0.00  0.00    +0.003 C 
ATOM      5  C   UNL     1      51.608 157.073  29.600  0.00  0.00    +0.021 C 
ATOM      6  C   UNL     1      51.214 155.751  29.507  0.00  0.00    +0.099 C 
ENDROOT
TORSDOF 0
