MODEL 1
REMARK VINA RESULT:    -9.563      0.000      0.000
REMARK INTER + INTRA:         -15.141
REMARK INTER:                 -13.756
REMARK INTRA:                  -1.385
REMARK UNBOUND:                -1.385
REMARK  Name = =
REMARK  9 active torsions:
REMARK  status: ('A' for Active; 'I' for Inactive)
REMARK    1  A    between atoms: C_1  and  O_28
REMARK    2  A    between atoms: C_2  and  N_9
REMARK    3  A    between atoms: C_5  and  O_27
REMARK    4  A    between atoms: N_16  and  C_25
REMARK    5  A    between atoms: O_28  and  O_29
REMARK    6  A    between atoms: O_29  and  C_30
REMARK    7  A    between atoms: N_32  and  P_33
REMARK    8  A    between atoms: P_33  and  O_35
REMARK    9  A    between atoms: P_33  and  O_36
REMARK                            x       y       z     vdW  Elec       q    Type
REMARK                         _______ _______ _______ _____ _____    ______ ____
ROOT
ATOM      1  C   UNL     1       0.133  -2.909  29.240  0.00  0.00    +0.252 C 
ATOM      2  C   UNL     1      -1.059  -3.372  28.828  0.00  0.00    +0.143 C 
ATOM      3  C   UNL     1      -1.528  -2.801  27.560  0.00  0.00    +0.246 C 
ATOM      4  O   UNL     1      -2.609  -3.126  27.043  0.00  0.00    -0.282 OA
ATOM      5  C   UNL     1      -0.724  -1.796  26.821  0.00  0.00    +0.178 C 
ATOM      6  C   UNL     1       0.439  -1.373  27.263  0.00  0.00    +0.085 C 
ATOM      7  C   UNL     1       0.920  -1.925  28.514  0.00  0.00    +0.239 C 
ATOM      8  O   UNL     1       2.035  -1.548  28.978  0.00  0.00    -0.283 OA
ENDROOT
BRANCH   2   9
ATOM      9  N   UNL     1      -1.666  -4.411  29.529  0.00  0.00    -0.225 N 
ATOM     10  C   UNL     1      -1.181  -5.738  29.248  0.00  0.00    +0.090 C 
ATOM     11  C   UNL     1      -1.049  -6.812  30.123  0.00  0.00    +0.151 C 
ATOM     12  N   UNL     1      -0.582  -7.968  29.690  0.00  0.00    -0.227 NA
ATOM     13  C   UNL     1      -0.228  -8.124  28.381  0.00  0.00    +0.100 C 
ATOM     14  C   UNL     1      -0.345  -7.089  27.474  0.00  0.00    +0.022 C 
ATOM     15  C   UNL     1      -0.832  -5.877  27.928  0.00  0.00    +0.020 C 
ATOM     16  N   UNL     1      -1.460  -6.824  31.507  0.00  0.00    -0.243 N 
ATOM     17  C   UNL     1      -2.602  -6.168  32.047  0.00  0.00    +0.059 C 
ATOM     18  C   UNL     1      -3.207  -5.009  31.561  0.00  0.00    +0.068 C 
ATOM     19  C   UNL     1      -4.314  -4.499  32.177  0.00  0.00    +0.006 C 
ATOM     20  C   UNL     1      -4.857  -5.127  33.298  0.00  0.00    +0.000 C 
ATOM     21  C   UNL     1      -4.222  -6.268  33.734  0.00  0.00    +0.001 C 
ATOM     22  C   UNL     1      -3.101  -6.809  33.136  0.00  0.00    +0.015 C 
ATOM     23  C   UNL     1      -2.789  -4.195  30.381  0.00  0.00    +0.258 C 
ATOM     24  O   UNL     1      -3.509  -3.260  30.167  0.00  0.00    -0.269 OA
BRANCH  16  25
ATOM     25  C   UNL     1      -0.667  -7.576  32.361  0.00  0.00    +0.283 C 
ATOM     26  O   UNL     1      -0.055  -6.991  33.334  0.00  0.00    -0.195 OA
ENDBRANCH  16  25
ENDBRANCH   2   9
BRANCH   5  27
ATOM     27  O   UNL     1      -1.204  -1.277  25.624  0.00  0.00    -0.503 OA
ATOM     28  H   UNL     1      -2.119  -1.328  25.424  0.00  0.00    +0.292 HD
ENDBRANCH   5  27
BRANCH   1  29
ATOM     29  O   UNL     1       0.625  -3.420  30.458  0.00  0.00    -0.277 OA
BRANCH  29  30
ATOM     30  O   UNL     1       1.554  -4.407  30.499  0.00  0.00    -0.226 OA
BRANCH  30  31
ATOM     31  C   UNL     1       2.144  -4.877  31.637  0.00  0.00    +0.452 C 
ATOM     32  O   UNL     1       2.523  -6.072  31.694  0.00  0.00    -0.222 OA
ATOM     33  N   UNL     1       2.368  -4.086  32.805  0.00  0.00    -0.185 N 
ATOM     34  H   UNL     1       2.090  -3.142  32.820  0.00  0.00    +0.164 HD
BRANCH  33  35
ATOM     35  P   UNL     1       3.140  -4.799  34.220  0.00  0.00    +0.426 P 
ATOM     36  O   UNL     1       4.571  -5.182  33.946  0.00  0.00    -0.237 OA
BRANCH  35  37
ATOM     37  O   UNL     1       3.056  -3.639  35.476  0.00  0.00    -0.310 OA
ATOM     38  H   UNL     1       3.942  -3.279  35.644  0.00  0.00    +0.221 HD
ENDBRANCH  35  37
BRANCH  35  39
ATOM     39  O   UNL     1       2.237  -6.133  34.729  0.00  0.00    -0.310 OA
ATOM     40  H   UNL     1       2.275  -6.198  35.696  0.00  0.00    +0.221 HD
ENDBRANCH  35  39
ENDBRANCH  33  35
ENDBRANCH  30  31
ENDBRANCH  29  30
ENDBRANCH   1  29
TORSDOF 9
ENDMDL
