REMARK  Name = =
REMARK  4 active torsions:
REMARK  status: ('A' for Active; 'I' for Inactive)
REMARK    1  A    between atoms: C_1  and  C_26
REMARK    2  A    between atoms: C_15  and  O_41
REMARK    3  A    between atoms: C_22  and  S_32
REMARK    4  A    between atoms: S_32  and  C_35
REMARK                            x       y       z     vdW  Elec       q    Type
REMARK                         _______ _______ _______ _____ _____    ______ ____
ROOT
ATOM      1  C   UNL     1      53.981 156.683  26.263  0.00  0.00    +0.152 C 
ATOM      2  C   UNL     1      54.635 157.244  25.193  0.00  0.00    +0.080 C 
ATOM      3  C   UNL     1      54.984 156.512  24.082  0.00  0.00    +0.202 C 
ATOM      4  O   UNL     1      55.583 157.002  23.094  0.00  0.00    -0.286 OA
ATOM      5  C   UNL     1      54.655 155.174  24.064  0.00  0.00    +0.074 C 
ATOM      6  C   UNL     1      53.997 154.661  25.166  0.00  0.00    +0.151 C 
ATOM      7  C   UNL     1      53.675 153.295  25.124  0.00  0.00    +0.077 C 
ATOM      8  C   UNL     1      53.980 152.491  24.063  0.00  0.00    +0.045 C 
ATOM      9  C   UNL     1      54.646 153.044  22.962  0.00  0.00    +0.004 C 
ATOM     10  C   UNL     1      54.967 154.377  22.992  0.00  0.00    +0.006 C 
ATOM     11  C   UNL     1      53.664 151.083  24.006  0.00  0.00    +0.196 C 
ATOM     12  O   UNL     1      53.955 150.364  23.019  0.00  0.00    -0.287 OA
ATOM     13  C   UNL     1      52.982 150.474  25.140  0.00  0.00    +0.045 C 
ATOM     14  C   UNL     1      52.643 151.238  26.257  0.00  0.00    +0.076 C 
ATOM     15  C   UNL     1      51.994 150.616  27.314  0.00  0.00    +0.137 C 
ATOM     16  C   UNL     1      51.709 149.238  27.208  0.00  0.00    +0.037 C 
ATOM     17  C   UNL     1      52.040 148.485  26.116  0.00  0.00    +0.003 C 
ATOM     18  C   UNL     1      52.682 149.128  25.083  0.00  0.00    +0.003 C 
ATOM     19  C   UNL     1      52.988 152.658  26.256  0.00  0.00    +0.202 C 
ATOM     20  O   UNL     1      52.695 153.344  27.239  0.00  0.00    -0.286 OA
ATOM     21  O   UNL     1      53.677 155.381  26.210  0.00  0.00    -0.453 OA
ENDROOT
BRANCH   1  26
ATOM     22  C   UNL     1      53.941 159.137  29.162  0.00  0.00    +0.124 C 
ATOM     23  C   UNL     1      52.777 158.793  29.799  0.00  0.00    +0.060 C 
ATOM     24  C   UNL     1      52.013 157.781  29.259  0.00  0.00    +0.178 C 
ATOM     25  C   UNL     1      52.429 157.150  28.110  0.00  0.00    +0.180 C 
ATOM     26  C   UNL     1      53.608 157.471  27.431  0.00  0.00    +0.084 C 
ATOM     27  C   UNL     1      54.346 158.469  27.982  0.00  0.00    +0.081 C 
ATOM     28 CL   UNL     1      55.890 158.924  27.278  0.00  0.00    -0.081 Cl
ATOM     29  O   UNL     1      51.471 156.199  27.812  0.00  0.00    -0.434 OA
ATOM     30  C   UNL     1      50.753 155.945  29.031  0.00  0.00    +0.429 C 
ATOM     31  O   UNL     1      50.800 157.210  29.663  0.00  0.00    -0.435 OA
BRANCH  22  32
ATOM     32  S   UNL     1      54.968 160.414  29.787  0.00  0.00    +0.028 S 
ATOM     33  O   UNL     1      55.864 159.905  30.887  0.00  0.00    -0.164 OA
ATOM     34  O   UNL     1      55.798 160.953  28.640  0.00  0.00    -0.164 OA
BRANCH  32  35
ATOM     35  C   UNL     1      53.949 161.698  30.396  0.00  0.00    +0.110 C 
ATOM     36  C   UNL     1      53.750 161.790  31.756  0.00  0.00    +0.019 C 
ATOM     37  C   UNL     1      52.951 162.794  32.264  0.00  0.00    +0.001 C 
ATOM     38  C   UNL     1      52.357 163.696  31.408  0.00  0.00    +0.000 C 
ATOM     39  C   UNL     1      52.566 163.591  30.045  0.00  0.00    +0.001 C 
ATOM     40  C   UNL     1      53.367 162.588  29.520  0.00  0.00    +0.019 C 
ENDBRANCH  32  35
ENDBRANCH  22  32
ENDBRANCH   1  26
BRANCH  15  41
ATOM     41  O   UNL     1      51.629 151.286  28.435  0.00  0.00    -0.505 OA
ATOM     42  H   UNL     1      51.814 152.201  28.515  0.00  0.00    +0.292 HD
ENDBRANCH  15  41
TORSDOF 4
