MODEL 1
REMARK VINA RESULT:    -9.013      0.000      0.000
REMARK INTER + INTRA:         -14.528
REMARK INTER:                 -12.701
REMARK INTRA:                  -1.827
REMARK UNBOUND:                -1.827
REMARK  Name = =
REMARK  8 active torsions:
REMARK  status: ('A' for Active; 'I' for Inactive)
REMARK    1  A    between atoms: C_1  and  C_12
REMARK    2  A    between atoms: C_7  and  C_29
REMARK    3  A    between atoms: C_9  and  N_21
REMARK    4  A    between atoms: C_10  and  C_37
REMARK    5  A    between atoms: N_11  and  O_36
REMARK    6  A    between atoms: C_37  and  N_38
REMARK    7  A    between atoms: C_37  and  O_39
REMARK    8  A    between atoms: O_39  and  C_40
REMARK                            x       y       z     vdW  Elec       q    Type
REMARK                         _______ _______ _______ _____ _____    ______ ____
ROOT
ATOM      1  C   UNL     1      -0.888  -7.300  29.099  0.00  0.00    +0.177 C 
ATOM      2  N   UNL     1      -0.642  -6.056  28.515  0.00  0.00    -0.230 N 
ATOM      3  C   UNL     1      -1.489  -5.001  28.765  0.00  0.00    +0.173 C 
ATOM      4  N   UNL     1      -1.036  -3.968  28.082  0.00  0.00    -0.226 NA
ATOM      5  C   UNL     1       0.084  -4.356  27.408  0.00  0.00    +0.098 C 
ATOM      6  C   UNL     1       0.325  -5.676  27.688  0.00  0.00    +0.072 C 
ATOM      7  C   UNL     1       1.387  -6.375  27.151  0.00  0.00    -0.002 C 
ATOM      8  C   UNL     1       2.202  -5.642  26.292  0.00  0.00    +0.012 C 
ATOM      9  C   UNL     1       1.973  -4.299  25.995  0.00  0.00    +0.050 C 
ATOM     10  C   UNL     1       0.909  -3.637  26.550  0.00  0.00    +0.065 C 
ATOM     11  N   UNL     1      -1.393  -8.252  28.422  0.00  0.00    -0.071 NA
ENDROOT
BRANCH   1  12
ATOM     12  C   UNL     1      -0.639  -7.492  30.522  0.00  0.00    +0.041 C 
ATOM     13  C   UNL     1       0.385  -7.001  31.226  0.00  0.00    +0.036 C 
ATOM     14  C   UNL     1       0.284  -7.398  32.539  0.00  0.00    +0.158 C 
ATOM     15  N   UNL     1      -0.750  -8.132  32.725  0.00  0.00    -0.248 NA
ATOM     16  C   UNL     1      -1.449  -8.291  31.488  0.00  0.00    +0.157 C 
ATOM     17  N   UNL     1       1.204  -7.029  33.479  0.00  0.00    -0.225 NA
ATOM     18  C   UNL     1       2.231  -6.262  33.118  0.00  0.00    +0.101 C 
ATOM     19  C   UNL     1       2.384  -5.835  31.821  0.00  0.00    +0.021 C 
ATOM     20  C   UNL     1       1.455  -6.206  30.873  0.00  0.00    +0.004 C 
ENDBRANCH   1  12
BRANCH   9  21
ATOM     21  N   UNL     1       2.911  -3.686  25.118  0.00  0.00    -0.304 N 
ATOM     22  C   UNL     1       4.026  -2.872  25.529  0.00  0.00    +0.112 C 
ATOM     23  C   UNL     1       4.172  -1.729  24.558  0.00  0.00    +0.115 C 
ATOM     24  N   UNL     1       3.006  -1.496  23.738  0.00  0.00    -0.269 N 
ATOM     25  C   UNL     1       2.360  -2.604  23.057  0.00  0.00    +0.115 C 
ATOM     26  C   UNL     1       2.734  -3.913  23.701  0.00  0.00    +0.112 C 
ATOM     27  C   UNL     1       2.473  -0.164  23.591  0.00  0.00    +0.303 C 
ATOM     28  O   UNL     1       3.067   0.756  24.200  0.00  0.00    -0.265 OA
ENDBRANCH   9  21
BRANCH   7  29
ATOM     29  C   UNL     1       1.698  -7.742  27.430  0.00  0.00    +0.042 C 
ATOM     30  C   UNL     1       1.466  -8.594  26.144  0.00  0.00    +0.008 C 
ATOM     31  C   UNL     1       1.807 -10.040  26.501  0.00  0.00    +0.001 C 
ATOM     32  C   UNL     1       3.251 -10.173  26.912  0.00  0.00    +0.004 C 
ATOM     33  C   UNL     1       3.556  -9.291  28.105  0.00  0.00    +0.022 C 
ATOM     34  C   UNL     1       3.180  -7.908  27.718  0.00  0.00    -0.040 C 
ATOM     35  C   UNL     1       4.075  -6.980  27.623  0.00  0.00    -0.009 C 
ENDBRANCH   7  29
BRANCH  11  36
ATOM     36  O   UNL     1      -1.650  -8.123  27.078  0.00  0.00    -0.408 OA
ATOM     37  H   UNL     1      -1.629  -8.877  26.523  0.00  0.00    +0.328 HD
ENDBRANCH  11  36
BRANCH  10  38
ATOM     38  C   UNL     1       0.598  -2.223  26.264  0.00  0.00    +0.252 C 
BRANCH  38  39
ATOM     39  N   UNL     1      -0.804  -2.051  25.886  0.00  0.00    -0.285 NA
ATOM     40  H   UNL     1      -0.896  -1.231  25.285  0.00  0.00    +0.122 HD
ATOM     41  H   UNL     1      -1.369  -1.921  26.725  0.00  0.00    +0.122 HD
ENDBRANCH  38  39
BRANCH  38  42
ATOM     42  O   UNL     1       0.767  -1.481  27.482  0.00  0.00    -0.425 OA
BRANCH  42  43
ATOM     43  C   UNL     1       1.938  -0.745  27.701  0.00  0.00    +0.419 C 
ATOM     44  O   UNL     1       2.673  -0.995  28.689  0.00  0.00    -0.237 OA
ENDBRANCH  42  43
ENDBRANCH  38  42
ENDBRANCH  10  38
TORSDOF 8
ENDMDL
