REMARK  Name = =
REMARK  6 active torsions:
REMARK  status: ('A' for Active; 'I' for Inactive)
REMARK    1  A    between atoms: P_1  and  S_2
REMARK    2  A    between atoms: P_1  and  N_18
REMARK    3  A    between atoms: P_1  and  O_24
REMARK    4  A    between atoms: S_2  and  C_3
REMARK    5  A    between atoms: C_8  and  S_12
REMARK    6  A    between atoms: S_12  and  C_13
REMARK                            x       y       z     vdW  Elec       q    Type
REMARK                         _______ _______ _______ _____ _____    ______ ____
ROOT
ATOM      1  C   UNL     1      -3.884  -4.522  31.261  0.00  0.00    +0.028 C 
ATOM      2  C   UNL     1      -4.362  -5.361  32.238  0.00  0.00    +0.046 C 
ATOM      3  C   UNL     1      -3.557  -6.401  32.730  0.00  0.00    +0.177 C 
ATOM      4  C   UNL     1      -2.287  -6.581  32.232  0.00  0.00    +0.177 C 
ATOM      5  C   UNL     1      -1.799  -5.742  31.250  0.00  0.00    +0.047 C 
ATOM      6  C   UNL     1      -2.615  -4.726  30.784  0.00  0.00    +0.041 C 
ATOM      7  O   UNL     1      -1.745  -7.681  32.912  0.00  0.00    -0.435 OA
ATOM      8  C   UNL     1      -2.842  -8.420  33.455  0.00  0.00    +0.429 C 
ATOM      9  O   UNL     1      -3.776  -7.378  33.694  0.00  0.00    -0.435 OA
ENDROOT
BRANCH   1  10
ATOM     10  S   UNL     1      -4.859  -3.239  30.643  0.00  0.00    -0.136 S 
ATOM     11  H   UNL     1      -5.946  -3.794  30.043  0.00  0.00    +0.104 HD
BRANCH  10  12
ATOM     12  P   UNL     1      -5.473  -1.992  31.904  0.00  0.00    +0.082 P 
ATOM     13  H   UNL     1      -5.719  -2.227  33.241  0.00  0.00    +0.108 HD
BRANCH  12  14
ATOM     14  N   UNL     1      -4.281  -0.726  31.656  0.00  0.00    -0.239 NA
ATOM     15  C   UNL     1      -3.817  -0.823  30.318  0.00  0.00    +0.078 C 
ATOM     16  C   UNL     1      -4.065   0.522  29.694  0.00  0.00    +0.019 C 
ATOM     17  C   UNL     1      -5.164   1.118  30.499  0.00  0.00    +0.019 C 
ATOM     18  C   UNL     1      -4.892   0.528  31.870  0.00  0.00    +0.078 C 
ENDBRANCH  12  14
BRANCH  12  19
ATOM     19  O   UNL     1      -6.697  -1.661  30.835  0.00  0.00    -0.358 OA
ATOM     20  H   UNL     1      -6.325  -1.527  29.949  0.00  0.00    +0.216 HD
ENDBRANCH  12  19
ENDBRANCH  10  12
ENDBRANCH   1  10
BRANCH   6  21
ATOM     21  S   UNL     1      -2.013  -3.636  29.521  0.00  0.00    -0.047 S 
BRANCH  21  22
ATOM     22  C   UNL     1      -0.571  -4.362  28.772  0.00  0.00    +0.212 A 
ATOM     23  N   UNL     1      -0.593  -5.239  27.758  0.00  0.00    -0.234 N 
ATOM     24  N   UNL     1       0.650  -5.587  27.436  0.00  0.00    -0.046 NA
ATOM     25  N   UNL     1       1.466  -4.929  28.245  0.00  0.00    -0.022 NA
ATOM     26  N   UNL     1       0.725  -4.173  29.072  0.00  0.00    -0.101 NA
ATOM     27  H   UNL     1      -1.407  -5.575  27.318  0.00  0.00    +0.193 HD
ENDBRANCH  21  22
ENDBRANCH   6  21
TORSDOF 6
REMARK  Name = =
REMARK  6 active torsions:
REMARK  status: ('A' for Active; 'I' for Inactive)
REMARK    1  A    between atoms: P_1  and  S_2
REMARK    2  A    between atoms: P_1  and  N_18
REMARK    3  A    between atoms: P_1  and  O_24
REMARK    4  A    between atoms: S_2  and  C_3
REMARK    5  A    between atoms: C_8  and  S_12
REMARK    6  A    between atoms: S_12  and  C_13
REMARK                            x       y       z     vdW  Elec       q    Type
REMARK                         _______ _______ _______ _____ _____    ______ ____
ROOT
ATOM      1  O   HOH     1      -5.060  -2.357  33.476  0.00  0.00    -0.253 OA
ATOM      2  H   HOH     0      -4.090  -2.357  33.476  0.00  0.00    +0.253 HD
ENDROOT
TORSDOF 0
REMARK  Name = =
REMARK  6 active torsions:
REMARK  status: ('A' for Active; 'I' for Inactive)
REMARK    1  A    between atoms: P_1  and  S_2
REMARK    2  A    between atoms: P_1  and  N_18
REMARK    3  A    between atoms: P_1  and  O_24
REMARK    4  A    between atoms: S_2  and  C_3
REMARK    5  A    between atoms: C_8  and  S_12
REMARK    6  A    between atoms: S_12  and  C_13
REMARK                            x       y       z     vdW  Elec       q    Type
REMARK                         _______ _______ _______ _____ _____    ______ ____
ROOT
ATOM      1  S   UNL     1      -7.260  -2.960  32.319  0.00  0.00    -0.051 S 
ATOM      2  N   UNL     1     -11.107  -0.800  31.020  0.00  0.00    -0.244 NA
ATOM      3  C   UNL     1     -11.131  -1.880  31.803  0.00  0.00    +0.082 C 
ATOM      4  C   UNL     1      -9.987  -2.534  32.193  0.00  0.00    +0.024 C 
ATOM      5  C   UNL     1     -10.106  -3.638  33.001  0.00  0.00    +0.002 C 
ATOM      6  C   UNL     1     -11.326  -4.108  33.430  0.00  0.00    +0.000 C 
ATOM      7  C   UNL     1     -12.443  -3.426  33.019  0.00  0.00    +0.002 C 
ATOM      8  C   UNL     1     -12.392  -2.315  32.211  0.00  0.00    +0.019 C 
ATOM      9  C   UNL     1      -8.728  -2.102  31.789  0.00  0.00    +0.039 C 
ATOM     10  C   UNL     1      -8.727  -0.986  30.981  0.00  0.00    +0.028 C 
ATOM     11  C   UNL     1      -9.910  -0.356  30.612  0.00  0.00    +0.099 C 
ENDROOT
TORSDOF 0
