REMARK  Name = =
REMARK  0 active torsions:
REMARK  status: ('A' for Active; 'I' for Inactive)
REMARK                            x       y       z     vdW  Elec       q    Type
REMARK                         _______ _______ _______ _____ _____    ______ ____
ROOT
ATOM      1  N   UNL     1      53.182 154.360  28.393  0.00  0.00    -0.295 NA
ATOM      2  C   UNL     1      52.007 153.540  28.432  0.00  0.00    +0.086 C 
ATOM      3  C   UNL     1      52.734 153.833  27.130  0.00  0.00    +0.086 C 
ATOM      4  H   UNL     1      54.049 154.011  28.801  0.00  0.00    +0.123 HD
ENDROOT
TORSDOF 0
