REMARK  Name = =
REMARK  1 active torsions:
REMARK  status: ('A' for Active; 'I' for Inactive)
REMARK    1  A    between atoms: C_6  and  N_7
REMARK                            x       y       z     vdW  Elec       q    Type
REMARK                         _______ _______ _______ _____ _____    ______ ____
ROOT
ATOM      1  N   UNL     1      52.216 151.993  27.183  0.00  0.00    -0.209 NA
ATOM      2  C   UNL     1      51.786 153.097  27.850  0.00  0.00    +0.200 C 
ATOM      3  N   UNL     1      52.142 154.343  27.488  0.00  0.00    -0.222 NA
ATOM      4  C   UNL     1      52.957 154.481  26.419  0.00  0.00    +0.104 C 
ATOM      5  C   UNL     1      53.398 153.377  25.734  0.00  0.00    +0.055 C 
ATOM      6  C   UNL     1      53.025 152.106  26.118  0.00  0.00    +0.135 C 
ENDROOT
BRANCH   6   7
ATOM      7  N   UNL     1      53.480 150.950  25.413  0.00  0.00    -0.290 N 
ATOM      8  C   UNL     1      53.375 149.487  25.180  0.00  0.00    +0.114 C 
ATOM      9  C   UNL     1      54.348 150.361  24.434  0.00  0.00    +0.114 C 
ENDBRANCH   6   7
TORSDOF 1
