REMARK  Name = =
REMARK  2 active torsions:
REMARK  status: ('A' for Active; 'I' for Inactive)
REMARK    1  A    between atoms: N_1  and  C_16
REMARK    2  A    between atoms: C_3  and  C_4
REMARK                            x       y       z     vdW  Elec       q    Type
REMARK                         _______ _______ _______ _____ _____    ______ ____
ROOT
ATOM      1  N   UNL     1      54.355 153.112  25.425  0.00  0.00    -0.291 N 
ATOM      2  C   UNL     1      55.103 152.632  24.208  0.00  0.00    +0.112 C 
ATOM      3  C   UNL     1      54.704 151.724  25.338  0.00  0.00    +0.098 C 
ENDROOT
BRANCH   3   4
ATOM      4  C   UNL     1      53.709 150.683  24.967  0.00  0.00    +0.038 C 
ATOM      5  C   UNL     1      54.476 149.362  24.817  0.00  0.00    +0.006 C 
ATOM      6  C   UNL     1      53.563 148.187  24.902  0.00  0.00    +0.001 C 
ATOM      7  C   UNL     1      52.157 148.566  24.484  0.00  0.00    +0.004 C 
ATOM      8  C   UNL     1      51.540 149.533  25.495  0.00  0.00    +0.022 C 
ATOM      9  C   UNL     1      52.682 150.395  26.002  0.00  0.00    -0.043 C 
ATOM     10  C   UNL     1      52.708 150.799  27.253  0.00  0.00    -0.009 C 
ENDBRANCH   3   4
BRANCH   1  16
ATOM     11  N   UNL     1      53.430 154.317  27.294  0.00  0.00    -0.209 NA
ATOM     12  C   UNL     1      52.894 155.391  27.896  0.00  0.00    +0.200 C 
ATOM     13  N   UNL     1      52.685 156.523  27.213  0.00  0.00    -0.222 NA
ATOM     14  C   UNL     1      53.031 156.544  25.907  0.00  0.00    +0.104 C 
ATOM     15  C   UNL     1      53.581 155.442  25.294  0.00  0.00    +0.055 C 
ATOM     16  C   UNL     1      53.794 154.270  26.011  0.00  0.00    +0.135 C 
ENDBRANCH   1  16
TORSDOF 2
