REMARK  Name = =
REMARK  3 active torsions:
REMARK  status: ('A' for Active; 'I' for Inactive)
REMARK    1  A    between atoms: C_1  and  C_13
REMARK    2  A    between atoms: C_7  and  S_8
REMARK    3  A    between atoms: N_11  and  C_19
REMARK                            x       y       z     vdW  Elec       q    Type
REMARK                         _______ _______ _______ _____ _____    ______ ____
ROOT
ATOM      1  C   UNL     1      52.716 154.494  24.658  0.00  0.00    +0.039 C 
ATOM      2  C   UNL     1      53.505 154.149  23.411  0.00  0.00    +0.006 C 
ATOM      3  C   UNL     1      54.931 153.859  23.909  0.00  0.00    +0.001 C 
ATOM      4  C   UNL     1      54.870 152.461  24.460  0.00  0.00    +0.004 C 
ATOM      5  C   UNL     1      54.001 152.445  25.664  0.00  0.00    +0.023 C 
ATOM      6  C   UNL     1      52.908 153.452  25.676  0.00  0.00    -0.038 C 
ATOM      7  C   UNL     1      52.072 153.357  26.705  0.00  0.00    +0.002 C 
ENDROOT
BRANCH   7   8
ATOM      8  S   UNL     1      52.189 152.173  27.971  0.00  0.00    -0.206 S 
ATOM      9  C   UNL     1      50.914 151.421  28.776  0.00  0.00    +0.051 C 
ATOM     10  C   UNL     1      51.795 150.559  27.900  0.00  0.00    +0.051 C 
ATOM     11  H   UNL     1      53.279 152.928  28.273  0.00  0.00    +0.088 HD
ENDBRANCH   7   8
BRANCH   1  14
ATOM     12  N   UNL     1      53.095 156.198  26.512  0.00  0.00    -0.291 N 
ATOM     13  C   UNL     1      54.414 156.122  25.789  0.00  0.00    +0.112 C 
ATOM     14  C   UNL     1      53.172 155.861  25.099  0.00  0.00    +0.098 C 
BRANCH  12  20
ATOM     15  N   UNL     1      51.595 155.528  28.283  0.00  0.00    -0.209 NA
ATOM     16  C   UNL     1      50.940 155.786  29.453  0.00  0.00    +0.200 C 
ATOM     17  N   UNL     1      51.093 156.973  30.072  0.00  0.00    -0.222 NA
ATOM     18  C   UNL     1      51.888 157.921  29.561  0.00  0.00    +0.104 C 
ATOM     19  C   UNL     1      52.552 157.645  28.364  0.00  0.00    +0.055 C 
ATOM     20  C   UNL     1      52.404 156.439  27.722  0.00  0.00    +0.135 C 
ENDBRANCH  12  20
ENDBRANCH   1  14
TORSDOF 3
