REMARK  Name = =
REMARK  0 active torsions:
REMARK  status: ('A' for Active; 'I' for Inactive)
REMARK                            x       y       z     vdW  Elec       q    Type
REMARK                         _______ _______ _______ _____ _____    ______ ____
ROOT
ATOM      1  O   UNL     1      51.990 154.145  28.910  0.00  0.00    -0.448 OA
ATOM      2  C   UNL     1      52.816 153.753  27.815  0.00  0.00    +0.209 C 
ATOM      3  C   UNL     1      52.466 154.821  26.786  0.00  0.00    +0.059 C 
ATOM      4  C   UNL     1      52.433 156.047  27.703  0.00  0.00    +0.113 C 
ATOM      5  C   UNL     1      51.748 155.500  28.869  0.00  0.00    +0.317 C 
ATOM      6  O   UNL     1      51.060 156.144  29.688  0.00  0.00    -0.250 OA
ENDROOT
TORSDOF 0
