REMARK  Name = =
REMARK  2 active torsions:
REMARK  status: ('A' for Active; 'I' for Inactive)
REMARK    1  A    between atoms: N_1  and  C_6
REMARK    2  A    between atoms: C_2  and  C_11
REMARK                            x       y       z     vdW  Elec       q    Type
REMARK                         _______ _______ _______ _____ _____    ______ ____
ROOT
ATOM      1  N   UNL     1      51.378 155.161  27.498  0.00  0.00    -0.238 NA
ATOM      2  C   UNL     1      52.222 155.562  28.545  0.00  0.00    +0.086 C 
ATOM      3  C   UNL     1      51.021 156.029  29.333  0.00  0.00    +0.038 C 
ATOM      4  C   UNL     1      50.223 155.190  28.381  0.00  0.00    +0.077 C 
ENDROOT
BRANCH   1   6
ATOM      5  O   UNL     1      51.493 152.835  27.943  0.00  0.00    -0.436 OA
ATOM      6  C   UNL     1      51.554 153.849  26.935  0.00  0.00    +0.232 C 
ATOM      7  C   UNL     1      52.860 153.572  26.289  0.00  0.00    +0.073 C 
ATOM      8  C   UNL     1      52.819 152.063  26.156  0.00  0.00    +0.115 C 
ATOM      9  C   UNL     1      51.971 151.692  27.321  0.00  0.00    +0.318 C 
ATOM     10  O   UNL     1      51.770 150.479  27.626  0.00  0.00    -0.250 OA
ENDBRANCH   1   6
BRANCH   2  11
ATOM     11  C   UNL     1      53.106 156.752  28.326  0.00  0.00    +0.012 C 
ATOM     12  C   UNL     1      53.179 157.734  29.314  0.00  0.00    +0.000 C 
ATOM     13  C   UNL     1      53.966 158.854  29.189  0.00  0.00    +0.020 C 
ATOM     14  C   UNL     1      54.704 158.993  28.033  0.00  0.00    +0.099 C 
ATOM     15  N   UNL     1      54.637 158.051  27.078  0.00  0.00    -0.243 NA
ATOM     16  C   UNL     1      53.864 156.946  27.197  0.00  0.00    +0.096 C 
ENDBRANCH   2  11
TORSDOF 2
