REMARK  Name = =
REMARK  0 active torsions:
REMARK  status: ('A' for Active; 'I' for Inactive)
REMARK                            x       y       z     vdW  Elec       q    Type
REMARK                         _______ _______ _______ _____ _____    ______ ____
ROOT
ATOM      1  N   UNL     1      -3.643  -4.219  33.147  0.00  0.00    -0.293 NA
ATOM      2  C   UNL     1      -4.111  -5.477  33.653  0.00  0.00    +0.101 C 
ATOM      3  C   UNL     1      -4.038  -6.598  32.659  0.00  0.00    +0.159 C 
ATOM      4  O   UNL     1      -3.214  -6.322  31.595  0.00  0.00    -0.351 OA
ATOM      5  C   UNL     1      -3.481  -5.154  30.936  0.00  0.00    +0.159 C 
ATOM      6  C   UNL     1      -4.116  -4.088  31.783  0.00  0.00    +0.101 C 
ATOM      7  H   UNL     1      -2.623  -4.195  33.165  0.00  0.00    +0.123 HD
ENDROOT
TORSDOF 0
