REMARK  Name = =
REMARK  1 active torsions:
REMARK  status: ('A' for Active; 'I' for Inactive)
REMARK    1  A    between atoms: C_5  and  N_7
REMARK                            x       y       z     vdW  Elec       q    Type
REMARK                         _______ _______ _______ _____ _____    ______ ____
ROOT
ATOM      1  N   UNL     1      -4.731  -4.279  33.052  0.00  0.00    -0.292 NA
ATOM      2  C   UNL     1      -4.059  -5.419  33.612  0.00  0.00    +0.101 C 
ATOM      3  C   UNL     1      -3.243  -6.199  32.664  0.00  0.00    +0.161 C 
ATOM      4  O   UNL     1      -2.742  -5.588  31.580  0.00  0.00    -0.338 OA
ATOM      5  C   UNL     1      -3.317  -4.403  31.159  0.00  0.00    +0.192 C 
ATOM      6  C   UNL     1      -3.700  -3.518  32.331  0.00  0.00    +0.116 C 
ATOM      7  H   UNL     1      -5.140  -3.709  33.792  0.00  0.00    +0.123 HD
ENDROOT
BRANCH   5   8
ATOM      8  N   UNL     1      -2.369  -3.767  30.298  0.00  0.00    -0.247 NA
ATOM      9  C   UNL     1      -1.991  -4.558  29.140  0.00  0.00    +0.092 C 
ATOM     10  C   UNL     1      -2.637  -3.231  29.024  0.00  0.00    +0.092 C 
ENDBRANCH   5   8
TORSDOF 1
