REMARK  Name = =
REMARK  2 active torsions:
REMARK  status: ('A' for Active; 'I' for Inactive)
REMARK    1  A    between atoms: N_1  and  C_7
REMARK    2  A    between atoms: C_5  and  N_16
REMARK                            x       y       z     vdW  Elec       q    Type
REMARK                         _______ _______ _______ _____ _____    ______ ____
ROOT
ATOM      1  N   UNL     1      -5.217  -4.181  32.421  0.00  0.00    -0.268 NA
ATOM      2  C   UNL     1      -4.761  -5.259  33.241  0.00  0.00    +0.105 C 
ATOM      3  C   UNL     1      -3.789  -6.174  32.537  0.00  0.00    +0.161 C 
ATOM      4  O   UNL     1      -2.759  -5.372  32.045  0.00  0.00    -0.338 OA
ATOM      5  C   UNL     1      -3.336  -4.611  31.004  0.00  0.00    +0.192 C 
ATOM      6  C   UNL     1      -4.159  -3.534  31.684  0.00  0.00    +0.120 C 
ENDROOT
BRANCH   1   7
ATOM      7  C   UNL     1      -6.028  -3.305  33.196  0.00  0.00    +0.066 C 
ATOM      8  C   UNL     1      -5.546  -1.906  33.341  0.00  0.00    +0.042 C 
ATOM      9  C   UNL     1      -6.540  -1.100  32.613  0.00  0.00    -0.025 C 
ATOM     10  C   UNL     1      -7.622  -1.857  32.296  0.00  0.00    -0.025 C 
ATOM     11  C   UNL     1      -8.693  -1.269  31.591  0.00  0.00    -0.005 C 
ATOM     12  C   UNL     1      -8.652   0.053  31.226  0.00  0.00    -0.000 C 
ATOM     13  C   UNL     1      -7.559   0.824  31.545  0.00  0.00    -0.000 C 
ATOM     14  C   UNL     1      -6.512   0.251  32.232  0.00  0.00    -0.005 C 
ATOM     15  C   UNL     1      -7.460  -3.248  32.782  0.00  0.00    +0.042 C 
ENDBRANCH   1   7
BRANCH   5  16
ATOM     16  N   UNL     1      -2.219  -4.078  30.253  0.00  0.00    -0.247 NA
ATOM     17  C   UNL     1      -2.410  -3.302  29.070  0.00  0.00    +0.092 C 
ATOM     18  C   UNL     1      -1.859  -4.725  29.003  0.00  0.00    +0.092 C 
ENDBRANCH   5  16
TORSDOF 2
