REMARK  Name = =
REMARK  6 active torsions:
REMARK  status: ('A' for Active; 'I' for Inactive)
REMARK    1  A    between atoms: C_1  and  C_20
REMARK    2  A    between atoms: C_8  and  N_25
REMARK    3  A    between atoms: C_11  and  O_22
REMARK    4  A    between atoms: O_22  and  N_24
REMARK    5  A    between atoms: C_26  and  C_28
REMARK    6  A    between atoms: C_29  and  O_34
REMARK                            x       y       z     vdW  Elec       q    Type
REMARK                         _______ _______ _______ _____ _____    ______ ____
ROOT
ATOM      1  C   UNL     1       1.082  -3.980  29.169  0.00  0.00    +0.116 C 
ATOM      2  O   UNL     1       0.249  -4.050  28.067  0.00  0.00    -0.354 OA
ATOM      3  C   UNL     1       0.435  -3.118  27.114  0.00  0.00    +0.172 C 
ATOM      4  C   UNL     1       1.805  -3.015  26.526  0.00  0.00    +0.149 C 
ATOM      5  C   UNL     1       2.699  -3.953  27.355  0.00  0.00    +0.035 C 
ATOM      6  C   UNL     1       2.446  -3.504  28.801  0.00  0.00    +0.032 C 
ATOM      7  O   UNL     1       2.301  -1.752  26.707  0.00  0.00    -0.315 OA
ATOM      8  C   UNL     1       1.520  -0.714  26.304  0.00  0.00    +0.325 C 
ATOM      9  O   UNL     1       0.161  -0.995  26.224  0.00  0.00    -0.312 OA
ATOM     10  C   UNL     1      -0.169  -1.783  27.337  0.00  0.00    +0.178 C 
ENDROOT
BRANCH   1  20
ATOM     11  C   UNL     1       1.127  -8.740  27.935  0.00  0.00    +0.196 C 
ATOM     12  C   UNL     1       0.981  -7.778  29.052  0.00  0.00    +0.047 C 
ATOM     13  C   UNL     1      -0.268  -7.984  29.811  0.00  0.00    +0.022 C 
ATOM     14  C   UNL     1      -1.509  -8.118  29.001  0.00  0.00    +0.004 C 
ATOM     15  C   UNL     1      -1.274  -8.106  27.514  0.00  0.00    +0.004 C 
ATOM     16  C   UNL     1      -0.105  -8.924  27.093  0.00  0.00    +0.046 C 
ATOM     17  C   UNL     1      -0.346  -7.021  30.917  0.00  0.00    -0.044 C 
ATOM     18  C   UNL     1      -0.647  -7.423  32.129  0.00  0.00    -0.009 C 
ATOM     19  C   UNL     1      -0.081  -5.593  30.642  0.00  0.00    +0.024 C 
ATOM     20  C   UNL     1       1.106  -5.391  29.771  0.00  0.00    +0.031 C 
ATOM     21  C   UNL     1       1.295  -6.377  28.680  0.00  0.00    +0.007 C 
BRANCH  11  22
ATOM     22  O   UNL     1       2.226  -8.461  27.087  0.00  0.00    -0.381 OA
BRANCH  22  24
ATOM     23  C   UNL     1       4.143  -9.060  25.994  0.00  0.00    +0.164 C 
ATOM     24  N   UNL     1       3.249  -9.345  26.871  0.00  0.00    -0.080 NA
ENDBRANCH  22  24
ENDBRANCH  11  22
ENDBRANCH   1  20
BRANCH   8  25
ATOM     25  N   UNL     1       2.009  -0.176  25.022  0.00  0.00    -0.255 N 
ATOM     26  C   UNL     1       1.373  -0.447  23.799  0.00  0.00    +0.252 C 
ATOM     27  O   UNL     1       0.337  -1.197  23.898  0.00  0.00    -0.270 OA
ATOM     28  H   UNL     1       2.811   0.395  25.023  0.00  0.00    +0.154 HD
BRANCH  26  29
ATOM     29  C   UNL     1       1.770   0.031  22.481  0.00  0.00    +0.087 C 
ATOM     30  C   UNL     1       1.204   1.050  21.791  0.00  0.00    +0.138 C 
ATOM     31  C   UNL     1       1.691   1.398  20.532  0.00  0.00    +0.037 C 
ATOM     32  C   UNL     1       2.734   0.744  19.956  0.00  0.00    +0.003 C 
ATOM     33  C   UNL     1       3.314  -0.297  20.655  0.00  0.00    +0.000 C 
ATOM     34  C   UNL     1       2.841  -0.641  21.887  0.00  0.00    +0.008 C 
BRANCH  30  35
ATOM     35  O   UNL     1       0.139   1.742  22.347  0.00  0.00    -0.505 OA
ATOM     36  H   UNL     1      -0.184   1.503  23.194  0.00  0.00    +0.292 HD
ENDBRANCH  30  35
ENDBRANCH  26  29
ENDBRANCH   8  25
TORSDOF 6
