REMARK  Name = =
REMARK  4 active torsions:
REMARK  status: ('A' for Active; 'I' for Inactive)
REMARK    1  A    between atoms: N_1  and  C_7
REMARK    2  A    between atoms: C_2  and  C_19
REMARK    3  A    between atoms: C_5  and  N_16
REMARK    4  A    between atoms: C_19  and  C_21
REMARK                            x       y       z     vdW  Elec       q    Type
REMARK                         _______ _______ _______ _____ _____    ______ ____
ROOT
ATOM      1  N   UNL     1      -3.693  -4.030  30.982  0.00  0.00    -0.267 NA
ATOM      2  C   UNL     1      -4.717  -3.522  31.780  0.00  0.00    +0.126 C 
ATOM      3  C   UNL     1      -4.635  -3.805  33.239  0.00  0.00    +0.163 C 
ATOM      4  O   UNL     1      -4.077  -5.018  33.606  0.00  0.00    -0.338 OA
ATOM      5  C   UNL     1      -4.015  -5.864  32.536  0.00  0.00    +0.192 C 
ATOM      6  C   UNL     1      -3.111  -5.227  31.458  0.00  0.00    +0.120 C 
ENDROOT
BRANCH   1   7
ATOM      7  C   UNL     1      -2.889  -3.285  30.156  0.00  0.00    +0.066 C 
ATOM      8  C   UNL     1      -1.386  -3.413  30.324  0.00  0.00    +0.042 C 
ATOM      9  C   UNL     1      -0.896  -2.715  29.071  0.00  0.00    -0.025 C 
ATOM     10  C   UNL     1      -1.850  -2.934  28.082  0.00  0.00    -0.025 C 
ATOM     11  C   UNL     1      -1.687  -2.408  26.825  0.00  0.00    -0.005 C 
ATOM     12  C   UNL     1      -0.589  -1.651  26.493  0.00  0.00    -0.000 C 
ATOM     13  C   UNL     1       0.353  -1.432  27.461  0.00  0.00    -0.000 C 
ATOM     14  C   UNL     1       0.193  -1.960  28.727  0.00  0.00    -0.005 C 
ATOM     15  C   UNL     1      -2.957  -3.761  28.675  0.00  0.00    +0.042 C 
ENDBRANCH   1   7
BRANCH   5  16
ATOM     16  N   UNL     1      -3.487  -7.159  32.783  0.00  0.00    -0.247 NA
ATOM     17  C   UNL     1      -3.048  -8.056  31.769  0.00  0.00    +0.092 C 
ATOM     18  C   UNL     1      -2.002  -7.288  32.559  0.00  0.00    +0.092 C 
ENDBRANCH   5  16
BRANCH   2  19
ATOM     19  C   UNL     1      -5.137  -2.121  31.529  0.00  0.00    +0.233 C 
ATOM     20  O   UNL     1      -4.260  -1.224  31.243  0.00  0.00    -0.213 OA
BRANCH  19  21
ATOM     21  C   UNL     1      -6.501  -1.628  31.574  0.00  0.00    +0.241 C 
ATOM     22  O   UNL     1      -7.469  -2.345  31.157  0.00  0.00    -0.285 OA
ENDBRANCH  19  21
ENDBRANCH   2  19
TORSDOF 4
