REMARK  Name = =
REMARK  7 active torsions:
REMARK  status: ('A' for Active; 'I' for Inactive)
REMARK    1  A    between atoms: C_1  and  N_10
REMARK    2  A    between atoms: C_8  and  S_23
REMARK    3  A    between atoms: C_11  and  C_19
REMARK    4  A    between atoms: C_14  and  N_16
REMARK    5  A    between atoms: C_19  and  C_21
REMARK    6  A    between atoms: S_23  and  S_24
REMARK    7  A    between atoms: S_23  and  S_25
REMARK                            x       y       z     vdW  Elec       q    Type
REMARK                         _______ _______ _______ _____ _____    ______ ____
ROOT
ATOM      1  C   UNL     1      -3.164  -5.139  30.681  0.00  0.00    +0.067 C 
ATOM      2  C   UNL     1      -2.022  -5.082  31.685  0.00  0.00    +0.043 C 
ATOM      3  C   UNL     1      -1.672  -6.541  31.772  0.00  0.00    -0.019 C 
ATOM      4  C   UNL     1      -2.799  -7.285  31.459  0.00  0.00    -0.024 C 
ATOM      5  C   UNL     1      -2.794  -8.658  31.453  0.00  0.00    -0.005 C 
ATOM      6  C   UNL     1      -1.588  -9.285  31.779  0.00  0.00    +0.000 C 
ATOM      7  C   UNL     1      -0.465  -8.556  32.089  0.00  0.00    +0.006 C 
ATOM      8  C   UNL     1      -0.516  -7.197  32.083  0.00  0.00    +0.018 C 
ATOM      9  C   UNL     1      -3.925  -6.327  31.162  0.00  0.00    +0.042 C 
ENDROOT
BRANCH   1  10
ATOM     10  N   UNL     1      -3.856  -3.963  30.463  0.00  0.00    -0.263 NA
ATOM     11  C   UNL     1      -3.117  -2.788  30.160  0.00  0.00    +0.153 C 
ATOM     12  C   UNL     1      -3.960  -1.586  30.531  0.00  0.00    +0.168 C 
ATOM     13  O   UNL     1      -4.358  -1.693  31.852  0.00  0.00    -0.338 OA
ATOM     14  C   UNL     1      -5.068  -2.842  32.149  0.00  0.00    +0.192 C 
ATOM     15  C   UNL     1      -5.168  -3.773  30.934  0.00  0.00    +0.120 C 
BRANCH  14  16
ATOM     16  N   UNL     1      -6.348  -2.492  32.679  0.00  0.00    -0.247 NA
ATOM     17  C   UNL     1      -7.299  -1.746  31.799  0.00  0.00    +0.092 C 
ATOM     18  C   UNL     1      -6.606  -1.062  32.848  0.00  0.00    +0.092 C 
ENDBRANCH  14  16
BRANCH  11  19
ATOM     19  C   UNL     1      -2.743  -2.772  28.740  0.00  0.00    +0.232 C 
ATOM     20  O   UNL     1      -3.073  -3.756  28.013  0.00  0.00    -0.286 OA
BRANCH  19  21
ATOM     21  C   UNL     1      -2.005  -1.670  28.139  0.00  0.00    +0.273 C 
ATOM     22  O   UNL     1      -1.687  -0.695  28.854  0.00  0.00    -0.280 OA
ENDBRANCH  19  21
ENDBRANCH  11  19
ENDBRANCH   1  10
BRANCH   8  23
ATOM     23  S   UNL     1       0.967  -6.277  32.489  0.00  0.00    -0.132 S 
ATOM     24  H   UNL     1       0.776  -4.936  32.371  0.00  0.00    +0.108 HD
BRANCH  23  25
ATOM     25  S   UNL     1       2.341  -6.767  31.679  0.00  0.00    -0.119 S 
ATOM     26  H   UNL     1       2.496  -8.111  31.821  0.00  0.00    +0.113 HD
ENDBRANCH  23  25
BRANCH  23  27
ATOM     27  S   UNL     1       1.315  -7.220  33.982  0.00  0.00    -0.119 S 
ATOM     28  H   UNL     1       1.437  -8.538  33.668  0.00  0.00    +0.113 HD
ENDBRANCH  23  27
ENDBRANCH   8  23
TORSDOF 7
