REMARK  Name = =
REMARK  9 active torsions:
REMARK  status: ('A' for Active; 'I' for Inactive)
REMARK    1  A    between atoms: N_1  and  C_7
REMARK    2  A    between atoms: C_2  and  C_22
REMARK    3  A    between atoms: C_5  and  N_19
REMARK    4  A    between atoms: C_14  and  S_16
REMARK    5  A    between atoms: S_16  and  S_17
REMARK    6  A    between atoms: S_16  and  S_18
REMARK    7  A    between atoms: C_22  and  C_24
REMARK    8  A    between atoms: N_25  and  S_27
REMARK    9  A    between atoms: S_27  and  N_30
REMARK                            x       y       z     vdW  Elec       q    Type
REMARK                         _______ _______ _______ _____ _____    ______ ____
ROOT
ATOM      1  N   UNL     1      -1.673  -3.368  30.001  0.00  0.00    -0.263 NA
ATOM      2  C   UNL     1      -2.616  -2.403  29.742  0.00  0.00    +0.155 C 
ATOM      3  C   UNL     1      -2.529  -1.961  28.229  0.00  0.00    +0.168 C 
ATOM      4  O   UNL     1      -1.256  -1.581  27.942  0.00  0.00    -0.338 OA
ATOM      5  C   UNL     1      -0.231  -2.378  28.370  0.00  0.00    +0.192 C 
ATOM      6  C   UNL     1      -0.344  -2.725  29.856  0.00  0.00    +0.120 C 
ENDROOT
BRANCH   1   7
ATOM      7  C   UNL     1      -1.653  -4.669  30.165  0.00  0.00    +0.067 C 
ATOM      8  C   UNL     1      -2.698  -5.441  30.974  0.00  0.00    +0.043 C 
ATOM      9  C   UNL     1      -2.025  -6.782  30.935  0.00  0.00    -0.019 C 
ATOM     10  C   UNL     1      -1.390  -6.881  29.684  0.00  0.00    -0.024 C 
ATOM     11  C   UNL     1      -0.675  -8.022  29.393  0.00  0.00    -0.005 C 
ATOM     12  C   UNL     1      -0.555  -9.066  30.274  0.00  0.00    +0.000 C 
ATOM     13  C   UNL     1      -1.174  -8.969  31.496  0.00  0.00    +0.006 C 
ATOM     14  C   UNL     1      -1.900  -7.818  31.798  0.00  0.00    +0.018 C 
ATOM     15  C   UNL     1      -1.626  -5.601  28.949  0.00  0.00    +0.042 C 
BRANCH  14  16
ATOM     16  S   UNL     1      -2.691  -7.766  33.411  0.00  0.00    -0.132 S 
ATOM     17  H   UNL     1      -1.873  -6.907  34.076  0.00  0.00    +0.108 HD
BRANCH  16  18
ATOM     18  S   UNL     1      -4.306  -7.383  33.372  0.00  0.00    -0.119 S 
ATOM     19  H   UNL     1      -4.981  -8.335  32.674  0.00  0.00    +0.113 HD
ENDBRANCH  16  18
BRANCH  16  20
ATOM     20  S   UNL     1      -2.942  -9.303  34.023  0.00  0.00    -0.119 S 
ATOM     21  H   UNL     1      -3.787  -9.985  33.204  0.00  0.00    +0.113 HD
ENDBRANCH  16  20
ENDBRANCH  14  16
ENDBRANCH   1   7
BRANCH   5  22
ATOM     22  N   UNL     1       1.009  -1.643  28.232  0.00  0.00    -0.247 NA
ATOM     23  C   UNL     1       1.964  -2.008  27.234  0.00  0.00    +0.092 C 
ATOM     24  C   UNL     1       1.195  -0.727  27.122  0.00  0.00    +0.092 C 
ENDBRANCH   5  22
BRANCH   2  25
ATOM     25  C   UNL     1      -4.010  -2.573  30.104  0.00  0.00    +0.244 C 
ATOM     26  O   UNL     1      -4.643  -3.599  29.774  0.00  0.00    -0.285 OA
BRANCH  25  27
ATOM     27  C   UNL     1      -4.752  -1.578  30.867  0.00  0.00    +0.301 C 
ATOM     28  N   UNL     1      -6.157  -1.675  31.092  0.00  0.00    -0.169 N 
ATOM     29  O   UNL     1      -4.180  -0.573  31.372  0.00  0.00    -0.265 OA
ATOM     30  H   UNL     1      -6.631  -2.444  30.702  0.00  0.00    +0.178 HD
BRANCH  28  31
ATOM     31  S   UNL     1      -7.080  -0.541  31.998  0.00  0.00    +0.109 S 
ATOM     32  O   UNL     1      -8.084  -1.239  32.880  0.00  0.00    -0.138 OA
ATOM     33  O   UNL     1      -6.226   0.356  32.810  0.00  0.00    -0.138 OA
BRANCH  31  34
ATOM     34  N   UNL     1      -7.974   0.421  30.873  0.00  0.00    -0.191 NA
ATOM     35  H   UNL     1      -7.327   0.911  30.256  0.00  0.00    +0.146 HD
ATOM     36  H   UNL     1      -8.540   1.100  31.381  0.00  0.00    +0.146 HD
ENDBRANCH  31  34
ENDBRANCH  28  31
ENDBRANCH  25  27
ENDBRANCH   2  25
TORSDOF 9
