REMARK  Name = =
REMARK  10 active torsions:
REMARK  status: ('A' for Active; 'I' for Inactive)
REMARK    1  A    between atoms: N_1  and  C_7
REMARK    2  A    between atoms: C_2  and  C_22
REMARK    3  A    between atoms: C_5  and  N_19
REMARK    4  A    between atoms: C_14  and  S_16
REMARK    5  A    between atoms: S_16  and  S_17
REMARK    6  A    between atoms: S_16  and  S_18
REMARK    7  A    between atoms: C_22  and  C_24
REMARK    8  A    between atoms: N_25  and  S_27
REMARK    9  A    between atoms: S_27  and  N_30
REMARK   10  A    between atoms: N_30  and  C_31
REMARK                            x       y       z     vdW  Elec       q    Type
REMARK                         _______ _______ _______ _____ _____    ______ ____
ROOT
ATOM      1  N   UNL     1      -3.483  -3.708  31.297  0.00  0.00    -0.263 NA
ATOM      2  C   UNL     1      -2.632  -2.773  30.794  0.00  0.00    +0.155 C 
ATOM      3  C   UNL     1      -3.424  -1.956  29.726  0.00  0.00    +0.168 C 
ATOM      4  O   UNL     1      -4.785  -2.081  29.962  0.00  0.00    -0.338 OA
ATOM      5  C   UNL     1      -4.985  -1.870  31.340  0.00  0.00    +0.192 C 
ATOM      6  C   UNL     1      -4.570  -3.121  32.045  0.00  0.00    +0.120 C 
ENDROOT
BRANCH   1   7
ATOM      7  C   UNL     1      -3.517  -5.067  31.211  0.00  0.00    +0.067 C 
ATOM      8  C   UNL     1      -2.686  -5.735  30.130  0.00  0.00    +0.043 C 
ATOM      9  C   UNL     1      -2.213  -7.010  30.708  0.00  0.00    -0.019 C 
ATOM     10  C   UNL     1      -2.614  -7.079  32.014  0.00  0.00    -0.024 C 
ATOM     11  C   UNL     1      -2.267  -8.218  32.744  0.00  0.00    -0.005 C 
ATOM     12  C   UNL     1      -1.551  -9.225  32.165  0.00  0.00    +0.000 C 
ATOM     13  C   UNL     1      -1.160  -9.123  30.838  0.00  0.00    +0.006 C 
ATOM     14  C   UNL     1      -1.489  -8.017  30.105  0.00  0.00    +0.018 C 
ATOM     15  C   UNL     1      -3.371  -5.901  32.457  0.00  0.00    +0.042 C 
BRANCH  14  16
ATOM     16  S   UNL     1      -0.997  -7.890  28.438  0.00  0.00    -0.132 S 
ATOM     17  H   UNL     1      -2.112  -7.830  27.661  0.00  0.00    +0.108 HD
BRANCH  16  18
ATOM     18  S   UNL     1       0.027  -9.082  27.876  0.00  0.00    -0.119 S 
ATOM     19  H   UNL     1       1.137  -9.133  28.660  0.00  0.00    +0.113 HD
ENDBRANCH  16  18
BRANCH  16  20
ATOM     20  S   UNL     1       0.164  -6.630  28.579  0.00  0.00    -0.119 S 
ATOM     21  H   UNL     1       1.149  -7.015  29.434  0.00  0.00    +0.113 HD
ENDBRANCH  16  20
ENDBRANCH  14  16
ENDBRANCH   1   7
BRANCH   5  22
ATOM     22  N   UNL     1      -6.300  -1.407  31.542  0.00  0.00    -0.247 NA
ATOM     23  C   UNL     1      -6.869  -1.076  32.805  0.00  0.00    +0.092 C 
ATOM     24  C   UNL     1      -7.331  -2.265  32.024  0.00  0.00    +0.092 C 
ENDBRANCH   5  22
BRANCH   2  25
ATOM     25  C   UNL     1      -1.380  -3.115  30.141  0.00  0.00    +0.244 C 
ATOM     26  O   UNL     1      -0.693  -4.090  30.474  0.00  0.00    -0.285 OA
BRANCH  25  27
ATOM     27  C   UNL     1      -0.869  -2.308  29.046  0.00  0.00    +0.301 C 
ATOM     28  N   UNL     1      -0.061  -2.822  27.990  0.00  0.00    -0.169 N 
ATOM     29  O   UNL     1      -1.146  -1.092  29.010  0.00  0.00    -0.265 OA
ATOM     30  H   UNL     1       0.172  -3.778  27.991  0.00  0.00    +0.178 HD
BRANCH  28  31
ATOM     31  S   UNL     1       0.523  -1.820  26.707  0.00  0.00    +0.112 S 
ATOM     32  O   UNL     1      -0.680  -1.305  25.922  0.00  0.00    -0.138 OA
ATOM     33  O   UNL     1       1.153  -0.635  27.316  0.00  0.00    -0.138 OA
BRANCH  31  34
ATOM     34  N   UNL     1       1.463  -2.718  25.656  0.00  0.00    -0.168 NA
ATOM     35  H   UNL     1       1.450  -2.229  24.761  0.00  0.00    +0.150 HD
BRANCH  34  36
ATOM     36  C   UNL     1       2.804  -2.977  25.951  0.00  0.00    +0.077 C 
ATOM     37  C   UNL     1       3.805  -2.796  24.861  0.00  0.00    +0.018 C 
ATOM     38  C   UNL     1       3.495  -3.901  23.919  0.00  0.00    +0.006 C 
ATOM     39  C   UNL     1       4.718  -4.328  23.105  0.00  0.00    +0.022 C 
ATOM     40  C   UNL     1       4.896  -5.759  23.424  0.00  0.00    -0.044 C 
ATOM     41  C   UNL     1       5.412  -6.678  22.643  0.00  0.00    -0.009 C 
ATOM     42  C   UNL     1       4.384  -5.966  24.794  0.00  0.00    +0.022 C 
ATOM     43  C   UNL     1       3.173  -5.061  24.832  0.00  0.00    +0.006 C 
ATOM     44  C   UNL     1       2.958  -4.460  26.224  0.00  0.00    +0.018 C 
ENDBRANCH  34  36
ENDBRANCH  31  34
ENDBRANCH  28  31
ENDBRANCH  25  27
ENDBRANCH   2  25
TORSDOF 10
