REMARK  Name = =
REMARK  1 active torsions:
REMARK  status: ('A' for Active; 'I' for Inactive)
REMARK    1  A    between atoms: N_1  and  C_19
REMARK                            x       y       z     vdW  Elec       q    Type
REMARK                         _______ _______ _______ _____ _____    ______ ____
ROOT
ATOM      1  N   UNL     1      51.278 157.613  29.868  0.00  0.00    -0.254 N 
ATOM      2  C   UNL     1      52.247 158.681  29.839  0.00  0.00    +0.087 C 
ATOM      3  C   UNL     1      52.145 159.931  30.443  0.00  0.00    +0.155 C 
ATOM      4  N   UNL     1      53.140 160.813  30.354  0.00  0.00    -0.227 NA
ATOM      5  C   UNL     1      54.273 160.495  29.664  0.00  0.00    +0.100 C 
ATOM      6  C   UNL     1      54.395 159.263  29.055  0.00  0.00    +0.022 C 
ATOM      7  C   UNL     1      53.382 158.342  29.137  0.00  0.00    +0.019 C 
ATOM      8  N   UNL     1      51.016 160.448  31.197  0.00  0.00    -0.214 N 
ATOM      9  C   UNL     1      49.650 160.183  30.910  0.00  0.00    +0.064 C 
ATOM     10  C   UNL     1      49.143 159.015  30.357  0.00  0.00    +0.068 C 
ATOM     11  C   UNL     1      47.802 158.881  30.144  0.00  0.00    +0.006 C 
ATOM     12  C   UNL     1      46.999 159.941  30.497  0.00  0.00    +0.000 C 
ATOM     13  C   UNL     1      47.463 161.116  31.046  0.00  0.00    +0.001 C 
ATOM     14  C   UNL     1      48.822 161.229  31.252  0.00  0.00    +0.015 C 
ATOM     15  C   UNL     1      49.852 157.806  29.886  0.00  0.00    +0.254 C 
ATOM     16  O   UNL     1      49.216 156.847  29.459  0.00  0.00    -0.270 OA
ATOM     17  C   UNL     1      51.319 161.289  32.268  0.00  0.00    +0.312 C 
ATOM     18  O   UNL     1      50.538 161.775  33.097  0.00  0.00    -0.264 OA
ENDROOT
BRANCH   1  19
ATOM     19  C   UNL     1      51.833 156.299  29.892  0.00  0.00    +0.083 C 
ATOM     20  C   UNL     1      50.694 155.286  30.186  0.00  0.00    +0.037 C 
ATOM     21  C   UNL     1      51.251 153.884  30.344  0.00  0.00    +0.070 C 
ATOM     22  N   UNL     1      52.204 153.580  29.294  0.00  0.00    -0.297 NA
ATOM     23  C   UNL     1      52.000 154.458  28.151  0.00  0.00    +0.070 C 
ATOM     24  C   UNL     1      52.360 155.831  28.557  0.00  0.00    +0.037 C 
ATOM     25  H   UNL     1      52.081 152.611  28.999  0.00  0.00    +0.123 HD
ENDBRANCH   1  19
TORSDOF 1
