REMARK  Name = =
REMARK  0 active torsions:
REMARK  status: ('A' for Active; 'I' for Inactive)
REMARK                            x       y       z     vdW  Elec       q    Type
REMARK                         _______ _______ _______ _____ _____    ______ ____
ROOT
ATOM      1  N   UNL     1      52.852 157.118  27.144  0.00  0.00    -0.313 N 
ATOM      2  C   UNL     1      52.027 156.977  28.291  0.00  0.00    +0.044 C 
ATOM      3  C   UNL     1      51.557 155.770  28.796  0.00  0.00    -0.008 C 
ATOM      4  C   UNL     1      50.766 155.816  29.923  0.00  0.00    -0.003 C 
ATOM      5  C   UNL     1      50.422 156.988  30.564  0.00  0.00    -0.000 C 
ATOM      6  C   UNL     1      50.915 158.164  30.020  0.00  0.00    +0.001 C 
ATOM      7  C   UNL     1      51.704 158.160  28.903  0.00  0.00    +0.014 C 
ATOM      8  C   UNL     1      51.760 154.379  28.326  0.00  0.00    +0.032 C 
ATOM      9  C   UNL     1      51.646 154.242  26.844  0.00  0.00    +0.032 C 
ATOM     10  C   UNL     1      52.789 154.824  26.096  0.00  0.00    -0.008 C 
ATOM     11  C   UNL     1      53.296 156.096  26.252  0.00  0.00    +0.044 C 
ATOM     12  C   UNL     1      54.376 156.499  25.472  0.00  0.00    +0.014 C 
ATOM     13  C   UNL     1      54.942 155.645  24.550  0.00  0.00    +0.001 C 
ATOM     14  C   UNL     1      54.412 154.377  24.417  0.00  0.00    -0.000 C 
ATOM     15  C   UNL     1      53.344 153.964  25.182  0.00  0.00    -0.003 C 
ATOM     16  H   UNL     1      53.155 158.032  26.939  0.00  0.00    +0.152 HD
ENDROOT
TORSDOF 0
