REMARK  Name = =
REMARK  1 active torsions:
REMARK  status: ('A' for Active; 'I' for Inactive)
REMARK    1  A    between atoms: N_1  and  C_16
REMARK                            x       y       z     vdW  Elec       q    Type
REMARK                         _______ _______ _______ _____ _____    ______ ____
ROOT
ATOM      1  N   UNL     1      52.921 157.042  27.838  0.00  0.00    -0.285 N 
ATOM      2  C   UNL     1      52.065 156.202  28.620  0.00  0.00    +0.048 C 
ATOM      3  C   UNL     1      52.063 154.799  28.728  0.00  0.00    -0.008 C 
ATOM      4  C   UNL     1      51.170 154.159  29.548  0.00  0.00    -0.003 C 
ATOM      5  C   UNL     1      50.273 154.921  30.264  0.00  0.00    -0.000 C 
ATOM      6  C   UNL     1      50.236 156.293  30.192  0.00  0.00    +0.001 C 
ATOM      7  C   UNL     1      51.154 156.909  29.353  0.00  0.00    +0.015 C 
ATOM      8  C   UNL     1      52.979 153.835  28.017  0.00  0.00    +0.032 C 
ATOM      9  C   UNL     1      52.818 154.030  26.531  0.00  0.00    +0.032 C 
ATOM     10  C   UNL     1      53.448 155.268  26.028  0.00  0.00    -0.008 C 
ATOM     11  C   UNL     1      53.467 156.528  26.602  0.00  0.00    +0.048 C 
ATOM     12  C   UNL     1      54.102 157.528  25.948  0.00  0.00    +0.015 C 
ATOM     13  C   UNL     1      54.736 157.343  24.724  0.00  0.00    +0.001 C 
ATOM     14  C   UNL     1      54.710 156.086  24.166  0.00  0.00    -0.000 C 
ATOM     15  C   UNL     1      54.066 155.039  24.812  0.00  0.00    -0.003 C 
ENDROOT
BRANCH   1  16
ATOM     16  C   UNL     1      53.184 158.320  28.317  0.00  0.00    +0.099 C 
ATOM     17  C   UNL     1      52.320 159.061  29.241  0.00  0.00    +0.025 C 
ATOM     18  C   UNL     1      53.013 159.930  30.268  0.00  0.00    +0.006 C 
ATOM     19  C   UNL     1      54.322 160.445  29.900  0.00  0.00    +0.022 C 
ATOM     20  C   UNL     1      54.948 161.287  30.944  0.00  0.00    +0.004 C 
ATOM     21  C   UNL     1      54.018 162.191  31.693  0.00  0.00    +0.000 C 
ATOM     22  C   UNL     1      52.785 162.364  30.829  0.00  0.00    +0.000 C 
ATOM     23  C   UNL     1      52.094 161.038  30.712  0.00  0.00    +0.000 C 
ATOM     24  C   UNL     1      55.172 159.311  29.473  0.00  0.00    -0.029 C 
ATOM     25  C   UNL     1      54.674 158.358  28.768  0.00  0.00    -0.011 C 
ENDBRANCH   1  16
TORSDOF 1
