REMARK  Name = =
REMARK  0 active torsions:
REMARK  status: ('A' for Active; 'I' for Inactive)
REMARK                            x       y       z     vdW  Elec       q    Type
REMARK                         _______ _______ _______ _____ _____    ______ ____
ROOT
ATOM      1 CL   UNL     1      52.786 156.926  27.390  0.00  0.00    -0.082 Cl
ATOM      2  C   UNL     1      52.498 156.911  29.137  0.00  0.00    +0.194 C 
ATOM      3  O   UNL     1      52.174 158.175  29.536  0.00  0.00    -0.341 OA
ATOM      4  C   UNL     1      50.865 158.236  29.896  0.00  0.00    +0.144 C 
ATOM      5  C   UNL     1      50.261 156.879  29.850  0.00  0.00    +0.036 C 
ATOM      6  C   UNL     1      51.431 155.965  29.559  0.00  0.00    +0.049 C 
ENDROOT
TORSDOF 0
