REMARK  Name = =
REMARK  1 active torsions:
REMARK  status: ('A' for Active; 'I' for Inactive)
REMARK    1  A    between atoms: C_1  and  C_16
REMARK                            x       y       z     vdW  Elec       q    Type
REMARK                         _______ _______ _______ _____ _____    ______ ____
ROOT
ATOM      1  C   UNL     1      51.988 156.834  28.835  0.00  0.00    +0.140 C 
ATOM      2  O   UNL     1      51.033 156.324  29.736  0.00  0.00    -0.349 OA
ATOM      3  C   UNL     1      50.135 157.150  30.295  0.00  0.00    +0.174 C 
ATOM      4  C   UNL     1      49.523 158.263  29.528  0.00  0.00    +0.174 C 
ATOM      5  O   UNL     1      48.936 159.197  30.392  0.00  0.00    -0.326 OA
ATOM      6  C   UNL     1      49.597 160.410  30.160  0.00  0.00    +0.264 C 
ATOM      7  O   UNL     1      48.986 161.518  30.665  0.00  0.00    -0.321 OA
ATOM      8  C   UNL     1      48.838 161.472  32.050  0.00  0.00    +0.209 C 
ATOM      9  C   UNL     1      50.092 161.079  32.734  0.00  0.00    +0.183 C 
ATOM     10  O   UNL     1      50.207 161.393  33.899  0.00  0.00    -0.293 OA
ATOM     11  C   UNL     1      51.213 160.323  32.062  0.00  0.00    +0.102 C 
ATOM     12  C   UNL     1      51.055 160.302  30.592  0.00  0.00    +0.179 C 
ATOM     13  O   UNL     1      51.594 159.207  29.913  0.00  0.00    -0.350 OA
ATOM     14  C   UNL     1      50.710 158.967  28.817  0.00  0.00    +0.148 C 
ATOM     15  C   UNL     1      51.242 157.843  27.938  0.00  0.00    +0.066 C 
ENDROOT
BRANCH   1  16
ATOM     16  C   UNL     1      52.304 155.677  27.942  0.00  0.00    +0.006 C 
ATOM     17  C   UNL     1      53.180 155.836  26.860  0.00  0.00    -0.000 C 
ATOM     18  C   UNL     1      53.572 154.776  26.083  0.00  0.00    +0.019 C 
ATOM     19  C   UNL     1      53.102 153.482  26.355  0.00  0.00    +0.099 C 
ATOM     20  N   UNL     1      53.509 152.465  25.605  0.00  0.00    -0.241 NA
ATOM     21  C   UNL     1      53.049 151.218  25.910  0.00  0.00    +0.119 C 
ATOM     22  C   UNL     1      52.193 151.006  26.952  0.00  0.00    +0.119 C 
ATOM     23  N   UNL     1      51.783 152.035  27.704  0.00  0.00    -0.241 NA
ATOM     24  C   UNL     1      52.244 153.305  27.408  0.00  0.00    +0.099 C 
ATOM     25  C   UNL     1      51.860 154.402  28.181  0.00  0.00    +0.019 C 
ATOM     26  C   UNL     1      54.371 154.927  24.994  0.00  0.00    +0.002 C 
ATOM     27  C   UNL     1      54.804 156.218  24.653  0.00  0.00    +0.000 C 
ATOM     28  C   UNL     1      54.411 157.274  25.436  0.00  0.00    -0.000 C 
ATOM     29  C   UNL     1      53.605 157.090  26.536  0.00  0.00    -0.000 C 
ENDBRANCH   1  16
TORSDOF 1
