REMARK  Name = =
REMARK  1 active torsions:
REMARK  status: ('A' for Active; 'I' for Inactive)
REMARK    1  A    between atoms: C_2  and  C_7
REMARK                            x       y       z     vdW  Elec       q    Type
REMARK                         _______ _______ _______ _____ _____    ______ ____
ROOT
ATOM      1 CL   UNL     1      53.398 156.327  28.519  0.00  0.00    -0.084 Cl
ATOM      2  C   UNL     1      52.153 155.106  28.185  0.00  0.00    +0.181 C 
ATOM      3  O   UNL     1      50.884 155.634  28.160  0.00  0.00    -0.342 OA
ATOM      4  C   UNL     1      50.434 155.703  29.474  0.00  0.00    +0.144 C 
ATOM      5  C   UNL     1      50.980 154.439  30.120  0.00  0.00    +0.036 C 
ATOM      6  C   UNL     1      52.192 154.077  29.290  0.00  0.00    +0.048 C 
ENDROOT
BRANCH   2   7
ATOM      7  C   UNL     1      52.447 154.499  26.848  0.00  0.00    +0.143 C 
ATOM      8  N   UNL     1      53.559 153.545  26.915  0.00  0.00    -0.286 NA
ATOM      9  C   UNL     1      53.951 153.340  25.543  0.00  0.00    +0.081 C 
ATOM     10  C   UNL     1      54.483 154.666  25.028  0.00  0.00    +0.076 C 
ATOM     11  S   UNL     1      53.267 155.794  25.827  0.00  0.00    -0.120 S 
ATOM     12  H   UNL     1      53.255 152.668  27.337  0.00  0.00    +0.124 HD
ENDBRANCH   2   7
TORSDOF 1
