REMARK  Name = =
REMARK  2 active torsions:
REMARK  status: ('A' for Active; 'I' for Inactive)
REMARK    1  A    between atoms: C_1  and  N_11
REMARK    2  A    between atoms: C_1  and  C_29
REMARK                            x       y       z     vdW  Elec       q    Type
REMARK                         _______ _______ _______ _____ _____    ______ ____
ROOT
ATOM      1  C   UNL     1      50.256 158.340  29.795  0.00  0.00    +0.089 C 
ATOM      2  C   UNL     1      49.889 156.952  29.116  0.00  0.00    +0.024 C 
ATOM      3  C   UNL     1      51.154 156.218  28.803  0.00  0.00    +0.006 C 
ATOM      4  C   UNL     1      51.890 155.824  30.031  0.00  0.00    +0.022 C 
ATOM      5  C   UNL     1      51.998 154.372  30.285  0.00  0.00    +0.004 C 
ATOM      6  C   UNL     1      51.334 153.465  29.309  0.00  0.00    +0.000 C 
ATOM      7  C   UNL     1      51.758 153.945  27.914  0.00  0.00    +0.000 C 
ATOM      8  C   UNL     1      51.061 155.255  27.703  0.00  0.00    +0.000 C 
ATOM      9  C   UNL     1      51.178 156.460  31.175  0.00  0.00    -0.029 C 
ATOM     10  C   UNL     1      50.454 157.553  31.120  0.00  0.00    -0.012 C 
ENDROOT
BRANCH   1  11
ATOM     11  N   UNL     1      51.565 158.696  29.474  0.00  0.00    -0.286 N 
ATOM     12  C   UNL     1      52.202 158.034  28.382  0.00  0.00    +0.048 C 
ATOM     13  C   UNL     1      53.537 157.632  28.252  0.00  0.00    -0.008 C 
ATOM     14  C   UNL     1      53.936 156.987  27.103  0.00  0.00    -0.003 C 
ATOM     15  C   UNL     1      53.014 156.752  26.111  0.00  0.00    -0.000 C 
ATOM     16  C   UNL     1      51.693 157.134  26.205  0.00  0.00    +0.001 C 
ATOM     17  C   UNL     1      51.307 157.787  27.376  0.00  0.00    +0.015 C 
ATOM     18  C   UNL     1      54.622 157.821  29.245  0.00  0.00    +0.032 C 
ATOM     19  C   UNL     1      54.766 159.276  29.539  0.00  0.00    +0.032 C 
ATOM     20  C   UNL     1      53.692 159.931  30.253  0.00  0.00    -0.008 C 
ATOM     21  C   UNL     1      52.314 159.716  30.197  0.00  0.00    +0.048 C 
ATOM     22  C   UNL     1      51.433 160.485  30.893  0.00  0.00    +0.015 C 
ATOM     23  C   UNL     1      51.916 161.506  31.682  0.00  0.00    +0.001 C 
ATOM     24  C   UNL     1      53.299 161.735  31.753  0.00  0.00    -0.000 C 
ATOM     25  C   UNL     1      54.182 160.968  31.055  0.00  0.00    -0.003 C 
ENDBRANCH   1  11
BRANCH   1  29
ATOM     26  N   UNL     1      47.580 160.219  31.238  0.00  0.00    -0.255 N 
ATOM     27  C   UNL     1      48.293 158.997  31.119  0.00  0.00    +0.230 C 
ATOM     28  O   UNL     1      48.280 158.104  31.981  0.00  0.00    -0.275 OA
ATOM     29  C   UNL     1      49.024 159.046  29.775  0.00  0.00    +0.107 C 
ATOM     30  C   UNL     1      48.663 160.332  29.178  0.00  0.00    +0.096 C 
ATOM     31  C   UNL     1      47.511 160.869  29.969  0.00  0.00    +0.229 C 
ATOM     32  O   UNL     1      46.679 161.717  29.560  0.00  0.00    -0.275 OA
ATOM     33  H   UNL     1      47.191 160.567  32.073  0.00  0.00    +0.158 HD
ENDBRANCH   1  29
TORSDOF 2
