REMARK  Name = =
REMARK  4 active torsions:
REMARK  status: ('A' for Active; 'I' for Inactive)
REMARK    1  A    between atoms: C_1  and  C_16
REMARK    2  A    between atoms: C_1  and  O_30
REMARK    3  A    between atoms: O_30  and  C_31
REMARK    4  A    between atoms: C_31  and  O_33
REMARK                            x       y       z     vdW  Elec       q    Type
REMARK                         _______ _______ _______ _____ _____    ______ ____
ROOT
ATOM      1  C   UNL     1      52.614 157.797  28.451  0.00  0.00    +0.258 C 
ATOM      2  O   UNL     1      51.693 158.560  27.733  0.00  0.00    -0.319 OA
ATOM      3  C   UNL     1      50.447 157.913  27.903  0.00  0.00    +0.178 C 
ATOM      4  C   UNL     1      49.982 158.413  29.267  0.00  0.00    +0.175 C 
ATOM      5  O   UNL     1      50.111 159.783  29.224  0.00  0.00    -0.326 OA
ATOM      6  C   UNL     1      50.251 160.393  30.440  0.00  0.00    +0.264 C 
ATOM      7  O   UNL     1      49.478 161.516  30.474  0.00  0.00    -0.321 OA
ATOM      8  C   UNL     1      49.225 162.031  31.721  0.00  0.00    +0.209 C 
ATOM      9  C   UNL     1      48.419 161.041  32.476  0.00  0.00    +0.183 C 
ATOM     10  O   UNL     1      47.573 161.421  33.253  0.00  0.00    -0.293 OA
ATOM     11  C   UNL     1      48.718 159.595  32.216  0.00  0.00    +0.102 C 
ATOM     12  C   UNL     1      50.093 159.530  31.627  0.00  0.00    +0.179 C 
ATOM     13  O   UNL     1      50.641 158.292  31.552  0.00  0.00    -0.350 OA
ATOM     14  C   UNL     1      50.894 157.809  30.293  0.00  0.00    +0.151 C 
ATOM     15  C   UNL     1      52.348 157.887  29.943  0.00  0.00    +0.107 C 
ENDROOT
BRANCH   1  16
ATOM     16  C   UNL     1      52.624 156.421  27.944  0.00  0.00    +0.043 C 
ATOM     17  C   UNL     1      53.210 156.142  26.721  0.00  0.00    +0.003 C 
ATOM     18  C   UNL     1      53.228 154.842  26.219  0.00  0.00    +0.019 C 
ATOM     19  C   UNL     1      52.655 153.799  26.944  0.00  0.00    +0.099 C 
ATOM     20  N   UNL     1      52.650 152.530  26.499  0.00  0.00    -0.241 NA
ATOM     21  C   UNL     1      52.094 151.521  27.203  0.00  0.00    +0.119 C 
ATOM     22  C   UNL     1      51.504 151.777  28.423  0.00  0.00    +0.119 C 
ATOM     23  N   UNL     1      51.502 153.042  28.880  0.00  0.00    -0.241 NA
ATOM     24  C   UNL     1      52.066 154.053  28.161  0.00  0.00    +0.099 C 
ATOM     25  C   UNL     1      52.069 155.350  28.621  0.00  0.00    +0.022 C 
ATOM     26  C   UNL     1      53.818 154.584  24.996  0.00  0.00    +0.002 C 
ATOM     27  C   UNL     1      54.399 155.573  24.235  0.00  0.00    +0.000 C 
ATOM     28  C   UNL     1      54.394 156.866  24.708  0.00  0.00    -0.000 C 
ATOM     29  C   UNL     1      53.796 157.113  25.943  0.00  0.00    -0.000 C 
ENDBRANCH   1  16
BRANCH   1  30
ATOM     30  O   UNL     1      53.912 158.330  28.277  0.00  0.00    -0.396 OA
BRANCH  30  31
ATOM     31  C   UNL     1      54.869 158.303  29.263  0.00  0.00    +0.510 C 
ATOM     32  O   UNL     1      54.788 157.505  30.223  0.00  0.00    -0.203 OA
BRANCH  31  33
ATOM     33  O   UNL     1      55.970 159.171  29.224  0.00  0.00    -0.450 OA
ATOM     34  H   UNL     1      56.615 159.141  29.903  0.00  0.00    +0.299 HD
ENDBRANCH  31  33
ENDBRANCH  30  31
ENDBRANCH   1  30
TORSDOF 4
