REMARK  Name = =
REMARK  4 active torsions:
REMARK  status: ('A' for Active; 'I' for Inactive)
REMARK    1  A    between atoms: C_1  and  N_11
REMARK    2  A    between atoms: C_1  and  C_29
REMARK    3  A    between atoms: N_26  and  C_33
REMARK    4  A    between atoms: C_33  and  C_34
REMARK                            x       y       z     vdW  Elec       q    Type
REMARK                         _______ _______ _______ _____ _____    ______ ____
ROOT
ATOM      1  C   UNL     1      50.633 158.260  29.578  0.00  0.00    +0.089 C 
ATOM      2  C   UNL     1      49.087 158.108  29.814  0.00  0.00    +0.024 C 
ATOM      3  C   UNL     1      48.528 158.929  30.877  0.00  0.00    +0.006 C 
ATOM      4  C   UNL     1      49.437 159.173  31.995  0.00  0.00    +0.022 C 
ATOM      5  C   UNL     1      48.836 159.476  33.311  0.00  0.00    +0.004 C 
ATOM      6  C   UNL     1      47.355 159.361  33.416  0.00  0.00    +0.000 C 
ATOM      7  C   UNL     1      46.737 159.961  32.166  0.00  0.00    +0.000 C 
ATOM      8  C   UNL     1      47.098 159.052  31.031  0.00  0.00    +0.000 C 
ATOM      9  C   UNL     1      50.338 158.001  32.055  0.00  0.00    -0.029 C 
ATOM     10  C   UNL     1      50.908 157.552  30.951  0.00  0.00    -0.012 C 
ENDROOT
BRANCH   1  11
ATOM     11  N   UNL     1      50.940 159.561  29.863  0.00  0.00    -0.286 N 
ATOM     12  C   UNL     1      52.291 160.005  30.180  0.00  0.00    +0.052 C 
ATOM     13  C   UNL     1      52.712 161.051  30.995  0.00  0.00    +0.014 C 
ATOM     14  C   UNL     1      54.074 161.262  31.155  0.00  0.00    +0.001 C 
ATOM     15  C   UNL     1      54.972 160.422  30.498  0.00  0.00    +0.000 C 
ATOM     16  C   UNL     1      54.545 159.396  29.698  0.00  0.00    +0.001 C 
ATOM     17  C   UNL     1      53.179 159.186  29.537  0.00  0.00    +0.015 C 
ATOM     18  C   UNL     1      51.962 162.006  31.734  0.00  0.00    +0.001 C 
ATOM     19  C   UNL     1      50.525 162.137  31.750  0.00  0.00    +0.001 C 
ATOM     20  C   UNL     1      49.700 161.672  30.660  0.00  0.00    +0.014 C 
ATOM     21  C   UNL     1      49.881 160.580  29.854  0.00  0.00    +0.052 C 
ATOM     22  C   UNL     1      49.031 160.231  28.834  0.00  0.00    +0.015 C 
ATOM     23  C   UNL     1      47.922 161.033  28.609  0.00  0.00    +0.001 C 
ATOM     24  C   UNL     1      47.707 162.152  29.411  0.00  0.00    +0.000 C 
ATOM     25  C   UNL     1      48.601 162.466  30.435  0.00  0.00    +0.001 C 
ENDBRANCH   1  11
BRANCH   1  29
ATOM     26  N   UNL     1      52.368 155.328  28.779  0.00  0.00    -0.226 N 
ATOM     27  C   UNL     1      52.220 156.652  28.266  0.00  0.00    +0.234 C 
ATOM     28  O   UNL     1      53.169 157.153  27.565  0.00  0.00    -0.274 OA
ATOM     29  C   UNL     1      50.953 157.258  28.636  0.00  0.00    +0.107 C 
ATOM     30  C   UNL     1      50.169 155.921  28.794  0.00  0.00    +0.097 C 
ATOM     31  C   UNL     1      51.109 154.915  29.308  0.00  0.00    +0.232 C 
ATOM     32  O   UNL     1      50.903 153.914  30.041  0.00  0.00    -0.274 OA
BRANCH  26  33
ATOM     33  C   UNL     1      53.576 154.499  28.786  0.00  0.00    +0.127 C 
BRANCH  33  34
ATOM     34  C   UNL     1      53.542 153.495  27.697  0.00  0.00    -0.004 C 
ATOM     35  C   UNL     1      52.548 153.488  26.822  0.00  0.00    -0.003 C 
ENDBRANCH  33  34
ENDBRANCH  26  33
ENDBRANCH   1  29
TORSDOF 4
