REMARK  Name = =
REMARK  2 active torsions:
REMARK  status: ('A' for Active; 'I' for Inactive)
REMARK    1  A    between atoms: C_1  and  C_6
REMARK    2  A    between atoms: C_1  and  C_14
REMARK                            x       y       z     vdW  Elec       q    Type
REMARK                         _______ _______ _______ _____ _____    ______ ____
ROOT
ATOM      1  C   UNL     1      53.356 153.444  25.718  0.00  0.00    +0.156 C 
ATOM      2  N   UNL     1      53.000 154.105  24.537  0.00  0.00    -0.284 NA
ATOM      3  C   UNL     1      53.807 155.221  24.234  0.00  0.00    +0.081 C 
ATOM      4  C   UNL     1      55.261 154.741  24.222  0.00  0.00    +0.076 C 
ATOM      5  S   UNL     1      55.186 153.772  25.784  0.00  0.00    -0.117 S 
ATOM      6  H   UNL     1      52.035 154.423  24.627  0.00  0.00    +0.124 HD
ENDROOT
BRANCH   1   7
ATOM      7  C   UNL     1      53.240 152.004  25.605  0.00  0.00    +0.102 C 
ATOM      8  N   UNL     1      52.419 151.218  26.318  0.00  0.00    -0.181 NA
ATOM      9  N   UNL     1      52.333 149.917  26.231  0.00  0.00    -0.203 N 
ATOM     10  C   UNL     1      53.119 149.261  25.361  0.00  0.00    +0.265 C 
ATOM     11  O   UNL     1      53.010 148.014  25.301  0.00  0.00    -0.268 OA
ATOM     12  C   UNL     1      54.001 149.987  24.579  0.00  0.00    +0.061 C 
ATOM     13  C   UNL     1      54.060 151.356  24.701  0.00  0.00    +0.023 C 
ATOM     14  H   UNL     1      51.698 149.422  26.798  0.00  0.00    +0.178 HD
ENDBRANCH   1   7
BRANCH   1  16
ATOM     15 CL   UNL     1      50.929 153.714  26.813  0.00  0.00    -0.083 Cl
ATOM     16  C   UNL     1      52.696 154.051  26.913  0.00  0.00    +0.184 C 
ATOM     17  O   UNL     1      52.818 155.424  26.899  0.00  0.00    -0.342 OA
ATOM     18  C   UNL     1      52.902 155.916  28.177  0.00  0.00    +0.144 C 
ATOM     19  C   UNL     1      52.662 154.757  29.122  0.00  0.00    +0.036 C 
ATOM     20  C   UNL     1      53.189 153.611  28.233  0.00  0.00    +0.048 C 
ENDBRANCH   1  16
TORSDOF 2
