REMARK  Name = =
REMARK  6 active torsions:
REMARK  status: ('A' for Active; 'I' for Inactive)
REMARK    1  A    between atoms: C_1  and  N_11
REMARK    2  A    between atoms: C_1  and  C_29
REMARK    3  A    between atoms: N_26  and  C_33
REMARK    4  A    between atoms: C_33  and  C_34
REMARK    5  A    between atoms: C_33  and  N_36
REMARK    6  A    between atoms: N_36  and  O_37
REMARK                            x       y       z     vdW  Elec       q    Type
REMARK                         _______ _______ _______ _____ _____    ______ ____
ROOT
ATOM      1  C   UNL     1      51.323 161.223  30.348  0.00  0.00    +0.107 C 
ATOM      2  C   UNL     1      52.196 160.800  31.550  0.00  0.00    -0.012 C 
ATOM      3  C   UNL     1      53.212 161.640  32.063  0.00  0.00    -0.043 C 
ATOM      4  C   UNL     1      53.629 162.927  31.576  0.00  0.00    +0.040 C 
ATOM      5  C   UNL     1      55.110 163.165  31.456  0.00  0.00    +0.008 C 
ATOM      6  C   UNL     1      55.919 162.521  32.529  0.00  0.00    +0.001 C 
ATOM      7  C   UNL     1      55.588 161.048  32.581  0.00  0.00    +0.004 C 
ATOM      8  C   UNL     1      54.127 160.887  32.939  0.00  0.00    +0.022 C 
ATOM      9  C   UNL     1      52.995 163.115  30.238  0.00  0.00    -0.025 C 
ATOM     10  C   UNL     1      52.010 162.347  29.775  0.00  0.00    -0.008 C 
ENDROOT
BRANCH   1  11
ATOM     11  N   UNL     1      50.036 160.958  30.717  0.00  0.00    -0.282 N 
ATOM     12  C   UNL     1      49.615 161.228  32.105  0.00  0.00    +0.052 C 
ATOM     13  C   UNL     1      48.777 160.452  32.899  0.00  0.00    +0.014 C 
ATOM     14  C   UNL     1      48.530 160.939  34.172  0.00  0.00    +0.001 C 
ATOM     15  C   UNL     1      49.112 162.126  34.566  0.00  0.00    +0.000 C 
ATOM     16  C   UNL     1      49.943 162.894  33.774  0.00  0.00    +0.001 C 
ATOM     17  C   UNL     1      50.187 162.404  32.502  0.00  0.00    +0.015 C 
ATOM     18  C   UNL     1      48.151 159.179  32.583  0.00  0.00    +0.001 C 
ATOM     19  C   UNL     1      47.575 158.910  31.279  0.00  0.00    +0.001 C 
ATOM     20  C   UNL     1      48.060 159.537  30.057  0.00  0.00    +0.014 C 
ATOM     21  C   UNL     1      49.070 160.419  29.768  0.00  0.00    +0.052 C 
ATOM     22  C   UNL     1      49.355 160.939  28.556  0.00  0.00    +0.015 C 
ATOM     23  C   UNL     1      48.565 160.562  27.465  0.00  0.00    +0.001 C 
ATOM     24  C   UNL     1      47.533 159.675  27.699  0.00  0.00    +0.000 C 
ATOM     25  C   UNL     1      47.271 159.166  28.953  0.00  0.00    +0.001 C 
ENDBRANCH   1  11
BRANCH   1  29
ATOM     26  N   UNL     1      52.193 157.763  29.373  0.00  0.00    -0.210 N 
ATOM     27  C   UNL     1      51.320 158.743  29.943  0.00  0.00    +0.235 C 
ATOM     28  O   UNL     1      50.372 158.466  30.711  0.00  0.00    -0.274 OA
ATOM     29  C   UNL     1      51.795 160.081  29.424  0.00  0.00    +0.111 C 
ATOM     30  C   UNL     1      53.307 159.842  29.544  0.00  0.00    +0.097 C 
ATOM     31  C   UNL     1      53.463 158.383  29.261  0.00  0.00    +0.233 C 
ATOM     32  O   UNL     1      54.542 157.825  28.973  0.00  0.00    -0.274 OA
BRANCH  26  33
ATOM     33  C   UNL     1      51.874 156.402  28.980  0.00  0.00    +0.208 C 
BRANCH  33  34
ATOM     34  C   UNL     1      51.617 155.535  30.154  0.00  0.00    +0.014 C 
ATOM     35  C   UNL     1      51.370 154.256  29.957  0.00  0.00    -0.002 C 
ENDBRANCH  33  34
BRANCH  33  36
ATOM     36  N   UNL     1      53.016 155.804  28.272  0.00  0.00    -0.063 NA
BRANCH  36  37
ATOM     37  O   UNL     1      52.686 155.561  26.994  0.00  0.00    -0.293 OA
ATOM     38  H   UNL     1      53.444 155.167  26.534  0.00  0.00    +0.238 HD
ENDBRANCH  36  37
ENDBRANCH  33  36
ENDBRANCH  26  33
ENDBRANCH   1  29
TORSDOF 6
