REMARK  Name = =
REMARK  7 active torsions:
REMARK  status: ('A' for Active; 'I' for Inactive)
REMARK    1  A    between atoms: C_1  and  N_11
REMARK    2  A    between atoms: C_1  and  C_29
REMARK    3  A    between atoms: N_26  and  C_33
REMARK    4  A    between atoms: C_33  and  C_34
REMARK    5  A    between atoms: C_33  and  N_36
REMARK    6  A    between atoms: N_36  and  C_38
REMARK    7  A    between atoms: N_36  and  O_44
REMARK                            x       y       z     vdW  Elec       q    Type
REMARK                         _______ _______ _______ _____ _____    ______ ____
ROOT
ATOM      1  C   UNL     1      51.819 159.653  30.467  0.00  0.00    +0.089 C 
ATOM      2  C   UNL     1      51.579 161.099  29.908  0.00  0.00    +0.024 C 
ATOM      3  C   UNL     1      52.747 161.954  29.976  0.00  0.00    +0.006 C 
ATOM      4  C   UNL     1      54.105 161.421  30.092  0.00  0.00    +0.022 C 
ATOM      5  C   UNL     1      55.090 162.486  30.465  0.00  0.00    +0.004 C 
ATOM      6  C   UNL     1      54.717 163.032  31.806  0.00  0.00    +0.000 C 
ATOM      7  C   UNL     1      53.342 163.604  31.790  0.00  0.00    +0.000 C 
ATOM      8  C   UNL     1      52.539 163.317  30.570  0.00  0.00    +0.000 C 
ATOM      9  C   UNL     1      54.068 160.304  31.065  0.00  0.00    -0.029 C 
ATOM     10  C   UNL     1      53.019 159.503  31.231  0.00  0.00    -0.012 C 
ENDROOT
BRANCH   1  11
ATOM     11  N   UNL     1      50.507 159.373  30.851  0.00  0.00    -0.286 N 
ATOM     12  C   UNL     1      49.832 158.158  30.397  0.00  0.00    +0.048 C 
ATOM     13  C   UNL     1      48.525 158.042  29.940  0.00  0.00    -0.008 C 
ATOM     14  C   UNL     1      48.115 156.794  29.535  0.00  0.00    -0.003 C 
ATOM     15  C   UNL     1      49.014 155.739  29.605  0.00  0.00    -0.000 C 
ATOM     16  C   UNL     1      50.318 155.886  30.069  0.00  0.00    +0.001 C 
ATOM     17  C   UNL     1      50.729 157.127  30.474  0.00  0.00    +0.015 C 
ATOM     18  C   UNL     1      47.536 159.134  29.832  0.00  0.00    +0.032 C 
ATOM     19  C   UNL     1      47.276 159.838  31.095  0.00  0.00    +0.032 C 
ATOM     20  C   UNL     1      48.382 160.480  31.802  0.00  0.00    -0.008 C 
ATOM     21  C   UNL     1      49.764 160.282  31.723  0.00  0.00    +0.048 C 
ATOM     22  C   UNL     1      50.673 160.937  32.497  0.00  0.00    +0.015 C 
ATOM     23  C   UNL     1      50.216 161.856  33.416  0.00  0.00    +0.001 C 
ATOM     24  C   UNL     1      48.849 162.110  33.550  0.00  0.00    -0.000 C 
ATOM     25  C   UNL     1      47.974 161.420  32.745  0.00  0.00    -0.003 C 
ENDBRANCH   1  11
BRANCH   1  29
ATOM     26  N   UNL     1      52.886 157.184  28.018  0.00  0.00    -0.212 N 
ATOM     27  C   UNL     1      53.307 158.157  28.957  0.00  0.00    +0.234 C 
ATOM     28  O   UNL     1      54.413 158.094  29.553  0.00  0.00    -0.274 OA
ATOM     29  C   UNL     1      52.293 159.157  29.080  0.00  0.00    +0.107 C 
ATOM     30  C   UNL     1      51.169 158.849  28.152  0.00  0.00    +0.097 C 
ATOM     31  C   UNL     1      51.507 157.478  27.672  0.00  0.00    +0.233 C 
ATOM     32  O   UNL     1      50.679 156.744  27.071  0.00  0.00    -0.274 OA
BRANCH  26  33
ATOM     33  C   UNL     1      53.572 156.058  27.422  0.00  0.00    +0.191 C 
BRANCH  33  34
ATOM     34  C   UNL     1      53.294 154.763  28.126  0.00  0.00    +0.013 C 
ATOM     35  C   UNL     1      52.422 154.635  29.087  0.00  0.00    -0.002 C 
ENDBRANCH  33  34
BRANCH  33  36
ATOM     36  N   UNL     1      53.526 155.918  26.026  0.00  0.00    -0.131 NA
BRANCH  36  38
ATOM     37  N   UNL     1      52.776 153.619  26.169  0.00  0.00    -0.291 N 
ATOM     38  C   UNL     1      52.982 154.801  25.388  0.00  0.00    +0.159 C 
ATOM     39  C   UNL     1      53.952 154.391  24.264  0.00  0.00    +0.039 C 
ATOM     40  C   UNL     1      55.139 153.721  24.906  0.00  0.00    +0.013 C 
ATOM     41  C   UNL     1      54.736 152.279  25.272  0.00  0.00    +0.085 C 
ATOM     42  C   UNL     1      53.375 152.349  25.891  0.00  0.00    +0.223 C 
ATOM     43  O   UNL     1      52.802 151.264  26.145  0.00  0.00    -0.275 OA
ATOM     44  H   UNL     1      52.182 153.684  26.951  0.00  0.00    +0.151 HD
ENDBRANCH  36  38
BRANCH  36  45
ATOM     45  O   UNL     1      54.216 156.792  25.296  0.00  0.00    -0.308 OA
ATOM     46  H   UNL     1      54.532 157.511  25.866  0.00  0.00    +0.237 HD
ENDBRANCH  36  45
ENDBRANCH  33  36
ENDBRANCH  26  33
ENDBRANCH   1  29
TORSDOF 7
