REMARK  Name = =
REMARK  12 active torsions:
REMARK  status: ('A' for Active; 'I' for Inactive)
REMARK    1  A    between atoms: O_1  and  C_2
REMARK    2  A    between atoms: O_1  and  C_21
REMARK    3  A    between atoms: C_3  and  C_12
REMARK    4  A    between atoms: C_13  and  C_18
REMARK    5  A    between atoms: N_20  and  O_23
REMARK    6  A    between atoms: N_20  and  O_24
REMARK    7  A    between atoms: O_24  and  P_25
REMARK    8  A    between atoms: P_25  and  O_27
REMARK    9  A    between atoms: P_25  and  O_28
REMARK   10  A    between atoms: O_28  and  P_29
REMARK   11  A    between atoms: P_29  and  O_31
REMARK   12  A    between atoms: P_29  and  O_32
REMARK                            x       y       z     vdW  Elec       q    Type
REMARK                         _______ _______ _______ _____ _____    ______ ____
ROOT
ATOM      1  O   UNL     1      52.344 156.932  26.867  0.00  0.00    -0.407 OA
ENDROOT
BRANCH   1   2
ATOM      2  C   UNL     1      53.152 156.053  26.152  0.00  0.00    +0.150 C 
ATOM      3  C   UNL     1      53.301 154.747  26.556  0.00  0.00    +0.035 C 
ATOM      4  C   UNL     1      54.116 153.932  25.802  0.00  0.00    +0.003 C 
ATOM      5  C   UNL     1      54.769 154.416  24.664  0.00  0.00    +0.000 C 
ATOM      6  C   UNL     1      54.610 155.711  24.279  0.00  0.00    +0.003 C 
ATOM      7  C   UNL     1      53.804 156.541  25.012  0.00  0.00    +0.038 C 
ATOM      8  C   UNL     1      55.577 153.583  23.928  0.00  0.00    +0.000 C 
ATOM      9  C   UNL     1      55.730 152.279  24.327  0.00  0.00    +0.000 C 
ATOM     10  C   UNL     1      55.090 151.813  25.440  0.00  0.00    +0.000 C 
ATOM     11  C   UNL     1      54.282 152.638  26.179  0.00  0.00    +0.000 C 
BRANCH   3  12
ATOM     12  C   UNL     1      52.611 154.246  27.755  0.00  0.00    +0.006 C 
ATOM     13  C   UNL     1      51.989 153.008  27.755  0.00  0.00    +0.042 C 
ATOM     14  C   UNL     1      51.330 152.485  28.840  0.00  0.00    +0.003 C 
ATOM     15  C   UNL     1      51.280 153.232  29.999  0.00  0.00    +0.000 C 
ATOM     16  C   UNL     1      51.895 154.471  30.016  0.00  0.00    +0.000 C 
ATOM     17  C   UNL     1      52.552 154.976  28.915  0.00  0.00    +0.000 C 
BRANCH  13  18
ATOM     18  C   UNL     1      52.034 152.216  26.546  0.00  0.00    +0.234 C 
ATOM     19  O   UNL     1      51.819 150.970  26.539  0.00  0.00    -0.283 OA
ENDBRANCH  13  18
ENDBRANCH   3  12
ENDBRANCH   1   2
BRANCH   1  21
ATOM     20  N   UNL     1      51.766 157.826  29.098  0.00  0.00    -0.004 N 
ATOM     21  C   UNL     1      52.714 157.459  28.105  0.00  0.00    +0.457 C 
ATOM     22  O   UNL     1      53.949 157.591  28.295  0.00  0.00    -0.221 OA
BRANCH  20  23
ATOM     23  O   UNL     1      50.440 157.674  28.872  0.00  0.00    -0.266 OA
ATOM     24  H   UNL     1      49.943 157.972  29.650  0.00  0.00    +0.244 HD
ENDBRANCH  20  23
BRANCH  20  25
ATOM     25  O   UNL     1      52.238 158.326  30.260  0.00  0.00    -0.144 OA
BRANCH  25  26
ATOM     26  P   UNL     1      52.026 159.985  30.396  0.00  0.00    +0.505 P 
ATOM     27  O   UNL     1      51.108 160.491  29.290  0.00  0.00    -0.225 OA
BRANCH  26  28
ATOM     28  O   UNL     1      51.377 160.364  31.901  0.00  0.00    -0.301 OA
ATOM     29  H   UNL     1      50.520 159.922  32.004  0.00  0.00    +0.222 HD
ENDBRANCH  26  28
BRANCH  26  30
ATOM     30  O   UNL     1      53.525 160.725  30.151  0.00  0.00    -0.185 OA
BRANCH  30  31
ATOM     31  P   UNL     1      53.736 162.057  31.169  0.00  0.00    +0.481 P 
ATOM     32  O   UNL     1      52.866 163.204  30.677  0.00  0.00    -0.227 OA
BRANCH  31  33
ATOM     33  O   UNL     1      53.264 161.606  32.729  0.00  0.00    -0.302 OA
ATOM     34  H   UNL     1      52.343 161.301  32.713  0.00  0.00    +0.222 HD
ENDBRANCH  31  33
BRANCH  31  35
ATOM     35  O   UNL     1      55.338 162.594  31.164  0.00  0.00    -0.302 OA
ATOM     36  H   UNL     1      55.919 161.882  31.474  0.00  0.00    +0.222 HD
ENDBRANCH  31  35
ENDBRANCH  30  31
ENDBRANCH  26  30
ENDBRANCH  25  26
ENDBRANCH  20  25
ENDBRANCH   1  21
TORSDOF 12
