REMARK  Name = =
REMARK  1 active torsions:
REMARK  status: ('A' for Active; 'I' for Inactive)
REMARK    1  A    between atoms: C_1  and  C_16
REMARK                            x       y       z     vdW  Elec       q    Type
REMARK                         _______ _______ _______ _____ _____    ______ ____
ROOT
ATOM      1  C   UNL     1     -12.786 -43.498  27.070  0.00  0.00    +0.145 C 
ATOM      2  O   UNL     1     -11.732 -42.638  27.203  0.00  0.00    -0.351 OA
ATOM      3  C   UNL     1     -11.590 -42.032  28.431  0.00  0.00    +0.174 C 
ATOM      4  C   UNL     1     -11.278 -43.134  29.453  0.00  0.00    +0.174 C 
ATOM      5  O   UNL     1     -11.086 -42.495  30.667  0.00  0.00    -0.326 OA
ATOM      6  C   UNL     1     -11.539 -43.243  31.737  0.00  0.00    +0.264 C 
ATOM      7  O   UNL     1     -10.855 -42.909  32.897  0.00  0.00    -0.321 OA
ATOM      8  C   UNL     1      -9.536 -43.334  32.881  0.00  0.00    +0.209 C 
ATOM      9  C   UNL     1      -9.236 -44.095  31.656  0.00  0.00    +0.183 C 
ATOM     10  O   UNL     1      -8.257 -43.814  30.968  0.00  0.00    -0.293 OA
ATOM     11  C   UNL     1     -10.148 -45.209  31.279  0.00  0.00    +0.102 C 
ATOM     12  C   UNL     1     -11.561 -44.714  31.477  0.00  0.00    +0.179 C 
ATOM     13  O   UNL     1     -12.343 -45.000  30.389  0.00  0.00    -0.350 OA
ATOM     14  C   UNL     1     -12.567 -43.935  29.540  0.00  0.00    +0.147 C 
ATOM     15  C   UNL     1     -12.964 -44.462  28.180  0.00  0.00    +0.064 C 
ENDROOT
BRANCH   1  16
ATOM     16  C   UNL     1     -14.020 -42.749  26.757  0.00  0.00    +0.142 C 
ATOM     17  O   UNL     1     -15.052 -42.849  27.687  0.00  0.00    -0.354 OA
ATOM     18  C   UNL     1     -16.077 -42.097  27.123  0.00  0.00    +0.142 C 
ATOM     19  C   UNL     1     -15.931 -42.150  25.620  0.00  0.00    +0.035 C 
ATOM     20  C   UNL     1     -14.760 -43.161  25.503  0.00  0.00    +0.035 C 
ENDBRANCH   1  16
TORSDOF 1
