REMARK  Name = =
REMARK  11 active torsions:
REMARK  status: ('A' for Active; 'I' for Inactive)
REMARK    1  A    between atoms: C_9  and  P_11
REMARK    2  A    between atoms: C_10  and  S_20
REMARK    3  A    between atoms: P_11  and  O_15
REMARK    4  A    between atoms: O_12  and  O_13
REMARK    5  A    between atoms: O_12  and  O_14
REMARK    6  A    between atoms: S_16  and  C_17
REMARK    7  A    between atoms: S_20  and  P_21
REMARK    8  A    between atoms: P_21  and  O_23
REMARK    9  A    between atoms: P_21  and  O_24
REMARK   10  A    between atoms: S_25  and  C_26
REMARK   11  A    between atoms: C_26  and  N_28
REMARK                            x       y       z     vdW  Elec       q    Type
REMARK                         _______ _______ _______ _____ _____    ______ ____
ROOT
ATOM      1  C   UNL     1      -2.642  -3.617  29.638  0.00  0.00    +0.159 C 
ATOM      2  C   UNL     1      -1.344  -3.713  29.195  0.00  0.00    +0.098 C 
ATOM      3  N   UNL     1      -0.721  -2.665  28.447  0.00  0.00    -0.249 N 
ATOM      4  C   UNL     1      -1.438  -1.438  28.186  0.00  0.00    +0.151 C 
ATOM      5  C   UNL     1      -2.635  -1.232  29.049  0.00  0.00    +0.228 C 
ATOM      6  O   UNL     1      -3.333  -2.434  29.321  0.00  0.00    -0.472 OA
ATOM      7  C   UNL     1      -0.669  -4.882  29.512  0.00  0.00    +0.049 C 
ATOM      8  C   UNL     1      -1.258  -5.915  30.240  0.00  0.00    +0.010 C 
ATOM      9  C   UNL     1      -2.541  -5.775  30.654  0.00  0.00    +0.026 C 
ATOM     10  C   UNL     1      -3.270  -4.631  30.371  0.00  0.00    +0.070 C 
ATOM     11  S   UNL     1       0.922  -2.943  27.877  0.00  0.00    +0.023 S 
ATOM     12  S   UNL     1       1.023  -5.023  28.944  0.00  0.00    -0.049 S 
ENDROOT
BRANCH  11  13
ATOM     13  C   UNL     1       1.138  -2.500  26.187  0.00  0.00    +0.287 C 
ATOM     14  O   UNL     1       0.154  -2.337  25.433  0.00  0.00    -0.262 OA
ATOM     15  N   UNL     1       2.438  -2.322  25.658  0.00  0.00    -0.319 N 
ATOM     16  H   UNL     1       3.226  -2.446  26.236  0.00  0.00    +0.146 HD
ATOM     17  H   UNL     1       2.555  -2.074  24.712  0.00  0.00    +0.146 HD
ENDBRANCH  11  13
BRANCH   9  18
ATOM     18  P   UNL     1      -3.320  -7.098  31.541  0.00  0.00    +0.045 P 
ATOM     19  H   UNL     1      -4.485  -6.681  32.151  0.00  0.00    +0.092 HD
BRANCH  18  20
ATOM     20  O   UNL     1      -3.631  -8.187  30.290  0.00  0.00    -0.371 OA
ATOM     21  H   UNL     1      -2.794  -8.460  29.883  0.00  0.00    +0.215 HD
ENDBRANCH  18  20
ENDBRANCH   9  18
BRANCH  12  22
ATOM     22  C   UNL     1       2.140  -5.271  30.308  0.00  0.00    +0.110 C 
ATOM     23  S   UNL     1       1.523  -5.634  31.778  0.00  0.00    -0.028 S 
BRANCH  22  24
ATOM     24  N   UNL     1       3.522  -5.147  30.084  0.00  0.00    -0.347 N 
ATOM     25  H   UNL     1       3.857  -4.927  29.185  0.00  0.00    +0.143 HD
ATOM     26  H   UNL     1       4.155  -5.280  30.826  0.00  0.00    +0.143 HD
ENDBRANCH  22  24
ENDBRANCH  12  22
BRANCH  10  27
ATOM     27  S   UNL     1      -4.950  -4.384  30.880  0.00  0.00    -0.034 S 
BRANCH  27  28
ATOM     28  P   UNL     1      -5.121  -3.285  32.652  0.00  0.00    +0.229 P 
ATOM     29  S   UNL     1      -3.663  -3.225  33.547  0.00  0.00    +0.003 S 
BRANCH  28  30
ATOM     30  O   UNL     1      -6.325  -3.969  33.622  0.00  0.00    -0.339 OA
ATOM     31  H   UNL     1      -6.065  -4.869  33.874  0.00  0.00    +0.218 HD
ENDBRANCH  28  30
BRANCH  28  32
ATOM     32  O   UNL     1      -5.659  -1.715  32.260  0.00  0.00    -0.339 OA
ATOM     33  H   UNL     1      -4.999  -1.277  31.700  0.00  0.00    +0.218 HD
ENDBRANCH  28  32
ENDBRANCH  27  28
ENDBRANCH  10  27
TORSDOF 9
REMARK  Name = =
REMARK  11 active torsions:
REMARK  status: ('A' for Active; 'I' for Inactive)
REMARK    1  A    between atoms: C_9  and  P_11
REMARK    2  A    between atoms: C_10  and  S_20
REMARK    3  A    between atoms: P_11  and  O_15
REMARK    4  A    between atoms: O_12  and  O_13
REMARK    5  A    between atoms: O_12  and  O_14
REMARK    6  A    between atoms: S_16  and  C_17
REMARK    7  A    between atoms: S_20  and  P_21
REMARK    8  A    between atoms: P_21  and  O_23
REMARK    9  A    between atoms: P_21  and  O_24
REMARK   10  A    between atoms: S_25  and  C_26
REMARK   11  A    between atoms: C_26  and  N_28
REMARK                            x       y       z     vdW  Elec       q    Type
REMARK                         _______ _______ _______ _____ _____    ______ ____
ROOT
ATOM      1  O   UNL     1      -2.478  -6.521  32.648  0.00  0.00    -0.072 OA
ENDROOT
BRANCH   1   2
ATOM      2  O   UNL     1      -3.867  -6.741  33.068  0.00  0.00    -0.220 OA
ATOM      3  H   UNL     1      -4.305  -5.885  33.198  0.00  0.00    +0.256 HD
ENDBRANCH   1   2
BRANCH   1   4
ATOM      4  O   UNL     1      -2.301  -7.973  32.598  0.00  0.00    -0.220 OA
ATOM      5  H   UNL     1      -1.393  -8.179  32.324  0.00  0.00    +0.256 HD
ENDBRANCH   1   4
TORSDOF 2
