REMARK  Name = =
REMARK  3 active torsions:
REMARK  status: ('A' for Active; 'I' for Inactive)
REMARK    1  A    between atoms: C_1  and  C_18
REMARK    2  A    between atoms: N_3  and  N_4
REMARK    3  A    between atoms: C_16  and  C_22
REMARK                            x       y       z     vdW  Elec       q    Type
REMARK                         _______ _______ _______ _____ _____    ______ ____
ROOT
ATOM      1  C   UNL     1     -13.005 -43.334  27.608  0.00  0.00    +0.287 C 
ATOM      2  O   UNL     1     -12.846 -43.799  26.461  0.00  0.00    -0.266 OA
ATOM      3  N   UNL     1     -14.161 -42.589  27.953  0.00  0.00    -0.206 N 
ATOM      4  H   UNL     1     -14.266 -42.231  28.864  0.00  0.00    +0.175 HD
ENDROOT
BRANCH   3   5
ATOM      5  N   UNL     1     -15.150 -42.367  26.991  0.00  0.00    -0.078 N 
ATOM      6  S   UNL     1     -16.842 -42.275  27.321  0.00  0.00    +0.094 S 
ATOM      7  O   UNL     1     -17.113 -41.077  28.200  0.00  0.00    -0.148 OA
ATOM      8  O   UNL     1     -17.382 -43.532  27.914  0.00  0.00    -0.148 OA
ATOM      9  C   UNL     1     -17.392 -42.012  25.687  0.00  0.00    +0.132 C 
ATOM     10  C   UNL     1     -16.273 -41.984  24.907  0.00  0.00    +0.076 C 
ATOM     11  C   UNL     1     -16.482 -41.776  23.536  0.00  0.00    +0.006 C 
ATOM     12  C   UNL     1     -17.751 -41.618  23.050  0.00  0.00    +0.000 C 
ATOM     13  C   UNL     1     -18.868 -41.646  23.831  0.00  0.00    +0.001 C 
ATOM     14  C   UNL     1     -18.663 -41.851  25.192  0.00  0.00    +0.020 C 
ATOM     15  C   UNL     1     -15.034 -42.174  25.592  0.00  0.00    +0.285 C 
ATOM     16  O   UNL     1     -13.867 -42.182  25.041  0.00  0.00    -0.267 OA
ENDBRANCH   3   5
BRANCH   1  19
ATOM     17  C   UNL     1      -9.714 -43.427  30.025  0.00  0.00    +0.038 C 
ATOM     18  S   UNL     1     -10.258 -42.902  28.365  0.00  0.00    -0.065 S 
ATOM     19  C   UNL     1     -12.025 -43.510  28.699  0.00  0.00    +0.165 C 
ATOM     20  N   UNL     1     -11.911 -43.918  29.786  0.00  0.00    -0.232 NA
ATOM     21  C   UNL     1     -10.853 -43.947  30.557  0.00  0.00    +0.103 C 
BRANCH  17  23
ATOM     22  S   UNL     1      -8.363 -43.020  32.357  0.00  0.00    -0.136 S 
ATOM     23  C   UNL     1      -8.333 -43.269  30.558  0.00  0.00    +0.077 C 
ATOM     24  C   UNL     1      -7.538 -44.549  30.272  0.00  0.00    +0.016 C 
ATOM     25  C   UNL     1      -7.436 -45.346  31.534  0.00  0.00    +0.002 C 
ATOM     26  C   UNL     1      -6.276 -44.794  32.372  0.00  0.00    +0.012 C 
ATOM     27  C   UNL     1      -6.734 -43.493  32.999  0.00  0.00    +0.058 C 
ENDBRANCH  17  23
ENDBRANCH   1  19
TORSDOF 3
