REMARK  Name = =
REMARK  9 active torsions:
REMARK  status: ('A' for Active; 'I' for Inactive)
REMARK    1  A    between atoms: N_1  and  C_10
REMARK    2  A    between atoms: C_2  and  N_33
REMARK    3  A    between atoms: C_3  and  C_24
REMARK    4  A    between atoms: S_7  and  S_13
REMARK    5  A    between atoms: S_7  and  C_21
REMARK    6  A    between atoms: C_27  and  C_30
REMARK    7  A    between atoms: C_30  and  O_32
REMARK    8  A    between atoms: C_34  and  C_36
REMARK    9  A    between atoms: C_39  and  O_42
REMARK                            x       y       z     vdW  Elec       q    Type
REMARK                         _______ _______ _______ _____ _____    ______ ____
ROOT
ATOM      1  N   UNL     1       2.142  -7.076  26.764  0.00  0.00    -0.249 N 
ATOM      2  C   UNL     1       2.355  -6.505  25.419  0.00  0.00    +0.175 C 
ATOM      3  C   UNL     1       3.869  -6.481  25.400  0.00  0.00    +0.133 C 
ATOM      4  N   UNL     1       4.158  -7.813  25.898  0.00  0.00    -0.283 N 
ATOM      5  C   UNL     1       3.173  -8.046  26.933  0.00  0.00    +0.305 C 
ATOM      6  O   UNL     1       3.192  -8.929  27.828  0.00  0.00    -0.253 OA
ATOM      7  H   UNL     1       4.869  -8.425  25.598  0.00  0.00    +0.151 HD
ENDROOT
BRANCH   1  11
ATOM      8  S   UNL     1      -0.989  -6.404  29.597  0.00  0.00    -0.162 S 
ATOM      9  C   UNL     1       0.615  -6.658  30.166  0.00  0.00    +0.054 C 
ATOM     10  C   UNL     1       1.593  -7.073  29.087  0.00  0.00    +0.031 C 
ATOM     11  C   UNL     1       1.103  -6.726  27.707  0.00  0.00    +0.080 C 
ATOM     12  C   UNL     1      -0.145  -7.446  27.327  0.00  0.00    +0.031 C 
ATOM     13  C   UNL     1      -0.965  -7.839  28.532  0.00  0.00    +0.054 C 
BRANCH   8  14
ATOM     14  S   UNL     1      -1.363  -4.785  28.701  0.00  0.00    -0.182 S 
ATOM     15  C   UNL     1      -0.210  -3.533  28.836  0.00  0.00    +0.063 C 
ATOM     16  C   UNL     1      -1.027  -2.289  29.081  0.00  0.00    +0.080 C 
ATOM     17  N   UNL     1      -2.383  -2.543  28.634  0.00  0.00    -0.288 NA
ATOM     18  C   UNL     1      -2.661  -3.803  29.346  0.00  0.00    +0.116 C 
ATOM     19  H   UNL     1      -1.538  -5.362  27.482  0.00  0.00    +0.094 HD
ATOM     20  H   UNL     1      -2.431  -2.662  27.622  0.00  0.00    +0.124 HD
ENDBRANCH   8  14
BRANCH   8  24
ATOM     21  C   UNL     1      -3.970  -7.452  32.954  0.00  0.00    +0.000 C 
ATOM     22  C   UNL     1      -4.154  -7.973  31.695  0.00  0.00    +0.000 C 
ATOM     23  C   UNL     1      -3.242  -7.668  30.673  0.00  0.00    +0.005 C 
ATOM     24  C   UNL     1      -2.178  -6.861  30.910  0.00  0.00    +0.016 C 
ATOM     25  C   UNL     1      -2.014  -6.351  32.177  0.00  0.00    +0.005 C 
ATOM     26  C   UNL     1      -2.894  -6.634  33.200  0.00  0.00    +0.000 C 
ENDBRANCH   8  24
ENDBRANCH   1  11
BRANCH   3  27
ATOM     27  C   UNL     1       4.465  -6.157  24.111  0.00  0.00    -0.001 C 
ATOM     28  C   UNL     1       4.773  -4.821  23.819  0.00  0.00    -0.002 C 
ATOM     29  C   UNL     1       5.338  -4.440  22.628  0.00  0.00    +0.006 C 
ATOM     30  C   UNL     1       5.627  -5.374  21.660  0.00  0.00    +0.075 C 
ATOM     31  C   UNL     1       5.334  -6.693  21.919  0.00  0.00    +0.006 C 
ATOM     32  C   UNL     1       4.758  -7.064  23.139  0.00  0.00    -0.002 C 
BRANCH  30  33
ATOM     33  C   UNL     1       6.227  -4.994  20.386  0.00  0.00    +0.338 C 
ATOM     34  O   UNL     1       6.436  -5.856  19.512  0.00  0.00    -0.245 OA
BRANCH  33  35
ATOM     35  O   UNL     1       6.580  -3.692  20.108  0.00  0.00    -0.477 OA
ATOM     36  H   UNL     1       6.435  -3.021  20.746  0.00  0.00    +0.295 HD
ENDBRANCH  33  35
ENDBRANCH  30  33
ENDBRANCH   3  27
BRANCH   2  37
ATOM     37  N   UNL     1       1.923  -7.532  24.488  0.00  0.00    -0.285 N 
ATOM     38  C   UNL     1       1.529  -7.250  23.163  0.00  0.00    +0.247 C 
ATOM     39  O   UNL     1       1.577  -6.022  22.830  0.00  0.00    -0.270 OA
ATOM     40  H   UNL     1       1.904  -8.467  24.795  0.00  0.00    +0.151 HD
BRANCH  38  41
ATOM     41  C   UNL     1       1.093  -8.268  22.219  0.00  0.00    +0.054 C 
ATOM     42  C   UNL     1       0.650  -7.935  20.953  0.00  0.00    +0.008 C 
ATOM     43  C   UNL     1       0.236  -8.900  20.053  0.00  0.00    +0.037 C 
ATOM     44  C   UNL     1       0.265 -10.233  20.429  0.00  0.00    +0.134 C 
ATOM     45  C   UNL     1       0.703 -10.577  21.684  0.00  0.00    +0.037 C 
ATOM     46  C   UNL     1       1.121  -9.593  22.589  0.00  0.00    +0.008 C 
BRANCH  44  47
ATOM     47  O   UNL     1      -0.146 -11.201  19.544  0.00  0.00    -0.506 OA
ATOM     48  H   UNL     1      -0.444 -10.958  18.689  0.00  0.00    +0.292 HD
ENDBRANCH  44  47
ENDBRANCH  38  41
ENDBRANCH   2  37
TORSDOF 9
