REMARK  Name = =
REMARK  0 active torsions:
REMARK  status: ('A' for Active; 'I' for Inactive)
REMARK                            x       y       z     vdW  Elec       q    Type
REMARK                         _______ _______ _______ _____ _____    ______ ____
ROOT
ATOM      1  C   UNL     1      51.367 156.421  29.055  0.00  0.00    +0.000 C 
ATOM      2  C   UNL     1      52.342 157.404  28.440  0.00  0.00    +0.000 C 
ATOM      3  C   UNL     1      53.162 156.450  27.560  0.00  0.00    +0.000 C 
ATOM      4  C   UNL     1      52.054 155.687  26.894  0.00  0.00    +0.000 C 
ATOM      5  C   UNL     1      51.140 155.344  27.998  0.00  0.00    +0.000 C 
ATOM      6  C   UNL     1      51.227 153.967  28.530  0.00  0.00    +0.000 C 
ATOM      7  C   UNL     1      52.328 153.130  27.999  0.00  0.00    +0.001 C 
ATOM      8  C   UNL     1      52.549 153.249  26.529  0.00  0.00    +0.008 C 
ATOM      9  C   UNL     1      52.456 154.619  25.985  0.00  0.00    +0.001 C 
ATOM     10  C   UNL     1      53.545 155.024  25.059  0.00  0.00    +0.004 C 
ATOM     11  C   UNL     1      53.806 153.980  23.980  0.00  0.00    +0.022 C 
ATOM     12  C   UNL     1      53.918 152.667  24.633  0.00  0.00    -0.037 C 
ATOM     13  C   UNL     1      54.106 151.576  23.897  0.00  0.00    +0.034 C 
ATOM     14  C   UNL     1      54.221 150.266  24.516  0.00  0.00    +0.195 C 
ATOM     15  O   UNL     1      54.402 149.227  23.797  0.00  0.00    -0.287 OA
ATOM     16  C   UNL     1      54.123 150.188  25.963  0.00  0.00    +0.038 C 
ATOM     17  C   UNL     1      53.938 151.267  26.678  0.00  0.00    -0.019 C 
ATOM     18  C   UNL     1      53.818 152.589  26.099  0.00  0.00    +0.040 C 
ENDROOT
TORSDOF 0
