REMARK  Name = =
REMARK  2 active torsions:
REMARK  status: ('A' for Active; 'I' for Inactive)
REMARK    1  A    between atoms: C_1  and  C_19
REMARK    2  A    between atoms: C_19  and  N_20
REMARK                            x       y       z     vdW  Elec       q    Type
REMARK                         _______ _______ _______ _____ _____    ______ ____
ROOT
ATOM      1  C   UNL     1      52.213 156.312  29.118  0.00  0.00    +0.017 C 
ATOM      2  C   UNL     1      52.646 157.508  28.333  0.00  0.00    +0.001 C 
ATOM      3  C   UNL     1      53.309 156.856  27.119  0.00  0.00    +0.000 C 
ATOM      4  C   UNL     1      52.394 155.721  26.830  0.00  0.00    +0.000 C 
ATOM      5  C   UNL     1      51.644 155.381  28.076  0.00  0.00    +0.001 C 
ATOM      6  C   UNL     1      51.801 153.982  28.556  0.00  0.00    +0.000 C 
ATOM      7  C   UNL     1      51.793 152.935  27.488  0.00  0.00    +0.001 C 
ATOM      8  C   UNL     1      52.093 153.427  26.122  0.00  0.00    +0.008 C 
ATOM      9  C   UNL     1      53.119 154.537  26.242  0.00  0.00    +0.001 C 
ATOM     10  C   UNL     1      53.603 154.906  24.856  0.00  0.00    +0.004 C 
ATOM     11  C   UNL     1      54.536 153.776  24.408  0.00  0.00    +0.022 C 
ATOM     12  C   UNL     1      53.954 152.457  24.799  0.00  0.00    -0.037 C 
ATOM     13  C   UNL     1      54.761 151.421  24.681  0.00  0.00    +0.034 C 
ATOM     14  C   UNL     1      54.316 150.080  25.030  0.00  0.00    +0.195 C 
ATOM     15  O   UNL     1      55.058 149.059  24.931  0.00  0.00    -0.287 OA
ATOM     16  C   UNL     1      52.944 149.929  25.515  0.00  0.00    +0.038 C 
ATOM     17  C   UNL     1      52.150 150.972  25.627  0.00  0.00    -0.019 C 
ATOM     18  C   UNL     1      52.595 152.293  25.281  0.00  0.00    +0.040 C 
ENDROOT
BRANCH   1  19
ATOM     19  C   UNL     1      51.187 156.702  30.157  0.00  0.00    +0.089 C 
BRANCH  19  20
ATOM     20  N   UNL     1      50.045 157.354  29.591  0.00  0.00    -0.217 NA
ATOM     21  C   UNL     1      49.115 157.652  30.666  0.00  0.00    +0.107 C 
ENDBRANCH  19  20
ENDBRANCH   1  19
TORSDOF 2
