REMARK  Name = =
REMARK  5 active torsions:
REMARK  status: ('A' for Active; 'I' for Inactive)
REMARK    1  A    between atoms: C_1  and  N_19
REMARK    2  A    between atoms: C_1  and  C_24
REMARK    3  A    between atoms: N_19  and  N_20
REMARK    4  A    between atoms: C_21  and  O_23
REMARK    5  A    between atoms: C_24  and  N_25
REMARK                            x       y       z     vdW  Elec       q    Type
REMARK                         _______ _______ _______ _____ _____    ______ ____
ROOT
ATOM      1  C   UNL     1      52.629 156.377  28.278  0.00  0.00    +0.074 C 
ATOM      2  C   UNL     1      53.244 155.910  29.587  0.00  0.00    +0.017 C 
ATOM      3  C   UNL     1      53.464 154.415  29.346  0.00  0.00    +0.001 C 
ATOM      4  C   UNL     1      53.841 154.372  27.916  0.00  0.00    +0.001 C 
ATOM      5  C   UNL     1      53.001 155.354  27.258  0.00  0.00    +0.016 C 
ATOM      6  C   UNL     1      52.106 155.022  26.181  0.00  0.00    +0.001 C 
ATOM      7  C   UNL     1      52.278 153.646  25.579  0.00  0.00    +0.001 C 
ATOM      8  C   UNL     1      52.795 152.605  26.507  0.00  0.00    +0.008 C 
ATOM      9  C   UNL     1      54.018 153.071  27.262  0.00  0.00    +0.001 C 
ATOM     10  C   UNL     1      55.162 153.231  26.251  0.00  0.00    +0.004 C 
ATOM     11  C   UNL     1      55.629 151.923  25.704  0.00  0.00    +0.022 C 
ATOM     12  C   UNL     1      54.461 151.004  25.515  0.00  0.00    -0.037 C 
ATOM     13  C   UNL     1      54.757 149.822  25.004  0.00  0.00    +0.034 C 
ATOM     14  C   UNL     1      53.737 148.807  24.755  0.00  0.00    +0.195 C 
ATOM     15  O   UNL     1      54.034 147.685  24.268  0.00  0.00    -0.287 OA
ATOM     16  C   UNL     1      52.371 149.175  25.103  0.00  0.00    +0.038 C 
ATOM     17  C   UNL     1      52.080 150.369  25.617  0.00  0.00    -0.019 C 
ATOM     18  C   UNL     1      53.108 151.338  25.848  0.00  0.00    +0.040 C 
ENDROOT
BRANCH   1  19
ATOM     19  N   UNL     1      51.221 156.620  28.358  0.00  0.00    -0.229 NA
ATOM     20  H   UNL     1      50.854 156.627  27.406  0.00  0.00    +0.145 HD
BRANCH  19  21
ATOM     21  N   UNL     1      50.479 155.721  29.082  0.00  0.00    -0.216 N 
ATOM     22  C   UNL     1      49.664 156.132  30.206  0.00  0.00    +0.412 C 
ATOM     23  O   UNL     1      49.660 157.370  30.500  0.00  0.00    -0.225 OA
ATOM     24  H   UNL     1      50.501 154.770  28.830  0.00  0.00    +0.172 HD
BRANCH  22  25
ATOM     25  O   UNL     1      48.934 155.186  30.908  0.00  0.00    -0.465 OA
ATOM     26  H   UNL     1      48.968 154.285  30.654  0.00  0.00    +0.297 HD
ENDBRANCH  22  25
ENDBRANCH  19  21
ENDBRANCH   1  19
BRANCH   1  27
ATOM     27  C   UNL     1      53.363 157.657  27.854  0.00  0.00    +0.105 C 
BRANCH  27  28
ATOM     28  N   UNL     1      53.979 158.349  28.942  0.00  0.00    -0.215 NA
ATOM     29  C   UNL     1      55.404 158.586  28.628  0.00  0.00    +0.108 C 
ENDBRANCH  27  28
ENDBRANCH   1  27
TORSDOF 5
