REMARK  Name = =
REMARK  1 active torsions:
REMARK  status: ('A' for Active; 'I' for Inactive)
REMARK    1  A    between atoms: N_2  and  O_3
REMARK                            x       y       z     vdW  Elec       q    Type
REMARK                         _______ _______ _______ _____ _____    ______ ____
ROOT
ATOM      1  C   UNL     1      -4.418  -3.824  30.670  0.00  0.00    +0.164 C 
ATOM      2  N   UNL     1      -3.414  -4.597  30.489  0.00  0.00    -0.083 NA
ENDROOT
BRANCH   2   3
ATOM      3  O   UNL     1      -2.185  -4.337  31.029  0.00  0.00    -0.409 OA
ATOM      4  H   UNL     1      -1.472  -4.925  30.876  0.00  0.00    +0.328 HD
ENDBRANCH   2   3
TORSDOF 1
