REMARK  Name = =
REMARK  4 active torsions:
REMARK  status: ('A' for Active; 'I' for Inactive)
REMARK    1  A    between atoms: C_1  and  C_7
REMARK    2  A    between atoms: C_3  and  O_16
REMARK    3  A    between atoms: C_4  and  O_15
REMARK    4  A    between atoms: C_5  and  O_14
REMARK                            x       y       z     vdW  Elec       q    Type
REMARK                         _______ _______ _______ _____ _____    ______ ____
ROOT
ATOM      1  C   UNL     1      -3.042  -4.018  31.045  0.00  0.00    -0.015 C 
ATOM      2  C   UNL     1      -3.251  -5.017  31.980  0.00  0.00    +0.036 C 
ATOM      3  C   UNL     1      -4.223  -4.845  32.976  0.00  0.00    +0.170 C 
ATOM      4  C   UNL     1      -4.967  -3.687  33.025  0.00  0.00    +0.202 C 
ATOM      5  C   UNL     1      -4.773  -2.683  32.102  0.00  0.00    +0.170 C 
ATOM      6  C   UNL     1      -3.813  -2.878  31.136  0.00  0.00    +0.036 C 
ENDROOT
BRANCH   1   7
ATOM      7  C   UNL     1      -2.000  -4.185  29.967  0.00  0.00    +0.038 C 
ATOM      8  C   UNL     1      -2.504  -3.678  28.645  0.00  0.00    +0.073 C 
ATOM      9  N   UNL     1      -1.442  -3.141  27.880  0.00  0.00    -0.297 NA
ATOM     10  C   UNL     1      -0.190  -3.840  27.987  0.00  0.00    +0.069 C 
ATOM     11  C   UNL     1      -0.300  -5.297  27.698  0.00  0.00    +0.017 C 
ATOM     12  C   UNL     1      -1.226  -6.082  28.512  0.00  0.00    +0.002 C 
ATOM     13  C   UNL     1      -1.517  -5.591  29.888  0.00  0.00    +0.006 C 
ATOM     14  H   UNL     1      -1.724  -3.150  26.900  0.00  0.00    +0.123 HD
ENDBRANCH   1   7
BRANCH   5  15
ATOM     15  O   UNL     1      -5.531  -1.497  32.148  0.00  0.00    -0.503 OA
ATOM     16  H   UNL     1      -6.181  -1.382  32.813  0.00  0.00    +0.292 HD
ENDBRANCH   5  15
BRANCH   4  17
ATOM     17  O   UNL     1      -5.936  -3.483  33.996  0.00  0.00    -0.501 OA
ATOM     18  H   UNL     1      -6.098  -4.142  34.642  0.00  0.00    +0.292 HD
ENDBRANCH   4  17
BRANCH   3  19
ATOM     19  O   UNL     1      -4.453  -5.823  33.921  0.00  0.00    -0.503 OA
ATOM     20  H   UNL     1      -3.957  -6.617  33.903  0.00  0.00    +0.292 HD
ENDBRANCH   3  19
TORSDOF 4
