REMARK  Name = =
REMARK  1 active torsions:
REMARK  status: ('A' for Active; 'I' for Inactive)
REMARK    1  A    between atoms: C_6  and  N_7
REMARK                            x       y       z     vdW  Elec       q    Type
REMARK                         _______ _______ _______ _____ _____    ______ ____
ROOT
ATOM      1  C   UNL     1      52.435 156.099  28.480  0.00  0.00    +0.110 C 
ATOM      2  N   UNL     1      51.732 155.844  29.507  0.00  0.00    -0.187 NA
ATOM      3  N   UNL     1      51.479 154.569  29.955  0.00  0.00    -0.257 N 
ATOM      4  C   UNL     1      51.654 153.457  29.050  0.00  0.00    +0.109 C 
ATOM      5  C   UNL     1      53.030 153.688  28.407  0.00  0.00    +0.049 C 
ATOM      6  C   UNL     1      53.033 155.003  27.691  0.00  0.00    +0.116 C 
ATOM      7  H   UNL     1      51.182 154.416  30.881  0.00  0.00    +0.169 HD
ENDROOT
BRANCH   6   8
ATOM      8  N   UNL     1      52.484 154.915  26.357  0.00  0.00    -0.301 N 
ATOM      9  C   UNL     1      53.261 154.766  25.185  0.00  0.00    +0.223 C 
ATOM     10  O   UNL     1      54.504 154.707  25.316  0.00  0.00    -0.275 OA
ATOM     11  C   UNL     1      52.659 154.679  23.830  0.00  0.00    +0.095 C 
ATOM     12  H   UNL     1      51.506 154.962  26.258  0.00  0.00    +0.150 HD
ENDBRANCH   6   8
TORSDOF 1
