REMARK  Name = =
REMARK  2 active torsions:
REMARK  status: ('A' for Active; 'I' for Inactive)
REMARK    1  A    between atoms: C_1  and  C_11
REMARK    2  A    between atoms: C_6  and  N_12
REMARK                            x       y       z     vdW  Elec       q    Type
REMARK                         _______ _______ _______ _____ _____    ______ ____
ROOT
ATOM      1  C   UNL     1      52.027 155.374  28.306  0.00  0.00    +0.086 C 
ATOM      2  N   UNL     1      52.093 154.530  29.280  0.00  0.00    -0.191 NA
ATOM      3  N   UNL     1      52.416 153.195  29.133  0.00  0.00    -0.258 N 
ATOM      4  C   UNL     1      53.017 152.760  27.892  0.00  0.00    +0.109 C 
ATOM      5  C   UNL     1      52.280 153.450  26.763  0.00  0.00    +0.048 C 
ATOM      6  C   UNL     1      52.300 154.954  26.931  0.00  0.00    +0.112 C 
ATOM      7  H   UNL     1      52.241 152.553  29.858  0.00  0.00    +0.169 HD
ENDROOT
BRANCH   1  12
ATOM      8  N   UNL     1      52.764 157.516  29.210  0.00  0.00    -0.294 NA
ATOM      9  C   UNL     1      52.063 158.770  29.532  0.00  0.00    +0.069 C 
ATOM     10  C   UNL     1      50.866 158.238  30.286  0.00  0.00    +0.019 C 
ATOM     11  C   UNL     1      50.623 156.849  29.719  0.00  0.00    +0.023 C 
ATOM     12  C   UNL     1      51.668 156.769  28.626  0.00  0.00    +0.094 C 
ATOM     13  H   UNL     1      53.132 157.061  30.045  0.00  0.00    +0.124 HD
ENDBRANCH   1  12
BRANCH   6  14
ATOM     14  N   UNL     1      53.563 155.442  26.427  0.00  0.00    -0.301 N 
ATOM     15  C   UNL     1      53.707 156.104  25.181  0.00  0.00    +0.223 C 
ATOM     16  O   UNL     1      52.694 156.288  24.456  0.00  0.00    -0.275 OA
ATOM     17  C   UNL     1      55.040 156.600  24.688  0.00  0.00    +0.095 C 
ATOM     18  H   UNL     1      54.367 155.308  26.978  0.00  0.00    +0.150 HD
ENDBRANCH   6  14
TORSDOF 2
