REMARK  Name = =
REMARK  3 active torsions:
REMARK  status: ('A' for Active; 'I' for Inactive)
REMARK    1  A    between atoms: N_1  and  C_16
REMARK    2  A    between atoms: C_5  and  C_17
REMARK    3  A    between atoms: C_22  and  N_23
REMARK                            x       y       z     vdW  Elec       q    Type
REMARK                         _______ _______ _______ _____ _____    ______ ____
ROOT
ATOM      1  N   UNL     1      52.492 153.068  27.086  0.00  0.00    -0.304 N 
ATOM      2  C   UNL     1      52.330 151.964  28.063  0.00  0.00    +0.091 C 
ATOM      3  C   UNL     1      51.626 152.648  29.189  0.00  0.00    +0.024 C 
ATOM      4  C   UNL     1      50.586 153.418  28.398  0.00  0.00    +0.027 C 
ATOM      5  C   UNL     1      51.557 154.103  27.355  0.00  0.00    +0.112 C 
ENDROOT
BRANCH   1  16
ATOM      6  O   UNL     1      57.037 152.416  25.772  0.00  0.00    -0.475 OA
ATOM      7  C   UNL     1      57.454 151.894  27.003  0.00  0.00    +0.214 C 
ATOM      8  C   UNL     1      56.462 152.052  28.127  0.00  0.00    +0.117 C 
ATOM      9  C   UNL     1      55.293 152.838  27.713  0.00  0.00    +0.181 C 
ATOM     10  O   UNL     1      54.672 153.611  28.505  0.00  0.00    -0.291 OA
ATOM     11  C   UNL     1      54.778 152.767  26.342  0.00  0.00    +0.082 C 
ATOM     12  C   UNL     1      55.738 152.543  25.350  0.00  0.00    +0.142 C 
ATOM     13  C   UNL     1      55.309 152.472  24.043  0.00  0.00    +0.037 C 
ATOM     14  C   UNL     1      53.969 152.618  23.729  0.00  0.00    +0.004 C 
ATOM     15  C   UNL     1      53.037 152.839  24.728  0.00  0.00    +0.015 C 
ATOM     16  C   UNL     1      53.443 152.915  26.064  0.00  0.00    +0.054 C 
ENDBRANCH   1  16
BRANCH   5  17
ATOM     17  C   UNL     1      52.027 155.364  27.942  0.00  0.00    +0.089 C 
ATOM     18  N   UNL     1      51.700 155.565  29.215  0.00  0.00    -0.191 NA
ATOM     19  N   UNL     1      52.066 156.705  29.918  0.00  0.00    -0.258 N 
ATOM     20  C   UNL     1      52.311 157.885  29.108  0.00  0.00    +0.109 C 
ATOM     21  C   UNL     1      53.372 157.460  28.117  0.00  0.00    +0.048 C 
ATOM     22  C   UNL     1      52.788 156.363  27.232  0.00  0.00    +0.113 C 
ATOM     23  H   UNL     1      52.153 156.713  30.899  0.00  0.00    +0.169 HD
BRANCH  22  24
ATOM     24  N   UNL     1      53.850 155.859  26.441  0.00  0.00    -0.301 N 
ATOM     25  C   UNL     1      53.979 156.390  25.101  0.00  0.00    +0.223 C 
ATOM     26  O   UNL     1      53.171 157.246  24.677  0.00  0.00    -0.275 OA
ATOM     27  C   UNL     1      55.081 155.893  24.274  0.00  0.00    +0.095 C 
ATOM     28  H   UNL     1      54.472 155.179  26.787  0.00  0.00    +0.150 HD
ENDBRANCH  22  24
ENDBRANCH   5  17
TORSDOF 3
