MODEL 1
REMARK VINA RESULT:   -10.380      0.000      0.000
REMARK INTER + INTRA:         -18.628
REMARK INTER:                 -16.448
REMARK INTRA:                  -2.180
REMARK UNBOUND:                -2.180
REMARK  Name = =
REMARK  11 active torsions:
REMARK  status: ('A' for Active; 'I' for Inactive)
REMARK    1  A    between atoms: C_1  and  C_22
REMARK    2  A    between atoms: C_2  and  C_39
REMARK    3  A    between atoms: C_3  and  N_33
REMARK    4  A    between atoms: C_5  and  C_7
REMARK    5  A    between atoms: C_21  and  O_29
REMARK    6  A    between atoms: C_24  and  C_27
REMARK    7  A    between atoms: O_29  and  C_30
REMARK    8  A    between atoms: C_30  and  O_32
REMARK    9  A    between atoms: C_34  and  C_36
REMARK   10  A    between atoms: C_36  and  O_38
REMARK   11  A    between atoms: C_40  and  C_41
REMARK                            x       y       z     vdW  Elec       q    Type
REMARK                         _______ _______ _______ _____ _____    ______ ____
ROOT
ATOM      1  C   UNL     1       1.170  -6.622  29.938  0.00  0.00    +0.061 C 
ATOM      2  C   UNL     1       0.925  -7.484  28.762  0.00  0.00    +0.091 C 
ATOM      3  C   UNL     1       0.449  -6.737  27.512  0.00  0.00    +0.089 C 
ATOM      4  C   UNL     1       1.150  -5.359  27.574  0.00  0.00    +0.047 C 
ATOM      5  C   UNL     1       0.336  -4.653  28.632  0.00  0.00    -0.023 C 
ATOM      6  C   UNL     1       0.371  -5.300  29.784  0.00  0.00    -0.025 C 
ENDROOT
BRANCH   5   7
ATOM      7  C   UNL     1      -0.495  -3.503  28.373  0.00  0.00    +0.015 C 
ATOM      8  C   UNL     1      -1.570  -3.157  29.122  0.00  0.00    +0.099 A 
ATOM      9  N   UNL     1      -2.081  -3.949  30.110  0.00  0.00    -0.242 NA
ATOM     10  C   UNL     1      -3.116  -3.699  30.831  0.00  0.00    +0.099 A 
ATOM     11  C   UNL     1      -3.827  -2.496  30.630  0.00  0.00    +0.099 A 
ATOM     12  N   UNL     1      -3.317  -1.699  29.638  0.00  0.00    -0.242 NA
ATOM     13  C   UNL     1      -2.278  -1.944  28.904  0.00  0.00    +0.099 A 
ATOM     14  C   UNL     1      -1.861  -1.065  27.895  0.00  0.00    +0.021 C 
ATOM     15  C   UNL     1      -0.745  -1.435  27.117  0.00  0.00    +0.002 C 
ATOM     16  C   UNL     1      -0.088  -2.609  27.352  0.00  0.00    +0.001 C 
ATOM     17  C   UNL     1      -4.911  -2.165  31.394  0.00  0.00    +0.021 C 
ATOM     18  C   UNL     1      -5.344  -3.026  32.406  0.00  0.00    +0.002 C 
ATOM     19  C   UNL     1      -4.691  -4.193  32.640  0.00  0.00    +0.002 C 
ATOM     20  C   UNL     1      -3.567  -4.551  31.856  0.00  0.00    +0.021 C 
ENDBRANCH   5   7
BRANCH   1  22
ATOM     21  C   UNL     1       1.512  -7.003  32.372  0.00  0.00    +0.148 C 
ATOM     22  C   UNL     1       0.674  -7.152  31.229  0.00  0.00    +0.017 C 
ATOM     23  C   UNL     1      -0.530  -7.680  31.411  0.00  0.00    -0.001 C 
ATOM     24  C   UNL     1      -1.087  -8.117  32.608  0.00  0.00    -0.000 C 
ATOM     25  C   UNL     1      -0.265  -7.977  33.747  0.00  0.00    +0.003 C 
ATOM     26  C   UNL     1       0.985  -7.431  33.568  0.00  0.00    +0.037 C 
BRANCH  24  27
ATOM     27  C   UNL     1      -2.397  -8.684  32.798  0.00  0.00    -0.000 C 
ATOM     28  C   UNL     1      -3.351  -7.980  33.442  0.00  0.00    -0.000 C 
ENDBRANCH  24  27
BRANCH  21  29
ATOM     29  O   UNL     1       2.748  -6.463  32.177  0.00  0.00    -0.394 OA
BRANCH  29  30
ATOM     30  C   UNL     1       3.118  -5.273  32.815  0.00  0.00    +0.513 C 
ATOM     31  O   UNL     1       4.169  -5.317  33.523  0.00  0.00    -0.203 OA
BRANCH  30  32
ATOM     32  O   UNL     1       2.356  -4.125  32.669  0.00  0.00    -0.449 OA
ATOM     33  H   UNL     1       1.426  -4.190  32.567  0.00  0.00    +0.299 HD
ENDBRANCH  30  32
ENDBRANCH  29  30
ENDBRANCH  21  29
ENDBRANCH   1  22
BRANCH   3  34
ATOM     34  N   UNL     1       0.855  -7.432  26.333  0.00  0.00    -0.296 N 
ATOM     35  C   UNL     1       0.249  -8.691  25.993  0.00  0.00    +0.322 C 
ATOM     36  O   UNL     1      -0.660  -9.137  26.785  0.00  0.00    -0.263 OA
ATOM     37  H   UNL     1       1.551  -7.049  25.751  0.00  0.00    +0.150 HD
BRANCH  35  38
ATOM     38  C   UNL     1       0.584  -9.455  24.851  0.00  0.00    +0.392 C 
ATOM     39  O   UNL     1      -0.390 -10.016  24.138  0.00  0.00    -0.240 OA
BRANCH  38  40
ATOM     40  O   UNL     1       1.799  -9.725  24.334  0.00  0.00    -0.474 OA
ATOM     41  H   UNL     1       1.927 -10.494  23.814  0.00  0.00    +0.296 HD
ENDBRANCH  38  40
ENDBRANCH  35  38
ENDBRANCH   3  34
BRANCH   2  42
ATOM     42  C   UNL     1       2.190  -8.198  28.352  0.00  0.00    -0.085 C 
ATOM     43  C   UNL     1       3.138  -8.735  28.023  0.00  0.00    -0.060 C 
BRANCH  43  44
ATOM     44  C   UNL     1       4.380  -9.466  27.597  0.00  0.00    +0.095 C 
ATOM     45  C   UNL     1       5.571  -8.984  27.821  0.00  0.00    +0.073 C 
ATOM     46  N   UNL     1       6.710  -9.643  27.387  0.00  0.00    -0.310 N 
ATOM     47  C   UNL     1       6.551 -10.811  26.723  0.00  0.00    +0.065 C 
ATOM     48  C   UNL     1       5.347 -11.347  26.468  0.00  0.00    +0.059 C 
ATOM     49  C   UNL     1       4.176 -10.681  26.907  0.00  0.00    +0.206 C 
ATOM     50  O   UNL     1       3.064 -11.133  26.695  0.00  0.00    -0.286 OA
ATOM     51  H   UNL     1       7.606  -9.272  27.557  0.00  0.00    +0.152 HD
ENDBRANCH  43  44
ENDBRANCH   2  42
TORSDOF 11
ENDMDL
