REMARK  Name = =
REMARK  2 active torsions:
REMARK  status: ('A' for Active; 'I' for Inactive)
REMARK    1  A    between atoms: N_1  and  S_10
REMARK    2  A    between atoms: S_10  and  N_12
REMARK                            x       y       z     vdW  Elec       q    Type
REMARK                         _______ _______ _______ _____ _____    ______ ____
ROOT
ATOM      1  N   UNL     1     -10.143 -42.448  29.728  0.00  0.00    -0.184 N 
ATOM      2  C   UNL     1      -9.960 -43.756  29.970  0.00  0.00    +0.180 C 
ATOM      3  N   UNL     1      -9.089 -44.287  29.081  0.00  0.00    -0.225 NA
ATOM      4  C   UNL     1      -8.717 -43.278  28.261  0.00  0.00    +0.097 C 
ATOM      5  C   UNL     1      -9.380 -42.129  28.669  0.00  0.00    +0.084 C 
ATOM      6  C   UNL     1      -9.165 -40.951  27.982  0.00  0.00    +0.017 C 
ATOM      7  C   UNL     1      -8.312 -40.924  26.917  0.00  0.00    +0.001 C 
ATOM      8  C   UNL     1      -7.658 -42.071  26.519  0.00  0.00    +0.002 C 
ATOM      9  C   UNL     1      -7.853 -43.260  27.186  0.00  0.00    +0.020 C 
ENDROOT
BRANCH   1  10
ATOM     10  S   UNL     1     -11.156 -41.336  30.581  0.00  0.00    +0.199 S 
ATOM     11  O   UNL     1     -12.031 -40.587  29.600  0.00  0.00    -0.219 OA
BRANCH  10  12
ATOM     12  N   UNL     1     -12.116 -42.010  31.809  0.00  0.00    -0.187 NA
ATOM     13  C   UNL     1     -11.561 -42.053  33.115  0.00  0.00    +0.087 C 
ATOM     14  C   UNL     1     -12.651 -41.787  34.164  0.00  0.00    +0.018 C 
ATOM     15  C   UNL     1     -13.897 -42.470  33.643  0.00  0.00    +0.003 C 
ATOM     16  C   UNL     1     -13.564 -43.650  32.743  0.00  0.00    +0.018 C 
ATOM     17  C   UNL     1     -12.845 -43.187  31.483  0.00  0.00    +0.087 C 
ENDBRANCH  10  12
ENDBRANCH   1  10
TORSDOF 2
