REMARK  Name = =
REMARK  7 active torsions:
REMARK  status: ('A' for Active; 'I' for Inactive)
REMARK    1  A    between atoms: O_2  and  O_29
REMARK    2  A    between atoms: C_11  and  C_13
REMARK    3  A    between atoms: N_16  and  C_17
REMARK    4  A    between atoms: N_16  and  O_28
REMARK    5  A    between atoms: N_19  and  N_20
REMARK    6  A    between atoms: N_20  and  N_23
REMARK    7  A    between atoms: N_23  and  O_27
REMARK                            x       y       z     vdW  Elec       q    Type
REMARK                         _______ _______ _______ _____ _____    ______ ____
ROOT
ATOM      1  P   UNL     1     -11.443 -42.350  28.310  0.00  0.00    +0.000 P 
ENDROOT
TORSDOF 0
REMARK  Name = =
REMARK  7 active torsions:
REMARK  status: ('A' for Active; 'I' for Inactive)
REMARK    1  A    between atoms: O_2  and  O_29
REMARK    2  A    between atoms: C_11  and  C_13
REMARK    3  A    between atoms: N_16  and  C_17
REMARK    4  A    between atoms: N_16  and  O_28
REMARK    5  A    between atoms: N_19  and  N_20
REMARK    6  A    between atoms: N_20  and  N_23
REMARK    7  A    between atoms: N_23  and  O_27
REMARK                            x       y       z     vdW  Elec       q    Type
REMARK                         _______ _______ _______ _____ _____    ______ ____
ROOT
ATOM      1  O   UNL     1     -10.962 -41.510  29.477  0.00  0.00    -0.253 OA
ATOM      2  H   UNL     1     -11.525 -41.046  30.116  0.00  0.00    +0.253 HD
ENDROOT
BRANCH   1   3
ATOM      3  O   UNL     1     -10.931 -40.722  28.153  0.00  0.00    -0.253 OA
ATOM      4  H   UNL     1     -10.368 -41.186  27.514  0.00  0.00    +0.253 HD
ENDBRANCH   1   3
TORSDOF 1
REMARK  Name = =
REMARK  7 active torsions:
REMARK  status: ('A' for Active; 'I' for Inactive)
REMARK    1  A    between atoms: O_2  and  O_29
REMARK    2  A    between atoms: C_11  and  C_13
REMARK    3  A    between atoms: N_16  and  C_17
REMARK    4  A    between atoms: N_16  and  O_28
REMARK    5  A    between atoms: N_19  and  N_20
REMARK    6  A    between atoms: N_20  and  N_23
REMARK    7  A    between atoms: N_23  and  O_27
REMARK                            x       y       z     vdW  Elec       q    Type
REMARK                         _______ _______ _______ _____ _____    ______ ____
ROOT
ATOM      1  N   UNL     1     -13.984 -42.545  25.314  0.00  0.00    -0.148 NA
ATOM      2  N   UNL     1     -12.873 -42.546  26.062  0.00  0.00    -0.146 NA
ATOM      3  C   UNL     1     -12.932 -42.380  27.353  0.00  0.00    +0.122 C 
ATOM      4  C   UNL     1     -14.088 -42.200  28.017  0.00  0.00    +0.024 C 
ATOM      5  C   UNL     1     -15.255 -42.195  27.255  0.00  0.00    +0.021 C 
ATOM      6  C   UNL     1     -16.464 -42.008  27.874  0.00  0.00    +0.002 C 
ATOM      7  C   UNL     1     -17.591 -42.004  27.093  0.00  0.00    +0.000 C 
ATOM      8  C   UNL     1     -17.492 -42.180  25.743  0.00  0.00    +0.004 C 
ATOM      9  C   UNL     1     -16.304 -42.368  25.088  0.00  0.00    +0.054 C 
ATOM     10  C   UNL     1     -15.168 -42.372  25.886  0.00  0.00    +0.106 C 
ENDROOT
BRANCH   9  11
ATOM     11  C   UNL     1     -16.173 -42.553  23.648  0.00  0.00    +0.175 C 
ATOM     12  O   UNL     1     -15.066 -42.894  23.150  0.00  0.00    -0.291 OA
ATOM     13  C   UNL     1     -17.332 -42.346  22.747  0.00  0.00    +0.077 C 
ENDBRANCH   9  11
TORSDOF 1
REMARK  Name = =
REMARK  7 active torsions:
REMARK  status: ('A' for Active; 'I' for Inactive)
REMARK    1  A    between atoms: O_2  and  O_29
REMARK    2  A    between atoms: C_11  and  C_13
REMARK    3  A    between atoms: N_16  and  C_17
REMARK    4  A    between atoms: N_16  and  O_28
REMARK    5  A    between atoms: N_19  and  N_20
REMARK    6  A    between atoms: N_20  and  N_23
REMARK    7  A    between atoms: N_23  and  O_27
REMARK                            x       y       z     vdW  Elec       q    Type
REMARK                         _______ _______ _______ _____ _____    ______ ____
ROOT
ATOM      1  N   UNL     1      -8.680 -44.912  30.705  0.00  0.00    -0.094 N 
ATOM      2  C   UNL     1      -8.939 -46.287  30.822  0.00  0.00    +0.340 C 
ATOM      3  O   UNL     1      -8.153 -47.045  31.447  0.00  0.00    -0.262 OA
ENDROOT
BRANCH   1   4
ATOM      4  N   UNL     1      -7.548 -44.354  31.278  0.00  0.00    -0.056 N 
ATOM      5  C   UNL     1      -7.543 -43.570  32.444  0.00  0.00    +0.342 C 
ATOM      6  O   UNL     1      -6.500 -43.097  32.913  0.00  0.00    -0.249 OA
ATOM      7  N   UNL     1      -8.768 -43.309  33.115  0.00  0.00    -0.310 N 
ATOM      8  H   UNL     1      -9.611 -43.675  32.761  0.00  0.00    +0.147 HD
ATOM      9  H   UNL     1      -8.774 -42.763  33.934  0.00  0.00    +0.147 HD
BRANCH   4  10
ATOM     10  O   UNL     1      -6.368 -44.589  30.660  0.00  0.00    -0.272 OA
ATOM     11  H   UNL     1      -6.518 -45.139  29.875  0.00  0.00    +0.244 HD
ENDBRANCH   4  10
ENDBRANCH   1   4
BRANCH   1  14
ATOM     12  C   UNL     1     -10.907 -43.960  30.473  0.00  0.00    +0.363 C 
ATOM     13  O   UNL     1     -11.208 -44.587  31.532  0.00  0.00    -0.247 OA
ATOM     14  N   UNL     1      -9.576 -44.104  30.003  0.00  0.00    -0.193 N 
ATOM     15  H   UNL     1      -9.286 -43.637  29.186  0.00  0.00    +0.177 HD
BRANCH  12  16
ATOM     16  N   UNL     1     -11.829 -43.147  29.774  0.00  0.00    -0.047 NA
BRANCH  16  17
ATOM     17  O   UNL     1     -13.071 -43.048  30.380  0.00  0.00    -0.272 OA
ATOM     18  H   UNL     1     -13.647 -42.478  29.846  0.00  0.00    +0.244 HD
ENDBRANCH  16  17
ENDBRANCH  12  16
ENDBRANCH   1  14
TORSDOF 5
REMARK  Name = =
REMARK  7 active torsions:
REMARK  status: ('A' for Active; 'I' for Inactive)
REMARK    1  A    between atoms: O_2  and  O_29
REMARK    2  A    between atoms: C_11  and  C_13
REMARK    3  A    between atoms: N_16  and  C_17
REMARK    4  A    between atoms: N_16  and  O_28
REMARK    5  A    between atoms: N_19  and  N_20
REMARK    6  A    between atoms: N_20  and  N_23
REMARK    7  A    between atoms: N_23  and  O_27
REMARK                            x       y       z     vdW  Elec       q    Type
REMARK                         _______ _______ _______ _____ _____    ______ ____
ROOT
ATOM      1  O   HOH     1     -10.546 -43.459  27.348  0.00  0.00    -0.253 OA
ATOM      2  H   HOH     0      -9.576 -43.459  27.348  0.00  0.00    +0.253 HD
ENDROOT
TORSDOF 0
