MODEL 1
REMARK VINA RESULT:    -6.893      0.000      0.000
REMARK INTER + INTRA:          -8.888
REMARK INTER:                  -8.102
REMARK INTRA:                  -0.786
REMARK UNBOUND:                -0.786
REMARK  Name = =
REMARK  3 active torsions:
REMARK  status: ('A' for Active; 'I' for Inactive)
REMARK    1  A    between atoms: C_1  and  N_18
REMARK    2  A    between atoms: C_1  and  C_29
REMARK    3  A    between atoms: C_30  and  N_36
REMARK                            x       y       z     vdW  Elec       q    Type
REMARK                         _______ _______ _______ _____ _____    ______ ____
ROOT
ATOM      1  C   UNL     1      61.926 164.776  38.412  0.00  0.00    +0.073 C 
ATOM      2  C   UNL     1      60.652 164.197  37.932  0.00  0.00    +0.020 C 
ATOM      3  C   UNL     1      60.419 162.727  38.115  0.00  0.00    +0.006 C 
ATOM      4  C   UNL     1      60.413 162.494  39.624  0.00  0.00    +0.018 C 
ATOM      5  C   UNL     1      59.766 161.275  40.092  0.00  0.00    +0.004 C 
ATOM      6  C   UNL     1      60.335 160.848  41.419  0.00  0.00    +0.005 C 
ATOM      7  C   UNL     1      59.675 159.619  41.964  0.00  0.00    +0.000 C 
ATOM      8  C   UNL     1      59.295 158.614  40.958  0.00  0.00    +0.000 C 
ATOM      9  C   UNL     1      57.942 158.084  41.261  0.00  0.00    +0.000 C 
ATOM     10  C   UNL     1      57.359 158.983  42.322  0.00  0.00    +0.000 C 
ATOM     11  C   UNL     1      58.371 160.049  42.631  0.00  0.00    +0.000 C 
ATOM     12  C   UNL     1      59.650 158.815  39.558  0.00  0.00    +0.000 C 
ATOM     13  C   UNL     1      59.852 160.198  39.050  0.00  0.00    +0.000 C 
ATOM     14  C   UNL     1      61.833 160.706  41.295  0.00  0.00    +0.025 C 
ATOM     15  C   UNL     1      62.389 162.021  40.883  0.00  0.00    -0.035 C 
ATOM     16  C   UNL     1      61.725 162.862  40.101  0.00  0.00    -0.047 C 
ATOM     17  C   UNL     1      62.311 164.160  39.719  0.00  0.00    +0.041 C 
ENDROOT
BRANCH   1  18
ATOM     18  N   UNL     1      61.661 166.208  38.643  0.00  0.00    -0.271 NA
ATOM     19  C   UNL     1      62.430 166.863  39.596  0.00  0.00    +0.077 C 
ATOM     20  C   UNL     1      61.661 167.440  40.777  0.00  0.00    +0.043 C 
ATOM     21  C   UNL     1      60.913 168.666  40.369  0.00  0.00    -0.025 C 
ATOM     22  C   UNL     1      60.258 168.888  39.177  0.00  0.00    -0.025 C 
ATOM     23  C   UNL     1      59.597 170.077  38.916  0.00  0.00    -0.005 C 
ATOM     24  C   UNL     1      59.596 171.064  39.881  0.00  0.00    -0.000 C 
ATOM     25  C   UNL     1      60.245 170.863  41.079  0.00  0.00    -0.000 C 
ATOM     26  C   UNL     1      60.898 169.665  41.311  0.00  0.00    -0.005 C 
ATOM     27  C   UNL     1      60.153 167.947  38.018  0.00  0.00    +0.043 C 
ATOM     28  C   UNL     1      60.279 166.541  38.565  0.00  0.00    +0.077 C 
ENDBRANCH   1  18
BRANCH   1  29
ATOM     29  C   UNL     1      63.044 164.750  37.484  0.00  0.00    +0.057 C 
ATOM     30  C   UNL     1      62.841 165.010  36.116  0.00  0.00    +0.102 C 
ATOM     31  N   UNL     1      63.902 165.009  35.275  0.00  0.00    -0.300 N 
ATOM     32  C   UNL     1      65.157 164.767  35.682  0.00  0.00    +0.066 C 
ATOM     33  C   UNL     1      65.402 164.508  36.997  0.00  0.00    +0.058 C 
ATOM     34  C   UNL     1      64.325 164.505  37.872  0.00  0.00    +0.197 C 
ATOM     35  O   UNL     1      64.585 164.262  39.050  0.00  0.00    -0.287 OA
ATOM     36  H   UNL     1      63.746 165.196  34.321  0.00  0.00    +0.153 HD
BRANCH  30  37
ATOM     37  N   UNL     1      61.566 165.203  35.566  0.00  0.00    -0.287 N 
ATOM     38  C   UNL     1      61.115 166.370  34.934  0.00  0.00    +0.133 C 
ATOM     39  N   UNL     1      61.771 167.510  34.743  0.00  0.00    -0.229 NA
ATOM     40  C   UNL     1      61.288 168.585  34.133  0.00  0.00    +0.100 C 
ATOM     41  C   UNL     1      59.983 168.582  33.624  0.00  0.00    +0.021 C 
ATOM     42  C   UNL     1      59.241 167.432  33.785  0.00  0.00    +0.004 C 
ATOM     43  C   UNL     1      59.791 166.355  34.423  0.00  0.00    +0.034 C 
ATOM     44  H   UNL     1      60.933 164.453  35.629  0.00  0.00    +0.155 HD
ENDBRANCH  30  37
ENDBRANCH   1  29
TORSDOF 3
ENDMDL
