MODEL 1
REMARK VINA RESULT:    -6.779      0.000      0.000
REMARK INTER + INTRA:         -13.277
REMARK INTER:                 -11.931
REMARK INTRA:                  -1.346
REMARK UNBOUND:                -1.346
REMARK  Name = =
REMARK  14 active torsions:
REMARK  status: ('A' for Active; 'I' for Inactive)
REMARK    1  A    between atoms: C_1  and  N_3
REMARK    2  A    between atoms: C_1  and  N_22
REMARK    3  A    between atoms: C_2  and  C_20
REMARK    4  A    between atoms: N_3  and  S_6
REMARK    5  A    between atoms: C_4  and  O_19
REMARK    6  A    between atoms: S_6  and  C_10
REMARK    7  A    between atoms: N_22  and  S_23
REMARK    8  A    between atoms: N_22  and  O_26
REMARK    9  A    between atoms: O_26  and  C_27
REMARK   10  A    between atoms: C_27  and  O_29
REMARK   11  A    between atoms: O_29  and  N_30
REMARK   12  A    between atoms: N_30  and  O_33
REMARK   13  A    between atoms: O_33  and  C_34
REMARK   14  A    between atoms: C_34  and  O_36
REMARK                            x       y       z     vdW  Elec       q    Type
REMARK                         _______ _______ _______ _____ _____    ______ ____
ROOT
ATOM      1  C   UNL     1      60.643 160.426  40.163  0.00  0.00    +0.208 C 
ATOM      2  C   UNL     1      61.546 159.660  40.687  0.00  0.00    +0.117 C 
ENDROOT
BRANCH   1   3
ATOM      3  N   UNL     1      59.270 160.132  40.077  0.00  0.00    -0.081 N 
ATOM      4  C   UNL     1      58.693 159.862  38.763  0.00  0.00    +0.426 C 
ATOM      5  O   UNL     1      57.475 159.611  38.717  0.00  0.00    -0.224 OA
BRANCH   3   6
ATOM      6  S   UNL     1      58.236 160.078  41.435  0.00  0.00    +0.103 S 
ATOM      7  O   UNL     1      57.676 158.740  41.674  0.00  0.00    -0.148 OA
ATOM      8  O   UNL     1      59.180 160.426  42.629  0.00  0.00    -0.148 OA
BRANCH   6  10
ATOM      9  C   UNL     1      55.735 161.128  41.670  0.00  0.00    +0.037 C 
ATOM     10  C   UNL     1      57.057 161.374  41.410  0.00  0.00    +0.207 C 
ATOM     11  N   UNL     1      57.435 162.647  41.150  0.00  0.00    -0.224 NA
ATOM     12  C   UNL     1      56.551 163.655  41.145  0.00  0.00    +0.100 C 
ATOM     13  C   UNL     1      55.220 163.439  41.404  0.00  0.00    +0.021 C 
ATOM     14  C   UNL     1      54.779 162.140  41.677  0.00  0.00    +0.004 C 
ATOM     15  C   UNL     1      53.445 161.904  41.933  0.00  0.00    +0.000 C 
ATOM     16  C   UNL     1      52.987 160.636  42.200  0.00  0.00    +0.000 C 
ATOM     17  C   UNL     1      53.901 159.611  42.201  0.00  0.00    +0.000 C 
ATOM     18  C   UNL     1      55.230 159.855  41.944  0.00  0.00    +0.003 C 
ENDBRANCH   6  10
ENDBRANCH   3   6
BRANCH   4  19
ATOM     19  O   UNL     1      59.427 159.874  37.604  0.00  0.00    -0.465 OA
ATOM     20  H   UNL     1      59.152 159.361  36.871  0.00  0.00    +0.297 HD
ENDBRANCH   4  19
ENDBRANCH   1   3
BRANCH   2  21
ATOM     21  C   UNL     1      62.953 160.083  40.717  0.00  0.00    +0.104 C 
ATOM     22  N   UNL     1      64.048 160.425  40.755  0.00  0.00    -0.191 NA
ENDBRANCH   2  21
BRANCH   1  23
ATOM     23  N   UNL     1      61.087 161.719  39.612  0.00  0.00    -0.053 N 
BRANCH  23  24
ATOM     24  S   UNL     1      61.125 163.046  40.674  0.00  0.00    +0.073 S 
ATOM     25  O   UNL     1      62.512 163.660  40.752  0.00  0.00    -0.153 OA
ATOM     26  O   UNL     1      60.114 164.100  40.322  0.00  0.00    -0.153 OA
ATOM     27  H   UNL     1      60.795 162.554  41.898  0.00  0.00    +0.239 HD
ENDBRANCH  23  24
BRANCH  23  28
ATOM     28  O   UNL     1      61.443 161.847  38.316  0.00  0.00    -0.281 OA
BRANCH  28  29
ATOM     29  C   UNL     1      60.969 162.878  37.513  0.00  0.00    +0.562 C 
ATOM     30  O   UNL     1      61.783 163.807  37.268  0.00  0.00    -0.199 OA
BRANCH  29  31
ATOM     31  O   UNL     1      59.713 162.955  36.982  0.00  0.00    -0.274 OA
BRANCH  31  32
ATOM     32  N   UNL     1      59.468 163.002  35.615  0.00  0.00    +0.064 N 
ATOM     33  C   UNL     1      58.709 161.927  35.057  0.00  0.00    +0.379 C 
ATOM     34  O   UNL     1      58.433 161.872  33.830  0.00  0.00    -0.258 OA
BRANCH  32  35
ATOM     35  O   UNL     1      59.913 164.004  34.825  0.00  0.00    -0.275 OA
BRANCH  35  36
ATOM     36  C   UNL     1      59.288 165.244  34.866  0.00  0.00    +0.533 C 
ATOM     37  O   UNL     1      59.739 166.133  35.646  0.00  0.00    -0.201 OA
BRANCH  36  38
ATOM     38  O   UNL     1      58.174 165.527  34.066  0.00  0.00    -0.448 OA
ATOM     39  H   UNL     1      57.944 166.416  33.881  0.00  0.00    +0.299 HD
ENDBRANCH  36  38
ENDBRANCH  35  36
ENDBRANCH  32  35
ENDBRANCH  31  32
ENDBRANCH  29  31
ENDBRANCH  28  29
ENDBRANCH  23  28
ENDBRANCH   1  23
TORSDOF 14
ENDMDL
