MODEL 1
REMARK VINA RESULT:    -8.325      0.000      0.000
REMARK INTER + INTRA:         -18.863
REMARK INTER:                 -14.895
REMARK INTRA:                  -3.968
REMARK UNBOUND:                -3.968
REMARK  Name = =
REMARK  15 active torsions:
REMARK  status: ('A' for Active; 'I' for Inactive)
REMARK    1  A    between atoms: C_1  and  O_3
REMARK    2  A    between atoms: C_1  and  O_22
REMARK    3  A    between atoms: O_3  and  O_4
REMARK    4  A    between atoms: O_4  and  O_5
REMARK    5  A    between atoms: O_5  and  C_6
REMARK    6  A    between atoms: C_8  and  C_12
REMARK    7  A    between atoms: C_9  and  C_20
REMARK    8  A    between atoms: C_14  and  O_19
REMARK    9  A    between atoms: O_22  and  C_23
REMARK   10  A    between atoms: C_24  and  C_31
REMARK   11  A    between atoms: C_26  and  C_29
REMARK   12  A    between atoms: C_31  and  C_32
REMARK   13  A    between atoms: C_31  and  O_41
REMARK   14  A    between atoms: C_33  and  C_38
REMARK   15  A    between atoms: C_38  and  O_40
REMARK                            x       y       z     vdW  Elec       q    Type
REMARK                         _______ _______ _______ _____ _____    ______ ____
ROOT
ATOM      1  C   UNL     1      -0.709  -3.853  27.721  0.00  0.00    +0.550 C 
ATOM      2  O   UNL     1      -1.224  -2.739  28.120  0.00  0.00    -0.200 OA
ENDROOT
BRANCH   1   3
ATOM      3  O   UNL     1       0.033  -3.706  26.534  0.00  0.00    -0.219 OA
BRANCH   3   4
ATOM      4  O   UNL     1       1.357  -3.808  26.529  0.00  0.00    +0.048 OA
BRANCH   4   5
ATOM      5  O   UNL     1       1.719  -4.710  25.594  0.00  0.00    -0.297 OA
BRANCH   5   6
ATOM      6  C   UNL     1       2.241  -5.916  26.100  0.00  0.00    +0.186 C 
ATOM      7  C   UNL     1       1.835  -7.143  25.636  0.00  0.00    +0.038 C 
ATOM      8  C   UNL     1       2.335  -8.359  26.123  0.00  0.00    -0.001 C 
ATOM      9  C   UNL     1       3.299  -8.303  27.144  0.00  0.00    -0.002 C 
ATOM     10  C   UNL     1       3.695  -7.068  27.597  0.00  0.00    +0.003 C 
ATOM     11  C   UNL     1       3.196  -5.884  27.106  0.00  0.00    +0.041 C 
BRANCH   8  12
ATOM     12  C   UNL     1       1.746  -9.600  25.761  0.00  0.00    +0.101 C 
ATOM     13  N   UNL     1       0.766 -10.065  26.811  0.00  0.00    -0.244 N 
ATOM     14  C   UNL     1      -0.098  -9.448  27.645  0.00  0.00    +0.402 C 
ATOM     15  O   UNL     1      -0.433  -8.217  27.696  0.00  0.00    -0.226 OA
ATOM     16  C   UNL     1       0.750 -11.504  26.440  0.00  0.00    +0.097 C 
ATOM     17  C   UNL     1       0.266 -11.246  24.973  0.00  0.00    +0.024 C 
ATOM     18  C   UNL     1       0.635  -9.734  24.717  0.00  0.00    +0.026 C 
BRANCH  14  19
ATOM     19  O   UNL     1      -0.758 -10.242  28.635  0.00  0.00    -0.466 OA
ATOM     20  H   UNL     1      -0.844 -11.167  28.512  0.00  0.00    +0.297 HD
ENDBRANCH  14  19
ENDBRANCH   8  12
BRANCH   9  21
ATOM     21  C   UNL     1       3.883  -9.517  27.686  0.00  0.00    -0.000 C 
ATOM     22  C   UNL     1       5.216  -9.588  27.837  0.00  0.00    -0.000 C 
ENDBRANCH   9  21
ENDBRANCH   5   6
ENDBRANCH   4   5
ENDBRANCH   3   4
ENDBRANCH   1   3
BRANCH   1  23
ATOM     23  O   UNL     1      -0.890  -5.001  28.414  0.00  0.00    -0.392 OA
BRANCH  23  24
ATOM     24  C   UNL     1      -0.183  -5.433  29.520  0.00  0.00    +0.150 C 
ATOM     25  C   UNL     1      -0.770  -6.268  30.449  0.00  0.00    +0.043 C 
ATOM     26  C   UNL     1      -0.085  -6.703  31.544  0.00  0.00    +0.005 C 
ATOM     27  C   UNL     1       1.239  -6.310  31.755  0.00  0.00    +0.042 C 
ATOM     28  C   UNL     1       1.862  -5.475  30.856  0.00  0.00    +0.006 C 
ATOM     29  C   UNL     1       1.121  -5.061  29.756  0.00  0.00    +0.038 C 
BRANCH  27  30
ATOM     30  C   UNL     1       1.974  -6.783  32.913  0.00  0.00    +0.234 C 
ATOM     31  O   UNL     1       1.401  -7.414  33.817  0.00  0.00    -0.283 OA
ENDBRANCH  27  30
BRANCH  25  32
ATOM     32  C   UNL     1      -2.185  -6.683  30.221  0.00  0.00    +0.158 C 
BRANCH  32  33
ATOM     33  C   UNL     1      -3.020  -6.405  31.403  0.00  0.00    +0.015 C 
ATOM     34  C   UNL     1      -3.616  -5.198  31.655  0.00  0.00    +0.074 C 
ATOM     35  C   UNL     1      -4.376  -5.021  32.813  0.00  0.00    +0.006 C 
ATOM     36  C   UNL     1      -4.577  -6.003  33.751  0.00  0.00    +0.000 C 
ATOM     37  C   UNL     1      -3.971  -7.225  33.489  0.00  0.00    -0.000 C 
ATOM     38  C   UNL     1      -3.224  -7.414  32.360  0.00  0.00    -0.001 C 
BRANCH  34  39
ATOM     39  C   UNL     1      -3.459  -4.082  30.721  0.00  0.00    +0.338 C 
ATOM     40  O   UNL     1      -4.207  -3.939  29.742  0.00  0.00    -0.245 OA
BRANCH  39  41
ATOM     41  O   UNL     1      -2.460  -3.130  30.891  0.00  0.00    -0.477 OA
ATOM     42  H   UNL     1      -1.658  -3.363  31.314  0.00  0.00    +0.295 HD
ENDBRANCH  39  41
ENDBRANCH  34  39
ENDBRANCH  32  33
BRANCH  32  43
ATOM     43  O   UNL     1      -2.236  -8.083  29.984  0.00  0.00    -0.375 OA
ATOM     44  H   UNL     1      -1.669  -8.541  30.624  0.00  0.00    +0.211 HD
ENDBRANCH  32  43
ENDBRANCH  25  32
ENDBRANCH  23  24
ENDBRANCH   1  23
TORSDOF 15
ENDMDL
