REMARK  Name = =
REMARK  15 active torsions:
REMARK  status: ('A' for Active; 'I' for Inactive)
REMARK    1  A    between atoms: C_1  and  O_3
REMARK    2  A    between atoms: C_1  and  O_22
REMARK    3  A    between atoms: O_3  and  O_4
REMARK    4  A    between atoms: O_4  and  O_5
REMARK    5  A    between atoms: O_5  and  C_6
REMARK    6  A    between atoms: C_8  and  C_12
REMARK    7  A    between atoms: C_9  and  C_20
REMARK    8  A    between atoms: C_14  and  O_19
REMARK    9  A    between atoms: O_22  and  C_23
REMARK   10  A    between atoms: C_24  and  C_31
REMARK   11  A    between atoms: C_26  and  C_29
REMARK   12  A    between atoms: C_31  and  C_32
REMARK   13  A    between atoms: C_31  and  O_41
REMARK   14  A    between atoms: C_33  and  C_38
REMARK   15  A    between atoms: C_38  and  O_40
REMARK                            x       y       z     vdW  Elec       q    Type
REMARK                         _______ _______ _______ _____ _____    ______ ____
ROOT
ATOM      1  C   UNL     1      -2.147  -0.887  22.156  0.00  0.00    +0.550 C 
ATOM      2  O   UNL     1      -1.781  -1.579  23.182  0.00  0.00    -0.200 OA
ENDROOT
BRANCH   1   3
ATOM      3  O   UNL     1      -3.539  -0.687  22.112  0.00  0.00    -0.219 OA
BRANCH   3   4
ATOM      4  O   UNL     1      -4.371  -1.458  22.802  0.00  0.00    +0.048 OA
BRANCH   4   5
ATOM      5  O   UNL     1      -5.550  -1.518  22.149  0.00  0.00    -0.297 OA
BRANCH   5   6
ATOM      6  C   UNL     1      -5.769  -2.705  21.424  0.00  0.00    +0.186 C 
ATOM      7  C   UNL     1      -6.303  -3.830  22.002  0.00  0.00    +0.038 C 
ATOM      8  C   UNL     1      -6.530  -5.025  21.305  0.00  0.00    -0.001 C 
ATOM      9  C   UNL     1      -6.182  -5.060  19.944  0.00  0.00    -0.002 C 
ATOM     10  C   UNL     1      -5.648  -3.926  19.380  0.00  0.00    +0.003 C 
ATOM     11  C   UNL     1      -5.435  -2.760  20.078  0.00  0.00    +0.041 C 
BRANCH   8  12
ATOM     12  C   UNL     1      -6.893  -6.220  21.983  0.00  0.00    +0.101 C 
ATOM     13  N   UNL     1      -7.943  -5.953  23.034  0.00  0.00    -0.244 N 
ATOM     14  C   UNL     1      -8.991  -5.108  23.139  0.00  0.00    +0.402 C 
ATOM     15  O   UNL     1      -9.489  -4.326  22.261  0.00  0.00    -0.226 OA
ATOM     16  C   UNL     1      -7.716  -7.173  23.852  0.00  0.00    +0.097 C 
ATOM     17  C   UNL     1      -8.015  -8.164  22.676  0.00  0.00    +0.024 C 
ATOM     18  C   UNL     1      -7.816  -7.283  21.383  0.00  0.00    +0.026 C 
BRANCH  14  19
ATOM     19  O   UNL     1      -9.675  -5.039  24.393  0.00  0.00    -0.466 OA
ATOM     20  H   UNL     1      -9.393  -5.572  25.110  0.00  0.00    +0.297 HD
ENDBRANCH  14  19
ENDBRANCH   8  12
BRANCH   9  21
ATOM     21  C   UNL     1      -6.406  -6.253  19.147  0.00  0.00    -0.000 C 
ATOM     22  C   UNL     1      -5.408  -6.720  18.378  0.00  0.00    -0.000 C 
ENDBRANCH   9  21
ENDBRANCH   5   6
ENDBRANCH   4   5
ENDBRANCH   3   4
ENDBRANCH   1   3
BRANCH   1  23
ATOM     23  O   UNL     1      -1.244  -0.424  21.261  0.00  0.00    -0.392 OA
BRANCH  23  24
ATOM     24  C   UNL     1      -0.247  -1.142  20.628  0.00  0.00    +0.150 C 
ATOM     25  C   UNL     1       0.855  -0.501  20.098  0.00  0.00    +0.043 C 
ATOM     26  C   UNL     1       1.846  -1.196  19.473  0.00  0.00    +0.005 C 
ATOM     27  C   UNL     1       1.771  -2.586  19.351  0.00  0.00    +0.042 C 
ATOM     28  C   UNL     1       0.689  -3.265  19.862  0.00  0.00    +0.006 C 
ATOM     29  C   UNL     1      -0.294  -2.511  20.491  0.00  0.00    +0.038 C 
BRANCH  27  30
ATOM     30  C   UNL     1       2.832  -3.328  18.698  0.00  0.00    +0.234 C 
ATOM     31  O   UNL     1       2.761  -4.562  18.569  0.00  0.00    -0.283 OA
ENDBRANCH  27  30
BRANCH  25  32
ATOM     32  C   UNL     1       0.930   0.984  20.228  0.00  0.00    +0.158 C 
BRANCH  32  33
ATOM     33  C   UNL     1       0.958   1.634  18.906  0.00  0.00    +0.015 C 
ATOM     34  C   UNL     1      -0.075   2.371  18.390  0.00  0.00    +0.074 C 
ATOM     35  C   UNL     1       0.035   2.936  17.118  0.00  0.00    +0.006 C 
ATOM     36  C   UNL     1       1.143   2.802  16.318  0.00  0.00    +0.000 C 
ATOM     37  C   UNL     1       2.187   2.056  16.847  0.00  0.00    -0.000 C 
ATOM     38  C   UNL     1       2.095   1.496  18.091  0.00  0.00    -0.001 C 
BRANCH  34  39
ATOM     39  C   UNL     1      -1.304   2.568  19.160  0.00  0.00    +0.338 C 
ATOM     40  O   UNL     1      -1.296   2.631  20.399  0.00  0.00    -0.245 OA
BRANCH  39  41
ATOM     41  O   UNL     1      -2.539   2.694  18.534  0.00  0.00    -0.477 OA
ATOM     42  H   UNL     1      -2.597   2.653  17.600  0.00  0.00    +0.295 HD
ENDBRANCH  39  41
ENDBRANCH  34  39
ENDBRANCH  32  33
BRANCH  32  43
ATOM     43  O   UNL     1       2.128   1.340  20.904  0.00  0.00    -0.375 OA
ATOM     44  H   UNL     1       2.140   0.926  21.781  0.00  0.00    +0.211 HD
ENDBRANCH  32  43
ENDBRANCH  25  32
ENDBRANCH  23  24
ENDBRANCH   1  23
TORSDOF 15
