REMARK  Name = =
REMARK  0 active torsions:
REMARK  status: ('A' for Active; 'I' for Inactive)
REMARK                            x       y       z     vdW  Elec       q    Type
REMARK                         _______ _______ _______ _____ _____    ______ ____
ROOT
ATOM      1  C   UNL     1      52.256 155.596  28.595  0.00  0.00    +0.022 C 
ATOM      2  C   UNL     1      52.802 155.735  27.324  0.00  0.00    +0.024 C 
ATOM      3  C   UNL     1      53.159 154.659  26.543  0.00  0.00    +0.117 C 
ATOM      4  C   UNL     1      52.953 153.390  27.069  0.00  0.00    +0.180 C 
ATOM      5  N   UNL     1      52.420 153.248  28.308  0.00  0.00    -0.224 NA
ATOM      6  C   UNL     1      52.079 154.302  29.058  0.00  0.00    +0.101 C 
ATOM      7  N   UNL     1      53.291 152.323  26.331  0.00  0.00    -0.222 NA
ATOM      8  C   UNL     1      53.820 152.469  25.100  0.00  0.00    +0.121 C 
ATOM      9  C   UNL     1      54.019 153.711  24.589  0.00  0.00    +0.120 C 
ATOM     10  N   UNL     1      53.689 154.799  25.310  0.00  0.00    -0.239 NA
ENDROOT
TORSDOF 0
