REMARK  Name = =
REMARK  1 active torsions:
REMARK  status: ('A' for Active; 'I' for Inactive)
REMARK    1  A    between atoms: C_1  and  N_11
REMARK                            x       y       z     vdW  Elec       q    Type
REMARK                         _______ _______ _______ _____ _____    ______ ____
ROOT
ATOM      1  C   UNL     1      51.884 155.349  28.117  0.00  0.00    +0.075 C 
ATOM      2  C   UNL     1      52.782 155.558  27.098  0.00  0.00    +0.039 C 
ATOM      3  C   UNL     1      53.204 154.523  26.288  0.00  0.00    +0.118 C 
ATOM      4  C   UNL     1      52.740 153.238  26.468  0.00  0.00    +0.180 C 
ATOM      5  N   UNL     1      51.865 153.046  27.465  0.00  0.00    -0.222 NA
ATOM      6  C   UNL     1      51.441 154.031  28.264  0.00  0.00    +0.115 C 
ATOM      7  N   UNL     1      53.135 152.194  25.682  0.00  0.00    -0.222 NA
ATOM      8  C   UNL     1      54.016 152.435  24.688  0.00  0.00    +0.121 C 
ATOM      9  C   UNL     1      54.471 153.722  24.519  0.00  0.00    +0.120 C 
ATOM     10  N   UNL     1      54.093 154.763  25.286  0.00  0.00    -0.239 NA
ENDROOT
BRANCH   1  11
ATOM     11  N   UNL     1      51.399 156.346  28.996  0.00  0.00    -0.257 N 
ATOM     12  C   UNL     1      50.229 156.140  29.862  0.00  0.00    +0.098 C 
ATOM     13  C   UNL     1      49.354 157.361  29.596  0.00  0.00    +0.022 C 
ATOM     14  C   UNL     1      49.985 158.546  30.318  0.00  0.00    +0.011 C 
ATOM     15  C   UNL     1      51.472 158.473  30.251  0.00  0.00    +0.086 C 
ATOM     16  C   UNL     1      51.985 157.635  29.116  0.00  0.00    +0.229 C 
ATOM     17  O   UNL     1      52.868 158.035  28.326  0.00  0.00    -0.275 OA
ENDBRANCH   1  11
TORSDOF 1
