REMARK  Name = =
REMARK  2 active torsions:
REMARK  status: ('A' for Active; 'I' for Inactive)
REMARK    1  A    between atoms: N_1  and  C_8
REMARK    2  A    between atoms: C_2  and  C_18
REMARK                            x       y       z     vdW  Elec       q    Type
REMARK                         _______ _______ _______ _____ _____    ______ ____
ROOT
ATOM      1  N   UNL     1      50.410 158.713  29.867  0.00  0.00    -0.258 N 
ATOM      2  C   UNL     1      50.372 157.388  29.362  0.00  0.00    +0.102 C 
ATOM      3  C   UNL     1      50.151 156.500  30.606  0.00  0.00    +0.025 C 
ATOM      4  C   UNL     1      48.864 156.928  31.239  0.00  0.00    +0.012 C 
ATOM      5  C   UNL     1      48.140 158.048  30.569  0.00  0.00    +0.086 C 
ATOM      6  C   UNL     1      49.094 159.175  30.323  0.00  0.00    +0.229 C 
ATOM      7  O   UNL     1      48.853 160.378  30.471  0.00  0.00    -0.275 OA
ENDROOT
BRANCH   1   8
ATOM      8  C   UNL     1      51.473 159.614  30.057  0.00  0.00    +0.057 C 
ATOM      9  C   UNL     1      52.799 159.320  29.890  0.00  0.00    +0.091 C 
ATOM     10  C   UNL     1      53.808 160.283  30.075  0.00  0.00    +0.095 C 
ATOM     11  C   UNL     1      53.487 161.562  30.430  0.00  0.00    +0.176 C 
ATOM     12  N   UNL     1      52.182 161.855  30.595  0.00  0.00    -0.223 NA
ATOM     13  C   UNL     1      51.221 160.957  30.426  0.00  0.00    +0.111 C 
ATOM     14  N   UNL     1      54.463 162.477  30.608  0.00  0.00    -0.227 NA
ATOM     15  C   UNL     1      55.746 162.134  30.437  0.00  0.00    +0.101 C 
ATOM     16  C   UNL     1      56.109 160.849  30.077  0.00  0.00    +0.172 C 
ATOM     17  N   UNL     1      55.104 159.952  29.906  0.00  0.00    -0.265 NA
ENDBRANCH   1   8
BRANCH   2  18
ATOM     18  C   UNL     1      51.392 156.886  28.482  0.00  0.00    -0.002 C 
ATOM     19  C   UNL     1      51.553 155.540  28.240  0.00  0.00    +0.016 C 
ATOM     20  C   UNL     1      52.517 155.068  27.342  0.00  0.00    +0.081 C 
ATOM     21  N   UNL     1      52.693 153.758  27.082  0.00  0.00    -0.244 NA
ATOM     22  C   UNL     1      53.587 153.267  26.240  0.00  0.00    +0.099 C 
ATOM     23  C   UNL     1      54.424 154.116  25.551  0.00  0.00    +0.021 C 
ATOM     24  C   UNL     1      54.290 155.469  25.775  0.00  0.00    +0.003 C 
ATOM     25  C   UNL     1      53.334 155.947  26.673  0.00  0.00    +0.018 C 
ATOM     26  C   UNL     1      53.187 157.285  26.904  0.00  0.00    +0.001 C 
ATOM     27  C   UNL     1      52.233 157.716  27.789  0.00  0.00    -0.003 C 
ENDBRANCH   2  18
TORSDOF 2
