REMARK  Name = =
REMARK  2 active torsions:
REMARK  status: ('A' for Active; 'I' for Inactive)
REMARK    1  A    between atoms: C_2  and  N_28
REMARK    2  A    between atoms: C_29  and  C_31
REMARK                            x       y       z     vdW  Elec       q    Type
REMARK                         _______ _______ _______ _____ _____    ______ ____
ROOT
ATOM      1  C   UNL     1      53.168 155.038  26.653  0.00  0.00    +0.009 C 
ATOM      2  C   UNL     1      52.985 156.329  26.162  0.00  0.00    +0.066 C 
ATOM      3  C   UNL     1      53.735 156.839  25.123  0.00  0.00    +0.094 C 
ATOM      4  N   UNL     1      53.554 158.090  24.652  0.00  0.00    -0.243 NA
ATOM      5  C   UNL     1      54.273 158.611  23.640  0.00  0.00    +0.099 C 
ATOM      6  C   UNL     1      55.258 157.854  23.028  0.00  0.00    +0.021 C 
ATOM      7  C   UNL     1      55.478 156.574  23.474  0.00  0.00    +0.003 C 
ATOM      8  C   UNL     1      54.714 156.080  24.518  0.00  0.00    +0.019 C 
ATOM      9  C   UNL     1      54.905 154.791  25.000  0.00  0.00    -0.001 C 
ATOM     10  C   UNL     1      54.149 154.287  26.042  0.00  0.00    +0.001 C 
ATOM     11  N   UNL     1      52.131 153.079  27.710  0.00  0.00    -0.273 N 
ATOM     12  C   UNL     1      52.352 154.516  27.748  0.00  0.00    +0.099 C 
ATOM     13  C   UNL     1      53.001 154.759  29.112  0.00  0.00    +0.025 C 
ATOM     14  C   UNL     1      52.047 154.306  30.180  0.00  0.00    +0.012 C 
ATOM     15  C   UNL     1      50.779 153.683  29.662  0.00  0.00    +0.085 C 
ATOM     16  C   UNL     1      51.134 152.634  28.658  0.00  0.00    +0.226 C 
ATOM     17  O   UNL     1      50.645 151.491  28.616  0.00  0.00    -0.275 OA
ATOM     18  C   UNL     1      52.777 152.155  26.895  0.00  0.00    +0.126 C 
ATOM     19  C   UNL     1      52.232 150.895  26.661  0.00  0.00    +0.018 C 
ATOM     20  C   UNL     1      52.849 149.967  25.850  0.00  0.00    +0.114 C 
ATOM     21  C   UNL     1      54.048 150.267  25.235  0.00  0.00    +0.176 C 
ATOM     22  N   UNL     1      54.567 151.491  25.470  0.00  0.00    -0.247 NA
ATOM     23  C   UNL     1      53.972 152.410  26.263  0.00  0.00    +0.149 C 
ATOM     24  N   UNL     1      54.659 149.366  24.438  0.00  0.00    -0.222 NA
ATOM     25  C   UNL     1      54.139 148.146  24.203  0.00  0.00    +0.121 C 
ATOM     26  C   UNL     1      52.934 147.845  24.820  0.00  0.00    +0.120 C 
ATOM     27  N   UNL     1      52.325 148.743  25.616  0.00  0.00    -0.239 NA
ENDROOT
BRANCH   2  28
ATOM     28  N   UNL     1      51.992 157.110  26.801  0.00  0.00    -0.278 N 
ATOM     29  C   UNL     1      52.279 157.679  28.061  0.00  0.00    +0.267 C 
ATOM     30  O   UNL     1      53.415 157.469  28.561  0.00  0.00    -0.268 OA
ATOM     31  H   UNL     1      51.117 157.254  26.374  0.00  0.00    +0.155 HD
BRANCH  29  32
ATOM     32  C   UNL     1      51.326 158.490  28.804  0.00  0.00    +0.135 C 
ATOM     33  N   UNL     1      50.702 157.979  29.896  0.00  0.00    -0.241 NA
ATOM     34  C   UNL     1      49.811 158.702  30.592  0.00  0.00    +0.081 C 
ATOM     35  C   UNL     1      49.479 159.995  30.242  0.00  0.00    +0.018 C 
ATOM     36  C   UNL     1      50.094 160.526  29.150  0.00  0.00    +0.003 C 
ATOM     37  C   UNL     1      51.000 159.776  28.453  0.00  0.00    +0.024 C 
ATOM     38  C   UNL     1      48.560 160.748  30.953  0.00  0.00    +0.001 C 
ATOM     39  C   UNL     1      47.949 160.181  32.060  0.00  0.00    +0.000 C 
ATOM     40  C   UNL     1      48.280 158.890  32.409  0.00  0.00    +0.002 C 
ATOM     41  C   UNL     1      49.191 158.152  31.700  0.00  0.00    +0.019 C 
ENDBRANCH  29  32
ENDBRANCH   2  28
TORSDOF 2
