MODEL 1
REMARK VINA RESULT:    -7.380      0.000      0.000
REMARK INTER + INTRA:         -10.068
REMARK INTER:                  -8.890
REMARK INTRA:                  -1.178
REMARK UNBOUND:                -1.178
REMARK  Name = =
REMARK  4 active torsions:
REMARK  status: ('A' for Active; 'I' for Inactive)
REMARK    1  A    between atoms: N_1  and  S_19
REMARK    2  A    between atoms: S_19  and  C_20
REMARK    3  A    between atoms: S_19  and  C_27
REMARK    4  A    between atoms: C_23  and  O_26
REMARK                            x       y       z     vdW  Elec       q    Type
REMARK                         _______ _______ _______ _____ _____    ______ ____
ROOT
ATOM      1  N   UNL     1      60.462 162.921  39.517  0.00  0.00    -0.244 NA
ATOM      2  C   UNL     1      61.370 162.654  38.430  0.00  0.00    +0.075 C 
ATOM      3  C   UNL     1      60.609 162.506  37.182  0.00  0.00    +0.045 C 
ATOM      4  C   UNL     1      60.136 163.911  36.795  0.00  0.00    +0.065 C 
ATOM      5  C   UNL     1      59.295 163.998  35.585  0.00  0.00    +0.174 C 
ATOM      6  O   UNL     1      59.913 164.882  34.685  0.00  0.00    -0.479 OA
ATOM      7  C   UNL     1      61.234 165.107  35.129  0.00  0.00    +0.134 C 
ATOM      8  C   UNL     1      61.386 164.536  36.343  0.00  0.00    +0.011 C 
ATOM      9  C   UNL     1      62.482 164.492  37.141  0.00  0.00    -0.022 C 
ATOM     10  C   UNL     1      63.615 165.129  36.648  0.00  0.00    -0.004 C 
ATOM     11  C   UNL     1      63.549 165.754  35.392  0.00  0.00    +0.003 C 
ATOM     12  C   UNL     1      62.375 165.741  34.646  0.00  0.00    +0.037 C 
ATOM     13  C   UNL     1      62.428 163.748  38.445  0.00  0.00    +0.043 C 
ATOM     14  C   UNL     1      58.828 162.693  35.054  0.00  0.00    +0.070 C 
ATOM     15  C   UNL     1      58.601 161.702  36.155  0.00  0.00    -0.027 C 
ATOM     16  C   UNL     1      59.469 161.617  37.185  0.00  0.00    -0.029 C 
ATOM     17  C   UNL     1      59.588 164.646  37.988  0.00  0.00    +0.026 C 
ATOM     18  C   UNL     1      59.392 163.796  39.195  0.00  0.00    +0.082 C 
ENDROOT
BRANCH   1  19
ATOM     19  S   UNL     1      60.476 162.042  40.775  0.00  0.00    -0.160 S 
ATOM     20  H   UNL     1      60.029 162.930  41.703  0.00  0.00    +0.103 HD
BRANCH  19  21
ATOM     21  C   UNL     1      61.970 161.641  41.349  0.00  0.00    +0.018 C 
ATOM     22  C   UNL     1      62.730 160.615  40.826  0.00  0.00    +0.009 C 
ATOM     23  C   UNL     1      63.975 160.281  41.305  0.00  0.00    +0.037 C 
ATOM     24  C   UNL     1      64.518 160.977  42.351  0.00  0.00    +0.134 C 
ATOM     25  C   UNL     1      63.805 162.007  42.910  0.00  0.00    +0.037 C 
ATOM     26  C   UNL     1      62.560 162.325  42.414  0.00  0.00    +0.009 C 
BRANCH  24  27
ATOM     27  O   UNL     1      65.775 160.655  42.850  0.00  0.00    -0.506 OA
ATOM     28  H   UNL     1      65.988 159.763  43.043  0.00  0.00    +0.292 HD
ENDBRANCH  24  27
ENDBRANCH  19  21
BRANCH  19  29
ATOM     29  C   UNL     1      59.292 160.872  40.915  0.00  0.00    +0.044 C 
ATOM     30  C   UNL     1      58.825 160.581  42.336  0.00  0.00    +0.011 C 
ATOM     31  C   UNL     1      57.754 159.528  42.359  0.00  0.00    +0.001 C 
ATOM     32  C   UNL     1      58.141 158.269  41.635  0.00  0.00    +0.000 C 
ATOM     33  C   UNL     1      59.570 158.399  41.162  0.00  0.00    +0.001 C 
ATOM     34  C   UNL     1      59.687 159.605  40.219  0.00  0.00    +0.011 C 
ENDBRANCH  19  29
ENDBRANCH   1  19
TORSDOF 4
ENDMDL
