MODEL 1
REMARK VINA RESULT:   -11.916      0.000      0.000
REMARK INTER + INTRA:         -13.730
REMARK INTER:                 -14.355
REMARK INTRA:                   0.624
REMARK UNBOUND:                 0.624
REMARK  Name = =
REMARK  4 active torsions:
REMARK  status: ('A' for Active; 'I' for Inactive)
REMARK    1  A    between atoms: C_1  and  C_26
REMARK    2  A    between atoms: C_15  and  O_41
REMARK    3  A    between atoms: C_22  and  S_32
REMARK    4  A    between atoms: S_32  and  C_35
REMARK                            x       y       z     vdW  Elec       q    Type
REMARK                         _______ _______ _______ _____ _____    ______ ____
ROOT
ATOM      1  C   UNL     1      53.817 161.035  42.297  0.00  0.00    +0.152 C 
ATOM      2  C   UNL     1      53.707 159.701  42.610  0.00  0.00    +0.080 C 
ATOM      3  C   UNL     1      52.490 159.066  42.690  0.00  0.00    +0.202 C 
ATOM      4  O   UNL     1      52.364 157.850  42.975  0.00  0.00    -0.286 OA
ATOM      5  C   UNL     1      51.357 159.812  42.443  0.00  0.00    +0.074 C 
ATOM      6  C   UNL     1      51.526 161.148  42.133  0.00  0.00    +0.151 C 
ATOM      7  C   UNL     1      50.357 161.887  41.888  0.00  0.00    +0.077 C 
ATOM      8  C   UNL     1      49.106 161.340  41.943  0.00  0.00    +0.045 C 
ATOM      9  C   UNL     1      48.972 159.983  42.259  0.00  0.00    +0.004 C 
ATOM     10  C   UNL     1      50.107 159.251  42.502  0.00  0.00    +0.006 C 
ATOM     11  C   UNL     1      47.893 162.086  41.703  0.00  0.00    +0.196 C 
ATOM     12  O   UNL     1      46.754 161.561  41.759  0.00  0.00    -0.287 OA
ATOM     13  C   UNL     1      47.997 163.504  41.383  0.00  0.00    +0.045 C 
ATOM     14  C   UNL     1      49.244 164.125  41.312  0.00  0.00    +0.076 C 
ATOM     15  C   UNL     1      49.295 165.477  41.005  0.00  0.00    +0.137 C 
ATOM     16  C   UNL     1      48.080 166.159  40.779  0.00  0.00    +0.037 C 
ATOM     17  C   UNL     1      46.856 165.555  40.848  0.00  0.00    +0.003 C 
ATOM     18  C   UNL     1      46.836 164.214  41.154  0.00  0.00    +0.003 C 
ATOM     19  C   UNL     1      50.436 163.318  41.565  0.00  0.00    +0.202 C 
ATOM     20  O   UNL     1      51.544 163.857  41.507  0.00  0.00    -0.286 OA
ATOM     21  O   UNL     1      52.696 161.727  42.063  0.00  0.00    -0.453 OA
ENDROOT
BRANCH   1  26
ATOM     22  C   UNL     1      57.533 161.787  42.068  0.00  0.00    +0.124 C 
ATOM     23  C   UNL     1      57.547 163.152  42.193  0.00  0.00    +0.060 C 
ATOM     24  C   UNL     1      56.341 163.807  42.328  0.00  0.00    +0.178 C 
ATOM     25  C   UNL     1      55.170 163.086  42.332  0.00  0.00    +0.180 C 
ATOM     26  C   UNL     1      55.114 161.695  42.206  0.00  0.00    +0.084 C 
ATOM     27  C   UNL     1      56.313 161.071  42.077  0.00  0.00    +0.081 C 
ATOM     28 CL   UNL     1      56.397 159.318  41.989  0.00  0.00    -0.081 Cl
ATOM     29  O   UNL     1      54.143 164.000  42.475  0.00  0.00    -0.434 OA
ATOM     30  C   UNL     1      54.728 165.188  43.034  0.00  0.00    +0.429 C 
ATOM     31  O   UNL     1      56.026 165.163  42.472  0.00  0.00    -0.435 OA
BRANCH  22  32
ATOM     32  S   UNL     1      59.026 160.883  41.892  0.00  0.00    +0.028 S 
ATOM     33  O   UNL     1      60.227 161.786  42.000  0.00  0.00    -0.164 OA
ATOM     34  O   UNL     1      59.064 159.825  42.976  0.00  0.00    -0.164 OA
BRANCH  32  35
ATOM     35  C   UNL     1      59.015 160.090  40.334  0.00  0.00    +0.110 C 
ATOM     36  C   UNL     1      59.075 158.715  40.295  0.00  0.00    +0.019 C 
ATOM     37  C   UNL     1      59.067 158.063  39.079  0.00  0.00    +0.001 C 
ATOM     38  C   UNL     1      59.001 158.793  37.911  0.00  0.00    +0.000 C 
ATOM     39  C   UNL     1      58.942 160.173  37.966  0.00  0.00    +0.001 C 
ATOM     40  C   UNL     1      58.948 160.842  39.181  0.00  0.00    +0.019 C 
ENDBRANCH  32  35
ENDBRANCH  22  32
ENDBRANCH   1  26
BRANCH  15  41
ATOM     41  O   UNL     1      50.465 166.156  40.916  0.00  0.00    -0.505 OA
ATOM     42  H   UNL     1      50.811 166.595  41.668  0.00  0.00    +0.292 HD
ENDBRANCH  15  41
TORSDOF 4
ENDMDL
