MODEL 1
REMARK VINA RESULT:    -6.215      0.000      0.000
REMARK INTER + INTRA:         -12.015
REMARK INTER:                 -10.575
REMARK INTRA:                  -1.440
REMARK UNBOUND:                -1.440
REMARK  Name = =
REMARK  14 active torsions:
REMARK  status: ('A' for Active; 'I' for Inactive)
REMARK    1  A    between atoms: S_1  and  C_2
REMARK    2  A    between atoms: S_1  and  C_4
REMARK    3  A    between atoms: C_2  and  N_20
REMARK    4  A    between atoms: C_2  and  C_21
REMARK    5  A    between atoms: N_3  and  C_7
REMARK    6  A    between atoms: C_8  and  O_19
REMARK    7  A    between atoms: C_21  and  S_23
REMARK    8  A    between atoms: S_23  and  C_24
REMARK    9  A    between atoms: S_23  and  S_29
REMARK   10  A    between atoms: C_24  and  N_26
REMARK   11  A    between atoms: N_26  and  S_27
REMARK   12  A    between atoms: S_27  and  S_28
REMARK   13  A    between atoms: S_29  and  C_30
REMARK   14  A    between atoms: C_30  and  N_32
REMARK                            x       y       z     vdW  Elec       q    Type
REMARK                         _______ _______ _______ _____ _____    ______ ____
ROOT
ATOM      1  C   UNL     1      58.484 160.210  39.641  0.00  0.00    +0.158 C 
ENDROOT
BRANCH   1   2
ATOM      2  N   UNL     1      58.241 160.106  38.247  0.00  0.00    -0.308 NA
ATOM      3  H   UNL     1      57.235 160.127  38.076  0.00  0.00    +0.120 HD
ATOM      4  H   UNL     1      58.626 159.229  37.899  0.00  0.00    +0.120 HD
ENDBRANCH   1   2
BRANCH   1   5
ATOM      5  S   UNL     1      57.286 160.165  40.748  0.00  0.00    -0.166 S 
ATOM      6  H   UNL     1      57.877 159.888  41.941  0.00  0.00    +0.096 HD
BRANCH   5   8
ATOM      7  N   UNL     1      55.200 161.389  42.061  0.00  0.00    -0.296 N 
ATOM      8  C   UNL     1      56.196 161.599  41.037  0.00  0.00    +0.113 C 
ATOM      9  C   UNL     1      56.794 162.676  41.904  0.00  0.00    +0.051 C 
ATOM     10  C   UNL     1      56.145 161.883  43.034  0.00  0.00    +0.094 C 
BRANCH   7  11
ATOM     11  C   UNL     1      53.868 160.911  42.120  0.00  0.00    +0.125 C 
ATOM     12  C   UNL     1      53.612 159.635  42.358  0.00  0.00    +0.190 C 
ATOM     13  C   UNL     1      52.219 159.148  42.417  0.00  0.00    +0.230 C 
ATOM     14  O   UNL     1      52.019 157.929  42.647  0.00  0.00    -0.283 OA
ATOM     15  C   UNL     1      51.093 160.047  42.217  0.00  0.00    +0.045 C 
ATOM     16  C   UNL     1      51.366 161.375  41.968  0.00  0.00    +0.043 C 
ATOM     17  C   UNL     1      50.340 162.268  41.771  0.00  0.00    +0.003 C 
ATOM     18  C   UNL     1      49.021 161.859  41.817  0.00  0.00    +0.000 C 
ATOM     19  C   UNL     1      48.753 160.534  42.065  0.00  0.00    +0.000 C 
ATOM     20  C   UNL     1      49.786 159.638  42.263  0.00  0.00    +0.003 C 
ATOM     21  C   UNL     1      52.743 161.848  41.912  0.00  0.00    +0.212 C 
ATOM     22  O   UNL     1      52.971 163.066  41.684  0.00  0.00    -0.285 OA
BRANCH  12  23
ATOM     23  O   UNL     1      54.688 158.781  42.550  0.00  0.00    -0.502 OA
ATOM     24  H   UNL     1      55.085 158.710  43.396  0.00  0.00    +0.292 HD
ENDBRANCH  12  23
ENDBRANCH   7  11
ENDBRANCH   5   8
ENDBRANCH   1   5
BRANCH   1  25
ATOM     25  C   UNL     1      59.871 160.358  40.064  0.00  0.00    +0.217 C 
ATOM     26  O   UNL     1      60.612 159.344  39.963  0.00  0.00    -0.283 OA
BRANCH  25  27
ATOM     27  S   UNL     1      60.494 161.857  40.681  0.00  0.00    -0.089 S 
ATOM     28  H   UNL     1      60.039 162.469  41.807  0.00  0.00    +0.107 HD
BRANCH  27  29
ATOM     29  C   UNL     1      60.127 162.916  39.277  0.00  0.00    +0.113 C 
ATOM     30  S   UNL     1      59.335 164.292  39.531  0.00  0.00    -0.028 S 
BRANCH  29  31
ATOM     31  N   UNL     1      60.569 162.488  37.994  0.00  0.00    -0.269 N 
ATOM     32  H   UNL     1      61.032 161.621  37.927  0.00  0.00    +0.162 HD
BRANCH  31  33
ATOM     33  S   UNL     1      60.339 163.409  36.535  0.00  0.00    +0.007 S 
BRANCH  33  34
ATOM     34  S   UNL     1      58.822 162.587  35.295  0.00  0.00    -0.091 S 
ATOM     35  H   UNL     1      58.630 163.393  34.217  0.00  0.00    +0.115 HD
ENDBRANCH  33  34
ENDBRANCH  31  33
ENDBRANCH  29  31
ENDBRANCH  27  29
BRANCH  27  36
ATOM     36  S   UNL     1      62.038 161.453  40.962  0.00  0.00    -0.044 S 
BRANCH  36  37
ATOM     37  C   UNL     1      63.383 161.739  40.070  0.00  0.00    +0.114 C 
ATOM     38  S   UNL     1      63.959 160.644  38.958  0.00  0.00    -0.028 S 
BRANCH  37  39
ATOM     39  N   UNL     1      64.201 162.929  40.137  0.00  0.00    -0.346 N 
ATOM     40  H   UNL     1      63.953 163.727  39.617  0.00  0.00    +0.143 HD
ATOM     41  H   UNL     1      65.007 162.942  40.702  0.00  0.00    +0.143 HD
ENDBRANCH  37  39
ENDBRANCH  36  37
ENDBRANCH  27  36
ENDBRANCH  25  27
ENDBRANCH   1  25
TORSDOF 14
ENDMDL
