REMARK  Name = =
REMARK  0 active torsions:
REMARK  status: ('A' for Active; 'I' for Inactive)
REMARK                            x       y       z     vdW  Elec       q    Type
REMARK                         _______ _______ _______ _____ _____    ______ ____
ROOT
ATOM      1  C   UNL     1      -4.121  -5.028  32.286  0.00  0.00    +0.099 C 
ATOM      2  C   UNL     1      -3.787  -5.626  31.089  0.00  0.00    +0.099 C 
ATOM      3  C   UNL     1      -3.597  -6.990  31.010  0.00  0.00    +0.021 C 
ATOM      4  C   UNL     1      -3.730  -7.808  32.113  0.00  0.00    +0.002 C 
ATOM      5  C   UNL     1      -4.065  -7.186  33.299  0.00  0.00    +0.002 C 
ATOM      6  C   UNL     1      -4.259  -5.831  33.404  0.00  0.00    +0.021 C 
ATOM      7  N   UNL     1      -3.652  -4.842  29.999  0.00  0.00    -0.241 NA
ATOM      8  C   UNL     1      -3.845  -3.517  30.110  0.00  0.00    +0.119 C 
ATOM      9  C   UNL     1      -4.178  -2.908  31.300  0.00  0.00    +0.119 C 
ATOM     10  N   UNL     1      -4.314  -3.681  32.388  0.00  0.00    -0.241 NA
ENDROOT
TORSDOF 0
