REMARK  Name = =
REMARK  0 active torsions:
REMARK  status: ('A' for Active; 'I' for Inactive)
REMARK                            x       y       z     vdW  Elec       q    Type
REMARK                         _______ _______ _______ _____ _____    ______ ____
ROOT
ATOM      1  C   UNL     1      -3.690  -6.743  31.734  0.00  0.00    +0.076 C 
ATOM      2  C   UNL     1      -2.914  -7.697  32.395  0.00  0.00    +0.095 C 
ATOM      3  C   UNL     1      -2.338  -7.495  33.725  0.00  0.00    +0.016 C 
ATOM      4  C   UNL     1      -2.626  -6.319  34.326  0.00  0.00    -0.025 C 
ATOM      5  C   UNL     1      -3.492  -5.360  33.652  0.00  0.00    +0.027 C 
ATOM      6  C   UNL     1      -3.506  -5.367  32.182  0.00  0.00    +0.041 C 
ATOM      7  C   UNL     1      -2.242  -4.715  31.576  0.00  0.00    +0.006 C 
ATOM      8  C   UNL     1      -1.296  -5.707  30.992  0.00  0.00    +0.008 C 
ATOM      9  C   UNL     1      -0.382  -4.923  30.036  0.00  0.00    +0.065 C 
ATOM     10  C   UNL     1      -1.258  -4.006  29.265  0.00  0.00    +0.151 C 
ATOM     11  O   UNL     1      -2.064  -4.500  28.497  0.00  0.00    -0.296 OA
ATOM     12  C   UNL     1      -1.215  -2.526  29.369  0.00  0.00    +0.065 C 
ATOM     13  C   UNL     1      -2.248  -1.893  28.463  0.00  0.00    +0.012 C 
ATOM     14  C   UNL     1      -2.549  -0.465  28.785  0.00  0.00    +0.048 C 
ATOM     15  C   UNL     1      -3.206  -0.267  30.132  0.00  0.00    +0.208 C 
ATOM     16  O   UNL     1      -4.526  -0.705  30.146  0.00  0.00    -0.448 OA
ATOM     17  C   UNL     1      -5.381  -0.899  31.182  0.00  0.00    +0.317 C 
ATOM     18  O   UNL     1      -6.439  -0.252  31.413  0.00  0.00    -0.250 OA
ATOM     19  C   UNL     1      -5.126  -1.974  32.213  0.00  0.00    +0.110 C 
ATOM     20  C   UNL     1      -4.116  -2.975  31.703  0.00  0.00    +0.012 C 
ATOM     21  C   UNL     1      -4.525  -4.335  32.216  0.00  0.00    +0.006 C 
ATOM     22  C   UNL     1      -4.331  -4.330  33.719  0.00  0.00    +0.005 C 
ATOM     23  N   UNL     1      -2.851  -8.968  31.925  0.00  0.00    -0.241 NA
ATOM     24  C   UNL     1      -3.543  -9.309  30.829  0.00  0.00    +0.119 C 
ATOM     25  C   UNL     1      -4.316  -8.380  30.175  0.00  0.00    +0.119 C 
ATOM     26  N   UNL     1      -4.365  -7.122  30.648  0.00  0.00    -0.245 NA
ENDROOT
TORSDOF 0
