REMARK  Name = =
REMARK  2 active torsions:
REMARK  status: ('A' for Active; 'I' for Inactive)
REMARK    1  A    between atoms: C_19  and  O_27
REMARK    2  A    between atoms: O_27  and  N_28
REMARK                            x       y       z     vdW  Elec       q    Type
REMARK                         _______ _______ _______ _____ _____    ______ ____
ROOT
ATOM      1  C   UNL     1      -2.390  -6.597  31.724  0.00  0.00    +0.076 C 
ATOM      2  C   UNL     1      -3.063  -6.920  32.912  0.00  0.00    +0.095 C 
ATOM      3  C   UNL     1      -3.290  -8.323  33.255  0.00  0.00    +0.016 C 
ATOM      4  C   UNL     1      -2.900  -9.308  32.435  0.00  0.00    -0.025 C 
ATOM      5  C   UNL     1      -2.260  -8.942  31.151  0.00  0.00    +0.027 C 
ATOM      6  C   UNL     1      -1.527  -7.652  31.097  0.00  0.00    +0.041 C 
ATOM      7  C   UNL     1      -0.239  -7.722  31.944  0.00  0.00    +0.006 C 
ATOM      8  C   UNL     1      -0.298  -6.836  33.174  0.00  0.00    +0.008 C 
ATOM      9  C   UNL     1       1.105  -6.475  33.644  0.00  0.00    +0.065 C 
ATOM     10  C   UNL     1       1.881  -5.689  32.687  0.00  0.00    +0.151 C 
ATOM     11  O   UNL     1       3.111  -5.873  32.684  0.00  0.00    -0.296 OA
ATOM     12  C   UNL     1       1.379  -4.699  31.723  0.00  0.00    +0.065 C 
ATOM     13  C   UNL     1       2.331  -4.425  30.599  0.00  0.00    +0.012 C 
ATOM     14  C   UNL     1       2.949  -5.654  29.991  0.00  0.00    +0.048 C 
ATOM     15  C   UNL     1       2.435  -5.774  28.561  0.00  0.00    +0.209 C 
ATOM     16  O   UNL     1       1.110  -5.369  28.507  0.00  0.00    -0.446 OA
ATOM     17  C   UNL     1       0.105  -5.815  27.712  0.00  0.00    +0.361 C 
ATOM     18  O   UNL     1      -0.629  -5.059  27.031  0.00  0.00    -0.246 OA
ATOM     19  C   UNL     1      -0.168  -7.265  27.622  0.00  0.00    +0.297 C 
ATOM     20  C   UNL     1      -0.095  -7.944  28.983  0.00  0.00    +0.059 C 
ATOM     21  C   UNL     1      -1.374  -7.883  29.725  0.00  0.00    +0.010 C 
ATOM     22  C   UNL     1      -1.885  -9.251  29.976  0.00  0.00    +0.005 C 
ATOM     23  N   UNL     1      -3.686  -5.957  33.618  0.00  0.00    -0.241 NA
ATOM     24  C   UNL     1      -3.667  -4.676  33.175  0.00  0.00    +0.119 C 
ATOM     25  C   UNL     1      -3.017  -4.349  32.007  0.00  0.00    +0.119 C 
ATOM     26  N   UNL     1      -2.395  -5.336  31.317  0.00  0.00    -0.245 NA
ENDROOT
BRANCH  19  27
ATOM     27  O   UNL     1       0.819  -7.813  26.750  0.00  0.00    -0.339 OA
BRANCH  27  28
ATOM     28  N   UNL     1       0.577  -8.911  25.970  0.00  0.00    +0.157 NA
ATOM     29  O   UNL     1      -0.520  -9.481  26.061  0.00  0.00    -0.105 OA
ENDBRANCH  27  28
ENDBRANCH  19  27
TORSDOF 2
