REMARK  Name = =
REMARK  4 active torsions:
REMARK  status: ('A' for Active; 'I' for Inactive)
REMARK    1  A    between atoms: C_19  and  C_27
REMARK    2  A    between atoms: C_19  and  O_31
REMARK    3  A    between atoms: N_29  and  N_30
REMARK    4  A    between atoms: O_31  and  N_32
REMARK                            x       y       z     vdW  Elec       q    Type
REMARK                         _______ _______ _______ _____ _____    ______ ____
ROOT
ATOM      1  C   UNL     1      -1.458  -7.000  31.025  0.00  0.00    +0.076 C 
ATOM      2  C   UNL     1      -2.291  -6.294  31.876  0.00  0.00    +0.095 C 
ATOM      3  C   UNL     1      -3.031  -5.093  31.499  0.00  0.00    +0.016 C 
ATOM      4  C   UNL     1      -2.892  -4.705  30.213  0.00  0.00    -0.025 C 
ATOM      5  C   UNL     1      -2.069  -5.486  29.302  0.00  0.00    +0.027 C 
ATOM      6  C   UNL     1      -0.937  -6.237  29.883  0.00  0.00    +0.041 C 
ATOM      7  C   UNL     1       0.157  -5.291  30.427  0.00  0.00    +0.006 C 
ATOM      8  C   UNL     1       0.204  -4.004  29.644  0.00  0.00    +0.008 C 
ATOM      9  C   UNL     1       1.599  -3.417  29.776  0.00  0.00    +0.065 C 
ATOM     10  C   UNL     1       2.128  -2.957  28.473  0.00  0.00    +0.151 C 
ATOM     11  O   UNL     1       1.567  -2.073  27.876  0.00  0.00    -0.296 OA
ATOM     12  C   UNL     1       3.341  -3.588  27.917  0.00  0.00    +0.065 C 
ATOM     13  C   UNL     1       3.259  -3.768  26.416  0.00  0.00    +0.012 C 
ATOM     14  C   UNL     1       4.177  -4.910  26.039  0.00  0.00    +0.048 C 
ATOM     15  C   UNL     1       3.406  -6.117  25.553  0.00  0.00    +0.209 C 
ATOM     16  O   UNL     1       3.593  -7.235  26.372  0.00  0.00    -0.446 OA
ATOM     17  C   UNL     1       2.788  -7.667  27.390  0.00  0.00    +0.365 C 
ATOM     18  O   UNL     1       3.327  -8.010  28.494  0.00  0.00    -0.246 OA
ATOM     19  C   UNL     1       1.307  -7.769  27.313  0.00  0.00    +0.319 C 
ATOM     20  C   UNL     1       0.670  -6.503  27.936  0.00  0.00    +0.064 C 
ATOM     21  C   UNL     1      -0.613  -6.820  28.606  0.00  0.00    +0.011 C 
ATOM     22  C   UNL     1      -1.704  -5.900  28.104  0.00  0.00    +0.005 C 
ATOM     23  N   UNL     1      -2.632  -6.863  33.071  0.00  0.00    -0.241 NA
ATOM     24  C   UNL     1      -2.193  -8.075  33.431  0.00  0.00    +0.119 C 
ATOM     25  C   UNL     1      -1.374  -8.767  32.570  0.00  0.00    +0.119 C 
ATOM     26  N   UNL     1      -1.027  -8.196  31.373  0.00  0.00    -0.245 NA
ENDROOT
BRANCH  19  27
ATOM     27  C   UNL     1       0.796  -8.975  27.978  0.00  0.00    +0.285 C 
ATOM     28  O   UNL     1       0.990  -9.133  29.205  0.00  0.00    -0.269 OA
ATOM     29  N   UNL     1       0.085  -9.961  27.262  0.00  0.00    -0.250 N 
ATOM     30  H   UNL     1      -0.078  -9.848  26.298  0.00  0.00    +0.169 HD
BRANCH  29  31
ATOM     31  N   UNL     1      -0.397 -11.122  27.936  0.00  0.00    -0.254 NA
ATOM     32  H   UNL     1      -0.140 -11.074  28.922  0.00  0.00    +0.140 HD
ATOM     33  H   UNL     1       0.017 -11.955  27.517  0.00  0.00    +0.140 HD
ENDBRANCH  29  31
ENDBRANCH  19  27
BRANCH  19  34
ATOM     34  O   UNL     1       0.976  -7.811  25.944  0.00  0.00    -0.334 OA
BRANCH  34  35
ATOM     35  N   UNL     1       1.132  -8.853  25.104  0.00  0.00    +0.157 NA
ATOM     36  O   UNL     1       2.021  -9.682  25.260  0.00  0.00    -0.105 OA
ENDBRANCH  34  35
ENDBRANCH  19  34
TORSDOF 4
