REMARK  Name = =
REMARK  6 active torsions:
REMARK  status: ('A' for Active; 'I' for Inactive)
REMARK    1  A    between atoms: C_12  and  O_31
REMARK    2  A    between atoms: C_19  and  C_27
REMARK    3  A    between atoms: C_19  and  O_34
REMARK    4  A    between atoms: N_29  and  N_30
REMARK    5  A    between atoms: O_31  and  C_32
REMARK    6  A    between atoms: O_34  and  N_35
REMARK                            x       y       z     vdW  Elec       q    Type
REMARK                         _______ _______ _______ _____ _____    ______ ____
ROOT
ATOM      1  C   UNL     1       0.337  -7.109  29.558  0.00  0.00    +0.076 C 
ATOM      2  C   UNL     1       0.178  -6.562  30.841  0.00  0.00    +0.095 C 
ATOM      3  C   UNL     1       1.015  -5.429  31.290  0.00  0.00    +0.016 C 
ATOM      4  C   UNL     1       1.977  -4.918  30.498  0.00  0.00    -0.025 C 
ATOM      5  C   UNL     1       2.146  -5.586  29.191  0.00  0.00    +0.027 C 
ATOM      6  C   UNL     1       0.984  -6.235  28.543  0.00  0.00    +0.041 C 
ATOM      7  C   UNL     1      -0.089  -5.230  28.122  0.00  0.00    +0.006 C 
ATOM      8  C   UNL     1       0.174  -4.447  26.905  0.00  0.00    +0.008 C 
ATOM      9  C   UNL     1       1.158  -3.319  27.028  0.00  0.00    +0.068 C 
ATOM     10  C   UNL     1       2.083  -3.268  25.839  0.00  0.00    +0.190 C 
ATOM     11  O   UNL     1       1.573  -3.699  24.794  0.00  0.00    -0.292 OA
ATOM     12  C   UNL     1       3.470  -2.756  25.901  0.00  0.00    +0.226 C 
ATOM     13  C   UNL     1       4.332  -3.317  24.789  0.00  0.00    +0.055 C 
ATOM     14  C   UNL     1       5.171  -4.444  25.310  0.00  0.00    +0.052 C 
ATOM     15  C   UNL     1       4.551  -5.802  25.017  0.00  0.00    +0.209 C 
ATOM     16  O   UNL     1       5.092  -6.850  25.740  0.00  0.00    -0.447 OA
ATOM     17  C   UNL     1       4.521  -7.739  26.596  0.00  0.00    +0.352 C 
ATOM     18  O   UNL     1       5.138  -8.056  27.650  0.00  0.00    -0.247 OA
ATOM     19  C   UNL     1       3.206  -8.394  26.405  0.00  0.00    +0.274 C 
ATOM     20  C   UNL     1       2.275  -8.144  27.607  0.00  0.00    +0.050 C 
ATOM     21  C   UNL     1       1.845  -6.680  27.498  0.00  0.00    +0.009 C 
ATOM     22  C   UNL     1       2.882  -5.878  28.172  0.00  0.00    +0.005 C 
ATOM     23  N   UNL     1      -0.596  -7.226  31.718  0.00  0.00    -0.241 NA
ATOM     24  C   UNL     1      -1.208  -8.392  31.406  0.00  0.00    +0.119 C 
ATOM     25  C   UNL     1      -1.032  -8.912  30.153  0.00  0.00    +0.119 C 
ATOM     26  N   UNL     1      -0.252  -8.240  29.260  0.00  0.00    -0.245 NA
ENDROOT
BRANCH  19  27
ATOM     27  C   UNL     1       3.467  -9.876  26.462  0.00  0.00    +0.272 C 
ATOM     28  O   UNL     1       2.739 -10.633  27.154  0.00  0.00    -0.271 OA
ATOM     29  N   UNL     1       4.529 -10.477  25.749  0.00  0.00    -0.251 N 
ATOM     30  H   UNL     1       5.125  -9.925  25.193  0.00  0.00    +0.169 HD
BRANCH  29  31
ATOM     31  N   UNL     1       4.732 -11.874  25.837  0.00  0.00    -0.254 NA
ATOM     32  H   UNL     1       4.027 -12.282  26.451  0.00  0.00    +0.140 HD
ATOM     33  H   UNL     1       5.661 -12.059  26.215  0.00  0.00    +0.140 HD
ENDBRANCH  29  31
ENDBRANCH  19  27
BRANCH  12  34
ATOM     34  O   UNL     1       3.990  -2.991  27.173  0.00  0.00    -0.437 OA
BRANCH  34  35
ATOM     35  C   UNL     1       3.820  -2.137  28.262  0.00  0.00    +0.418 C 
ATOM     36  O   UNL     1       3.125  -1.088  28.063  0.00  0.00    -0.238 OA
ENDBRANCH  34  35
ENDBRANCH  12  34
BRANCH  19  37
ATOM     37  O   UNL     1       2.521  -8.017  25.256  0.00  0.00    -0.225 OA
BRANCH  37  38
ATOM     38  N   UNL     1       2.573  -8.638  24.033  0.00  0.00    +0.102 NA
ATOM     39  O   UNL     1       1.518  -8.652  23.360  0.00  0.00    -0.069 OA
ENDBRANCH  37  38
ENDBRANCH  19  37
TORSDOF 6
