REMARK  Name = =
REMARK  0 active torsions:
REMARK  status: ('A' for Active; 'I' for Inactive)
REMARK                            x       y       z     vdW  Elec       q    Type
REMARK                         _______ _______ _______ _____ _____    ______ ____
ROOT
ATOM      1  N   UNL     1      -4.368  -3.938  30.848  0.00  0.00    -0.248 N 
ATOM      2  C   UNL     1      -3.607  -5.132  30.832  0.00  0.00    +0.252 C 
ATOM      3  O   UNL     1      -4.037  -6.269  31.087  0.00  0.00    -0.270 OA
ATOM      4  C   UNL     1      -2.226  -4.808  30.465  0.00  0.00    +0.058 C 
ATOM      5  C   UNL     1      -2.168  -3.447  30.266  0.00  0.00    +0.058 C 
ATOM      6  C   UNL     1      -0.932  -2.921  29.906  0.00  0.00    +0.005 C 
ATOM      7  C   UNL     1       0.180  -3.716  29.753  0.00  0.00    +0.000 C 
ATOM      8  C   UNL     1       0.120  -5.078  29.952  0.00  0.00    +0.000 C 
ATOM      9  C   UNL     1      -1.093  -5.614  30.309  0.00  0.00    +0.005 C 
ATOM     10  C   UNL     1      -3.484  -2.884  30.497  0.00  0.00    +0.252 C 
ATOM     11  O   UNL     1      -3.767  -1.663  30.397  0.00  0.00    -0.270 OA
ATOM     12  H   UNL     1      -5.325  -3.855  31.061  0.00  0.00    +0.158 HD
ENDROOT
TORSDOF 0
