REMARK  Name = =
REMARK  5 active torsions:
REMARK  status: ('A' for Active; 'I' for Inactive)
REMARK    1  A    between atoms: C_8  and  N_23
REMARK    2  A    between atoms: C_9  and  C_12
REMARK    3  A    between atoms: C_16  and  N_19
REMARK    4  A    between atoms: N_19  and  N_20
REMARK    5  A    between atoms: N_26  and  C_27
REMARK                            x       y       z     vdW  Elec       q    Type
REMARK                         _______ _______ _______ _____ _____    ______ ____
ROOT
ATOM      1  N   UNL     1       0.492  -1.668  29.090  0.00  0.00    -0.248 N 
ATOM      2  C   UNL     1       1.605  -2.040  28.275  0.00  0.00    +0.252 C 
ATOM      3  O   UNL     1       2.704  -2.295  28.785  0.00  0.00    -0.270 OA
ATOM      4  C   UNL     1       1.236  -2.051  26.865  0.00  0.00    +0.056 C 
ATOM      5  C   UNL     1      -0.083  -1.680  26.844  0.00  0.00    +0.058 C 
ATOM      6  C   UNL     1      -0.729  -1.517  25.654  0.00  0.00    +0.006 C 
ATOM      7  C   UNL     1      -0.037  -1.731  24.448  0.00  0.00    +0.015 C 
ATOM      8  C   UNL     1       1.289  -2.109  24.445  0.00  0.00    +0.048 C 
ATOM      9  C   UNL     1       1.954  -2.279  25.672  0.00  0.00    +0.003 C 
ATOM     10  C   UNL     1      -0.580  -1.436  28.212  0.00  0.00    +0.252 C 
ATOM     11  O   UNL     1      -1.732  -1.088  28.571  0.00  0.00    -0.270 OA
ATOM     12  H   UNL     1       0.479  -1.590  30.071  0.00  0.00    +0.158 HD
ENDROOT
BRANCH   9  13
ATOM     13  C   UNL     1       3.251  -2.886  25.758  0.00  0.00    +0.083 C 
ATOM     14  C   UNL     1       4.494  -2.098  25.929  0.00  0.00    +0.012 C 
ATOM     15  C   UNL     1       5.203  -2.537  27.215  0.00  0.00    +0.003 C 
ATOM     16  C   UNL     1       5.097  -3.948  27.606  0.00  0.00    +0.025 C 
ATOM     17  C   UNL     1       4.654  -4.893  26.553  0.00  0.00    +0.129 C 
ATOM     18  C   UNL     1       3.388  -4.347  25.971  0.00  0.00    +0.170 C 
ATOM     19  O   UNL     1       2.495  -5.091  25.671  0.00  0.00    -0.294 OA
BRANCH  17  20
ATOM     20  N   UNL     1       4.527  -6.239  26.896  0.00  0.00    -0.224 NA
ATOM     21  H   UNL     1       5.475  -6.598  27.007  0.00  0.00    +0.145 HD
BRANCH  20  22
ATOM     22  N   UNL     1       3.838  -6.631  27.999  0.00  0.00    -0.242 N 
ATOM     23  C   UNL     1       2.999  -7.815  27.983  0.00  0.00    +0.314 C 
ATOM     24  O   UNL     1       2.909  -8.488  26.930  0.00  0.00    -0.264 OA
ATOM     25  H   UNL     1       3.909  -6.101  28.826  0.00  0.00    +0.169 HD
ENDBRANCH  20  22
ENDBRANCH  17  20
ENDBRANCH   9  13
BRANCH   8  26
ATOM     26  N   UNL     1       1.980  -2.377  23.253  0.00  0.00    -0.268 N 
ATOM     27  C   UNL     1       1.409  -2.595  21.961  0.00  0.00    +0.308 C 
ATOM     28  O   UNL     1       0.190  -2.561  21.835  0.00  0.00    -0.252 OA
ATOM     29  N   UNL     1       2.211  -2.852  20.823  0.00  0.00    -0.268 N 
ATOM     30  H   UNL     1       2.962  -2.419  23.313  0.00  0.00    +0.156 HD
ATOM     31  H   UNL     1       3.188  -2.863  20.947  0.00  0.00    +0.156 HD
BRANCH  29  32
ATOM     32  C   UNL     1       1.715  -3.093  19.526  0.00  0.00    +0.052 C 
ATOM     33  C   UNL     1       2.682  -3.244  18.519  0.00  0.00    +0.015 C 
ATOM     34  C   UNL     1       2.325  -3.515  17.222  0.00  0.00    +0.001 C 
ATOM     35  C   UNL     1       0.977  -3.641  16.906  0.00  0.00    +0.000 C 
ATOM     36  C   UNL     1       0.013  -3.498  17.876  0.00  0.00    +0.001 C 
ATOM     37  C   UNL     1       0.405  -3.224  19.182  0.00  0.00    +0.015 C 
ENDBRANCH  29  32
ENDBRANCH   8  26
TORSDOF 5
